@<TRIPOS>MOLECULE
3R207
157   159    1
SMALL
USER_CHARGES


@<TRIPOS>ATOM
      1 CA        -48.7656  -27.0193    4.4899 C.3       0 UNK        -0.1975 
      2 C         -47.9719  -27.8797    5.4627 C.2       0 UNK         0.4852 
      3 O         -46.8487  -28.2732    5.1483 O.2       0 UNK        -0.5216 
      4 N         -48.5582  -28.1782    6.6306 N.am      1 UNK        -0.4461 
      5 CA        -47.9928  -29.0051    7.7036 C.3       1 UNK         0.0864 
      6 C6        -47.8143  -30.4883    7.2769 C.3       14 UNK        -0.0898 
      7 S7        -48.0108  -31.6298    8.6858 S.3       14 UNK        -0.2598 
      8 C8        -49.6069  -32.4135    8.3031 C.3       14 UNK         0.0286 
      9 C9        -50.7846  -31.4704    8.5099 C.ar      14 UNK        -0.0844 
     10 C10       -51.4079  -30.8596    7.4168 C.ar      14 UNK        -0.0881 
     11 C11       -52.5476  -30.0701    7.5992 C.ar      14 UNK        -0.0643 
     12 C12       -53.0569  -29.8884    8.8895 C.ar      14 UNK        -0.0930 
     13 C13       -52.4315  -30.4768    9.9944 C.ar      14 UNK        -0.0827 
     14 C14       -51.2916  -31.2615    9.7955 C.ar      14 UNK        -0.1249 
     15 C15       -53.0127  -30.3268   11.3961 C.3       14 UNK         0.0141 
     16 S16       -53.0104  -28.6010   11.9732 S.3       14 UNK        -0.2313 
     17 C17       -54.7048  -28.0568   11.5527 C.3       14 UNK        -0.0915 
     18 CA        -55.6018  -27.7728   12.7887 C.3       13 UNK         0.0968 
     19 C         -56.0745  -29.0529   13.5350 C.2       13 UNK         0.5732 
     20 N         -56.2106  -29.0291   14.8556 N.am      13 UNK        -0.7310 
     21 O         -56.3441  -30.0772   12.9128 O.2       13 UNK        -0.5035 
     22 N         -55.0049  -26.7636   13.6771 N.am      13 UNK        -0.4233 
     23 C         -55.2283  -25.4466   13.6243 C.2       13 UNK         0.4989 
     24 O         -56.0042  -24.9073   12.8335 O.2       13 UNK        -0.4996 
     25 CA        -54.4364  -24.6011   14.6388 C.3       12 UNK         0.0216 
     26 CB        -54.8354  -23.1097   14.6446 C.3       12 UNK        -0.1964 
     27 N         -54.4705  -25.1771   15.9897 N.am      12 UNK        -0.4276 
     28 C         -55.5358  -25.3222   16.7957 C.2       12 UNK         0.5020 
     29 O         -56.6704  -24.9486   16.4970 O.2       12 UNK        -0.5489 
     30 CA        -55.3263  -26.0203   18.1585 C.3       11 UNK         0.0294 
     31 CB        -56.2781  -27.2189   18.3238 C.3       11 UNK        -0.2019 
     32 N         -53.9540  -26.4814   18.3841 N.am      11 UNK        -0.4493 
     33 C         -52.9325  -25.7096   18.7780 C.2       11 UNK         0.4932 
     34 O         -53.0492  -24.5217   19.0787 O.2       11 UNK        -0.5029 
     35 CA        -51.5366  -26.3628   18.8099 C.3       10 UNK         0.0280 
     36 CB        -51.1843  -26.7975   20.2418 C.3       10 UNK        -0.1976 
     37 N         -51.3632  -27.5062   17.9005 N.am      10 UNK        -0.4242 
     38 C         -51.5182  -27.4729   16.5693 C.2       10 UNK         0.5072 
     39 O         -51.9282  -26.4892   15.9484 O.2       10 UNK        -0.5224 
     40 CA        -51.2346  -28.7762   15.8088 C.3       9 UNK         0.0343 
     41 CB        -52.5285  -29.5871   15.6309 C.3       9 UNK        -0.2003 
     42 N         -50.6740  -28.4762   14.4926 N.am      9 UNK        -0.4272 
     43 C         -49.3974  -28.1328   14.2748 C.2       9 UNK         0.4988 
     44 O         -48.5228  -28.1544   15.1420 O.2       9 UNK        -0.5108 
     45 CA        -49.0341  -27.6839   12.8505 C.3       8 UNK         0.0248 
     46 CB        -48.6770  -28.8941   11.9709 C.3       8 UNK        -0.2001 
     47 N         -50.1058  -26.9224   12.2079 N.am      8 UNK        -0.4140 
     48 C         -50.4314  -25.6529   12.4953 C.2       8 UNK         0.5028 
     49 O         -49.8327  -24.9611   13.3192 O.2       8 UNK        -0.5428 
     50 CA        -51.5895  -25.0569   11.6770 C.3       7 UNK         0.0264 
     51 CB        -51.6883  -23.5215   11.7711 C.3       7 UNK        -0.1988 
     52 N         -51.4410  -25.4769   10.2870 N.am      7 UNK        -0.4454 
     53 C         -52.4127  -25.6171    9.3818 C.2       7 UNK         0.5027 
     54 O         -53.5818  -25.2751    9.5599 O.2       7 UNK        -0.5083 
     55 CA        -51.9737  -26.2431    8.0429 C.3       6 UNK         0.0844 
     56 C56       -53.1588  -26.7635    7.1970 C.3       14 UNK        -0.0967 
     57 S57       -52.5684  -27.8736    5.8742 S.3       14 UNK        -0.2604 
     58 C58       -53.2652  -29.4751    6.3932 C.3       14 UNK         0.0134 
     59 N         -51.1467  -25.2954    7.2918 N.am      6 UNK        -0.4116 
     60 C         -49.8680  -25.0142    7.5617 C.2       5 UNK         0.5034 
     61 O         -49.2210  -25.6034    8.4327 O.2       5 UNK        -0.5045 
     62 CA        -49.1765  -23.9293    6.7199 C.3       5 UNK         0.0224 
     63 CB        -50.1095  -23.1401    5.7725 C.3       5 UNK        -0.1978 
     64 N         -48.3884  -23.0429    7.5789 N.am      5 UNK        -0.4737 
     65 C         -48.8322  -22.1705    8.4969 C.2       4 UNK         0.5027 
     66 O         -50.0235  -21.9098    8.6658 O.2       4 UNK        -0.5211 
     67 CA        -47.7799  -21.4852    9.3983 C.3       4 UNK         0.0297 
     68 CB        -48.2365  -21.4576   10.8687 C.3       4 UNK        -0.1993 
     69 N         -46.4667  -22.1325    9.3351 N.am      4 UNK        -0.4486 
     70 C         -45.5105  -21.8918    8.4274 C.2       3 UNK         0.4961 
     71 O         -45.5749  -20.9990    7.5829 O.2       3 UNK        -0.5105 
     72 CA        -44.2969  -22.8446    8.4351 C.3       3 UNK         0.0299 
     73 CB        -43.1249  -22.2153    9.2051 C.3       3 UNK        -0.1972 
     74 N         -44.5942  -24.1701    8.9984 N.am      3 UNK        -0.4305 
     75 C         -45.4736  -25.0421    8.4823 C.2       2 UNK         0.5006 
     76 O         -46.0699  -24.8506    7.4203 O.2       2 UNK        -0.5106 
     77 CA        -45.7576  -26.3018    9.3147 C.3       2 UNK         0.0296 
     78 CB        -46.2160  -25.9485   10.7432 C.3       2 UNK        -0.2002 
     79 N         -46.8150  -27.0918    8.6852 N.am      2 UNK        -0.4032 
     80 C         -46.7234  -28.3790    8.3341 C.2       1 UNK         0.5000 
     81 O         -45.7038  -29.0543    8.4974 O.2       1 UNK        -0.5238 
     82 H82       -49.7385  -26.7358    4.8903 H         1 UNK         0.0889 
     83 H83       -48.9320  -27.5649    3.5614 H         1 UNK         0.0889 
     84 H84       -48.2131  -26.1105    4.2539 H         1 UNK         0.0889 
     85 H85       -49.4861  -27.8239    6.8138 H         1 UNK         0.3028 
     86 H86       -48.7518  -28.9769    8.4876 H         1 UNK         0.0864 
     87 H87       -48.5497  -30.7512    6.5159 H         1 UNK         0.0720 
     88 H88       -46.8456  -30.6589    6.8037 H         1 UNK         0.0720 
     89 H89       -49.7286  -33.2848    8.9484 H         1 UNK         0.0814 
     90 H90       -49.5919  -32.7995    7.2826 H         1 UNK         0.0814 
     91 H91       -51.0274  -31.0236    6.4180 H         1 UNK         0.1469 
     92 H92       -53.9534  -29.3040    9.0317 H         1 UNK         0.1381 
     93 H93       -50.8123  -31.7406   10.6384 H         1 UNK         0.1206 
     94 H94       -52.4353  -30.9161   12.1100 H         1 UNK         0.0813 
     95 H95       -54.0225  -30.7381   11.4215 H         1 UNK         0.0813 
     96 H96       -54.6202  -27.1453   10.9639 H         1 UNK         0.0638 
     97 H97       -55.1855  -28.7781   10.8913 H         1 UNK         0.0638 
     98 H98       -56.5359  -27.3622   12.4019 H         1 UNK         0.0568 
     99 H99       -56.0898  -28.1732   15.3686 H         1 UNK         0.3450 
    100 H100      -56.5272  -29.8622   15.3258 H         1 UNK         0.3450 
    101 H101      -54.3442  -27.1164   14.3528 H         1 UNK         0.2987 
    102 H102      -53.3936  -24.6516   14.3222 H         1 UNK         0.0766 
    103 H103      -55.8868  -22.9690   14.8967 H         1 UNK         0.0798 
    104 H104      -54.2393  -22.5431   15.3599 H         1 UNK         0.0798 
    105 H105      -54.6754  -22.6615   13.6631 H         1 UNK         0.0798 
    106 H106      -53.5788  -25.5549   16.3021 H         1 UNK         0.3198 
    107 H107      -55.5774  -25.2854   18.9266 H         1 UNK         0.0843 
    108 H108      -57.3181  -26.9213   18.1827 H         1 UNK         0.0831 
    109 H109      -56.2033  -27.6462   19.3240 H         1 UNK         0.0831 
    110 H110      -56.0643  -28.0109   17.6066 H         1 UNK         0.0831 
    111 H111      -53.7594  -27.4492   18.1732 H         1 UNK         0.3133 
    112 H112      -50.8206  -25.5979   18.5020 H         1 UNK         0.0566 
    113 H113      -50.1575  -27.1579   20.3078 H         1 UNK         0.0814 
    114 H114      -51.2757  -25.9621   20.9378 H         1 UNK         0.0814 
    115 H115      -51.8438  -27.5904   20.5974 H         1 UNK         0.0814 
    116 H116      -51.0474  -28.3676   18.3240 H         1 UNK         0.3091 
    117 H117      -50.5181  -29.3765   16.3739 H         1 UNK         0.0702 
    118 H118      -52.3437  -30.5126   15.0850 H         1 UNK         0.0785 
    119 H119      -53.2864  -29.0262   15.0850 H         1 UNK         0.0785 
    120 H120      -52.9572  -29.8618   16.5955 H         1 UNK         0.0785 
    121 H121      -51.3311  -28.3966   13.7298 H         1 UNK         0.2998 
    122 H122      -48.1554  -27.0405   12.9246 H         1 UNK         0.0697 
    123 H123      -49.5252  -29.5675   11.8400 H         1 UNK         0.0825 
    124 H124      -47.8661  -29.4735   12.4145 H         1 UNK         0.0825 
    125 H125      -48.3437  -28.5803   10.9825 H         1 UNK         0.0825 
    126 H126      -50.6740  -27.4201   11.5367 H         1 UNK         0.3029 
    127 H127      -52.5096  -25.4883   12.0757 H         1 UNK         0.0897 
    128 H128      -52.5587  -23.1467   11.2326 H         1 UNK         0.0792 
    129 H129      -51.7849  -23.1945   12.8071 H         1 UNK         0.0792 
    130 H130      -50.8051  -23.0389   11.3528 H         1 UNK         0.0792 
    131 H131      -50.4934  -25.6928    9.9886 H         1 UNK         0.3086 
    132 H132      -51.3621  -27.1108    8.3034 H         1 UNK         0.0583 
    133 H133      -53.8805  -27.2950    7.8186 H         1 UNK         0.1020 
    134 H134      -53.7115  -25.9354    6.7497 H         1 UNK         0.1020 
    135 H135      -54.3309  -29.3618    6.5984 H         1 UNK         0.0694 
    136 H136      -53.1971  -30.1687    5.5537 H         1 UNK         0.0694 
    137 H137      -51.6191  -24.7602    6.5784 H         1 UNK         0.2989 
    138 H138      -48.4511  -24.4558    6.0988 H         1 UNK         0.1055 
    139 H139      -49.5551  -22.3732    5.2313 H         1 UNK         0.0806 
    140 H140      -50.9205  -22.6424    6.3053 H         1 UNK         0.0806 
    141 H141      -50.5559  -23.7932    5.0215 H         1 UNK         0.0806 
    142 H142      -47.3945  -23.2429    7.5664 H         1 UNK         0.3061 
    143 H143      -47.6868  -20.4535    9.0527 H         1 UNK         0.0734 
    144 H144      -49.1834  -20.9273   10.9783 H         1 UNK         0.0832 
    145 H145      -48.3780  -22.4635   11.2663 H         1 UNK         0.0832 
    146 H146      -47.5101  -20.9459   11.5003 H         1 UNK         0.0832 
    147 H147      -46.3136  -22.8896    9.9845 H         1 UNK         0.3156 
    148 H148      -43.9873  -22.9870    7.3975 H         1 UNK         0.0589 
    149 H149      -43.3656  -22.0657   10.2584 H         1 UNK         0.0808 
    150 H150      -42.2316  -22.8376    9.1483 H         1 UNK         0.0808 
    151 H151      -42.8641  -21.2407    8.7895 H         1 UNK         0.0808 
    152 H152      -44.1231  -24.4084    9.8598 H         1 UNK         0.3098 
    153 H153      -44.8266  -26.8695    9.3684 H         1 UNK         0.0720 
    154 H154      -46.3900  -26.8536   11.3242 H         1 UNK         0.0791 
    155 H155      -47.1427  -25.3722   10.7404 H         1 UNK         0.0791 
    156 H156      -45.4664  -25.3709   11.2844 H         1 UNK         0.0791 
    157 H157      -47.6663  -26.5771    8.4668 H         1 UNK         0.3028 
@<TRIPOS>BOND
     1    1    2 1    
     2    1   82 1    
     3    1   83 1    
     4    1   84 1    
     5    2    3 2    
     6    2    4 am   BACKBONE|DICT|INTERRES
     7    4    5 1    
     8    4   85 1    
     9    5    6 1    
    10    5   80 1    
    11    5   86 1    
    12    6    7 1    
    13    6   87 1    
    14    6   88 1    
    15    7    8 1    
    16    8    9 1    
    17    8   89 1    
    18    8   90 1    
    19    9   10 ar   
    20    9   14 ar   
    21   10   11 ar   
    22   10   91 1    
    23   11   12 ar   
    24   11   58 1    
    25   12   13 ar   
    26   12   92 1    
    27   13   14 ar   
    28   13   15 1    
    29   14   93 1    
    30   15   16 1    
    31   15   94 1    
    32   15   95 1    
    33   16   17 1    
    34   17   18 1    
    35   17   96 1    
    36   17   97 1    
    37   18   19 1    
    38   18   22 1    
    39   18   98 1    
    40   19   20 am   BACKBONE|DICT|INTERRES
    41   19   21 2    
    42   20   99 1    
    43   20  100 1    
    44   22   23 am   BACKBONE|DICT|INTERRES
    45   22  101 1    
    46   23   24 2    
    47   23   25 1    
    48   25   26 1    
    49   25   27 1    
    50   25  102 1    
    51   26  103 1    
    52   26  104 1    
    53   26  105 1    
    54   27   28 am   BACKBONE|DICT|INTERRES
    55   27  106 1    
    56   28   29 2    
    57   28   30 1    
    58   30   31 1    
    59   30   32 1    
    60   30  107 1    
    61   31  108 1    
    62   31  109 1    
    63   31  110 1    
    64   32   33 am   BACKBONE|DICT|INTERRES
    65   32  111 1    
    66   33   34 2    
    67   33   35 1    
    68   35   36 1    
    69   35   37 1    
    70   35  112 1    
    71   36  113 1    
    72   36  114 1    
    73   36  115 1    
    74   37   38 am   BACKBONE|DICT|INTERRES
    75   37  116 1    
    76   38   39 2    
    77   38   40 1    
    78   40   41 1    
    79   40   42 1    
    80   40  117 1    
    81   41  118 1    
    82   41  119 1    
    83   41  120 1    
    84   42   43 am   BACKBONE|DICT|INTERRES
    85   42  121 1    
    86   43   44 2    
    87   43   45 1    
    88   45   46 1    
    89   45   47 1    
    90   45  122 1    
    91   46  123 1    
    92   46  124 1    
    93   46  125 1    
    94   47   48 am   BACKBONE|DICT|INTERRES
    95   47  126 1    
    96   48   49 2    
    97   48   50 1    
    98   50   51 1    
    99   50   52 1    
   100   50  127 1    
   101   51  128 1    
   102   51  129 1    
   103   51  130 1    
   104   52   53 am   BACKBONE|DICT|INTERRES
   105   52  131 1    
   106   53   54 2    
   107   53   55 1    
   108   55   56 1    
   109   55   59 1    
   110   55  132 1    
   111   56   57 1    
   112   56  133 1    
   113   56  134 1    
   114   57   58 1    
   115   58  135 1    
   116   58  136 1    
   117   59   60 am   BACKBONE|DICT|INTERRES
   118   59  137 1    
   119   60   61 2    
   120   60   62 1    
   121   62   63 1    
   122   62   64 1    
   123   62  138 1    
   124   63  139 1    
   125   63  140 1    
   126   63  141 1    
   127   64   65 am   BACKBONE|DICT|INTERRES
   128   64  142 1    
   129   65   66 2    
   130   65   67 1    
   131   67   68 1    
   132   67   69 1    
   133   67  143 1    
   134   68  144 1    
   135   68  145 1    
   136   68  146 1    
   137   69   70 am   BACKBONE|DICT|INTERRES
   138   69  147 1    
   139   70   71 2    
   140   70   72 1    
   141   72   73 1    
   142   72   74 1    
   143   72  148 1    
   144   73  149 1    
   145   73  150 1    
   146   73  151 1    
   147   74   75 am   BACKBONE|DICT|INTERRES
   148   74  152 1    
   149   75   76 2    
   150   75   77 1    
   151   77   78 1    
   152   77   79 1    
   153   77  153 1    
   154   78  154 1    
   155   78  155 1    
   156   78  156 1    
   157   79   80 am   BACKBONE|DICT|INTERRES
   158   79  157 1    
   159   80   81 2    
@<TRIPOS>SUBSTRUCTURE
     1 UNK         1 GROUP             0       ****    0 ROOT    
