@<TRIPOS>MOLECULE
3R207
157   159    1
SMALL
USER_CHARGES


@<TRIPOS>ATOM
      1 CA        -50.7489  -30.3206    8.8576 C.3       0 UNK        -0.1975 
      2 C         -49.8752  -30.1101    7.6308 C.2       0 UNK         0.4852 
      3 O         -48.6488  -30.0819    7.7441 O.2       0 UNK        -0.5216 
      4 N         -50.4965  -29.9549    6.4553 N.am      1 UNK        -0.4461 
      5 CA        -49.8571  -29.6511    5.1713 C.3       1 UNK         0.0864 
      6 C6        -50.7166  -30.0692    3.9342 C.3       14 UNK        -0.0898 
      7 S7        -52.5145  -30.3141    4.1768 S.3       14 UNK        -0.2598 
      8 C8        -53.1499  -28.6336    4.4780 C.3       14 UNK         0.0286 
      9 C9        -53.4444  -28.4204    5.9563 C.ar      14 UNK        -0.0844 
     10 C10       -52.6710  -27.5458    6.7270 C.ar      14 UNK        -0.0881 
     11 C11       -52.9315  -27.3719    8.0907 C.ar      14 UNK        -0.0643 
     12 C12       -53.9835  -28.0898    8.6758 C.ar      14 UNK        -0.0930 
     13 C13       -54.7811  -28.9469    7.9124 C.ar      14 UNK        -0.0827 
     14 C14       -54.5066  -29.1052    6.5532 C.ar      14 UNK        -0.1249 
     15 C15       -55.9629  -29.6722    8.5445 C.3       14 UNK         0.0141 
     16 S16       -55.6866  -31.4652    8.7270 S.3       14 UNK        -0.2313 
     17 C17       -54.4211  -31.5152   10.0365 C.3       14 UNK        -0.0915 
     18 CA        -55.0150  -31.4584   11.4760 C.3       13 UNK         0.0968 
     19 C         -55.3362  -32.8548   12.0828 C.2       13 UNK         0.5732 
     20 N         -55.1075  -33.0818   13.3715 N.am      13 UNK        -0.7310 
     21 O         -55.8126  -33.7472   11.3858 O.2       13 UNK        -0.5035 
     22 N         -54.1725  -30.6219   12.3439 N.am      13 UNK        -0.4233 
     23 C         -54.2931  -29.2968   12.4682 C.2       13 UNK         0.4989 
     24 O         -55.2242  -28.6416   11.9935 O.2       13 UNK        -0.4996 
     25 CA        -53.1386  -28.5862   13.1925 C.3       12 UNK         0.0216 
     26 CB        -51.8332  -28.7278   12.3834 C.3       12 UNK        -0.1964 
     27 N         -53.4322  -27.1622   13.3539 N.am      12 UNK        -0.4276 
     28 C         -54.0407  -26.6131   14.4107 C.2       12 UNK         0.5020 
     29 O         -54.3777  -27.2420   15.4158 O.2       12 UNK        -0.5489 
     30 CA        -54.2902  -25.0989   14.3216 C.3       11 UNK         0.0294 
     31 CB        -55.7703  -24.7243   14.5413 C.3       11 UNK        -0.2019 
     32 N         -53.3690  -24.3800   15.2076 N.am      11 UNK        -0.4493 
     33 C         -53.4166  -24.1980   16.5357 C.2       11 UNK         0.4932 
     34 O         -54.3725  -24.4779   17.2607 O.2       11 UNK        -0.5029 
     35 CA        -52.1246  -23.6156   17.1408 C.3       10 UNK         0.0280 
     36 CB        -52.2480  -23.2347   18.6322 C.3       10 UNK        -0.1976 
     37 N         -51.0003  -24.5267   16.8941 N.am      10 UNK        -0.4242 
     38 C         -50.8417  -25.7710   17.3728 C.2       10 UNK         0.5072 
     39 O         -51.5331  -26.2676   18.2628 O.2       10 UNK        -0.5224 
     40 CA        -49.7500  -26.6405   16.7255 C.3       9 UNK         0.0343 
     41 CB        -50.3976  -27.6286   15.7430 C.3       9 UNK        -0.2003 
     42 N         -48.7146  -25.8791   16.0208 N.am      9 UNK        -0.4272 
     43 C         -47.7318  -25.1997   16.6285 C.2       9 UNK         0.4988 
     44 O         -47.6057  -25.1247   17.8513 O.2       9 UNK        -0.5108 
     45 CA        -46.7126  -24.4881   15.7226 C.3       8 UNK         0.0248 
     46 CB        -45.6968  -25.4938   15.1566 C.3       8 UNK        -0.2001 
     47 N         -47.3362  -23.7455   14.6247 N.am      8 UNK        -0.4140 
     48 C         -48.1049  -22.6580   14.7827 C.2       8 UNK         0.5028 
     49 O         -48.3527  -22.1440   15.8739 O.2       8 UNK        -0.5428 
     50 CA        -48.7305  -22.0553   13.5124 C.3       7 UNK         0.0264 
     51 CB        -47.7108  -21.1917   12.7533 C.3       7 UNK        -0.1988 
     52 N         -49.2900  -23.0702   12.6159 N.am      7 UNK        -0.4454 
     53 C         -50.3020  -23.8856   12.9431 C.2       7 UNK         0.5027 
     54 O         -50.8991  -23.8338   14.0184 O.2       7 UNK        -0.5083 
     55 CA        -50.7078  -24.9670   11.9242 C.3       6 UNK         0.0844 
     56 C56       -51.6740  -24.3997   10.8543 C.3       14 UNK        -0.0967 
     57 S57       -52.8965  -25.6335   10.3121 S.3       14 UNK        -0.2604 
     58 C58       -52.0478  -26.4216    8.9010 C.3       14 UNK         0.0134 
     59 N         -49.5413  -25.6315   11.3363 N.am      6 UNK        -0.4116 
     60 C         -48.6410  -26.3410   12.0331 C.2       5 UNK         0.5034 
     61 O         -48.7317  -26.5785   13.2362 O.2       5 UNK        -0.5045 
     62 CA        -47.3915  -26.8028   11.2726 C.3       5 UNK         0.0224 
     63 CB        -47.6795  -28.0746   10.4590 C.3       5 UNK        -0.1978 
     64 N         -46.8716  -25.7429   10.4044 N.am      5 UNK        -0.4737 
     65 C         -46.3047  -24.6171   10.8664 C.2       4 UNK         0.5027 
     66 O         -46.1179  -24.3911   12.0611 O.2       4 UNK        -0.5211 
     67 CA        -45.9199  -23.5426    9.8349 C.3       4 UNK         0.0297 
     68 CB        -44.4940  -23.7859    9.3166 C.3       4 UNK        -0.1993 
     69 N         -46.8454  -23.4696    8.7031 N.am      4 UNK        -0.4486 
     70 C         -48.1489  -23.1641    8.7877 C.2       3 UNK         0.4961 
     71 O         -48.7111  -22.8451    9.8344 O.2       3 UNK        -0.5105 
     72 CA        -48.9751  -23.3001    7.4955 C.3       3 UNK         0.0299 
     73 CB        -49.0169  -21.9638    6.7388 C.3       3 UNK        -0.1972 
     74 N         -48.4700  -24.3561    6.6098 N.am      3 UNK        -0.4305 
     75 C         -48.4455  -25.6567    6.9309 C.2       2 UNK         0.5006 
     76 O         -48.9069  -26.1107    7.9800 O.2       2 UNK        -0.5106 
     77 CA        -47.6794  -26.5791    5.9754 C.3       2 UNK         0.0296 
     78 CB        -46.2316  -26.7542    6.4644 C.3       2 UNK        -0.2002 
     79 N         -48.3098  -27.8934    5.8908 N.am      2 UNK        -0.4032 
     80 C         -49.3640  -28.1859    5.1215 C.2       1 UNK         0.5000 
     81 O         -49.9264  -27.3566    4.4033 O.2       1 UNK        -0.5238 
     82 H82       -50.5454  -29.5486    9.5984 H         1 UNK         0.0889 
     83 H83       -50.5423  -31.2912    9.3071 H         1 UNK         0.0889 
     84 H84       -51.8077  -30.2782    8.6051 H         1 UNK         0.0889 
     85 H85       -51.5078  -29.9712    6.4195 H         1 UNK         0.3028 
     86 H86       -48.9481  -30.2555    5.1202 H         1 UNK         0.0864 
     87 H87       -50.3464  -31.0347    3.5858 H         1 UNK         0.0720 
     88 H88       -50.5688  -29.4088    3.0778 H         1 UNK         0.0720 
     89 H89       -54.0736  -28.5035    3.9123 H         1 UNK         0.0814 
     90 H90       -52.4556  -27.8857    4.0950 H         1 UNK         0.0814 
     91 H91       -51.8563  -27.0036    6.2667 H         1 UNK         0.1469 
     92 H92       -54.1975  -27.9739    9.7274 H         1 UNK         0.1381 
     93 H93       -55.1167  -29.7724    5.9591 H         1 UNK         0.1206 
     94 H94       -56.2061  -29.2438    9.5177 H         1 UNK         0.0813 
     95 H95       -56.8449  -29.5190    7.9211 H         1 UNK         0.0813 
     96 H96       -53.7441  -30.6791    9.8651 H         1 UNK         0.0638 
     97 H97       -53.8070  -32.4066    9.8971 H         1 UNK         0.0638 
     98 H98       -55.9948  -30.9805   11.4235 H         1 UNK         0.0568 
     99 H99       -54.7732  -32.3510   13.9784 H         1 UNK         0.3450 
    100 H100      -55.3238  -33.9897   13.7524 H         1 UNK         0.3450 
    101 H101      -53.3872  -31.0926   12.7703 H         1 UNK         0.2987 
    102 H102      -53.0022  -29.0499   14.1719 H         1 UNK         0.0766 
    103 H103      -51.0078  -28.1986   12.8567 H         1 UNK         0.0798 
    104 H104      -51.9402  -28.3374   11.3712 H         1 UNK         0.0798 
    105 H105      -51.5264  -29.7705   12.2968 H         1 UNK         0.0798 
    106 H106      -53.2876  -26.5944   12.5297 H         1 UNK         0.3198 
    107 H107      -54.0327  -24.7701   13.3131 H         1 UNK         0.0843 
    108 H108      -55.9164  -23.6445   14.5185 H         1 UNK         0.0831 
    109 H109      -56.1529  -25.0973   15.4916 H         1 UNK         0.0831 
    110 H110      -56.3941  -25.1550   13.7573 H         1 UNK         0.0831 
    111 H111      -52.4890  -24.1173   14.7627 H         1 UNK         0.3133 
    112 H112      -51.9012  -22.7003   16.5902 H         1 UNK         0.0566 
    113 H113      -51.3100  -22.8349   19.0172 H         1 UNK         0.0814 
    114 H114      -53.0104  -22.4675   18.7710 H         1 UNK         0.0814 
    115 H115      -52.5317  -24.0835   19.2545 H         1 UNK         0.0814 
    116 H116      -50.3923  -24.2501   16.1325 H         1 UNK         0.3091 
    117 H117      -49.2715  -27.2157   17.5211 H         1 UNK         0.0702 
    118 H118      -49.6590  -28.2984   15.3023 H         1 UNK         0.0785 
    119 H119      -50.9012  -27.1010   14.9328 H         1 UNK         0.0785 
    120 H120      -51.1449  -28.2484   16.2405 H         1 UNK         0.0785 
    121 H121      -48.7174  -25.9441   15.0049 H         1 UNK         0.2998 
    122 H122      -46.1673  -23.7706   16.3393 H         1 UNK         0.0697 
    123 H123      -44.9142  -24.9889   14.5899 H         1 UNK         0.0825 
    124 H124      -45.2094  -26.0513   15.9574 H         1 UNK         0.0825 
    125 H125      -46.1717  -26.2188   14.4943 H         1 UNK         0.0825 
    126 H126      -47.1287  -24.0659   13.6819 H         1 UNK         0.3029 
    127 H127      -49.5528  -21.4085   13.8262 H         1 UNK         0.0897 
    128 H128      -48.1558  -20.7360   11.8684 H         1 UNK         0.0792 
    129 H129      -47.3407  -20.3829   13.3846 H         1 UNK         0.0792 
    130 H130      -46.8473  -21.7735   12.4321 H         1 UNK         0.0792 
    131 H131      -48.9063  -23.1193   11.6742 H         1 UNK         0.3086 
    132 H132      -51.2360  -25.7237   12.5051 H         1 UNK         0.0583 
    133 H133      -52.2546  -23.5624   11.2483 H         1 UNK         0.1020 
    134 H134      -51.1344  -23.9962    9.9967 H         1 UNK         0.1020 
    135 H135      -51.6630  -25.6362    8.2486 H         1 UNK         0.0694 
    136 H136      -51.1839  -26.9761    9.2686 H         1 UNK         0.0694 
    137 H137      -49.3715  -25.4782   10.3516 H         1 UNK         0.2989 
    138 H138      -46.6236  -27.0413   12.0122 H         1 UNK         0.1055 
    139 H139      -47.9899  -28.8904   11.1132 H         1 UNK         0.0806 
    140 H140      -46.7952  -28.4129    9.9191 H         1 UNK         0.0806 
    141 H141      -48.4777  -27.9275    9.7323 H         1 UNK         0.0806 
    142 H142      -47.0487  -25.8347    9.4137 H         1 UNK         0.3061 
    143 H143      -45.9393  -22.5753   10.3404 H         1 UNK         0.0734 
    144 H144      -44.1722  -22.9883    8.6468 H         1 UNK         0.0832 
    145 H145      -43.7813  -23.8193   10.1420 H         1 UNK         0.0832 
    146 H146      -44.4128  -24.7316    8.7791 H         1 UNK         0.0832 
    147 H147      -46.4718  -23.7020    7.7952 H         1 UNK         0.3156 
    148 H148      -49.9957  -23.5628    7.7812 H         1 UNK         0.0589 
    149 H149      -48.0255  -21.6532    6.4068 H         1 UNK         0.0808 
    150 H150      -49.6623  -22.0239    5.8622 H         1 UNK         0.0808 
    151 H151      -49.4110  -21.1694    7.3745 H         1 UNK         0.0808 
    152 H152      -48.0710  -24.0608    5.7297 H         1 UNK         0.3098 
    153 H153      -47.6600  -26.1301    4.9798 H         1 UNK         0.0720 
    154 H154      -46.1913  -27.2020    7.4586 H         1 UNK         0.0791 
    155 H155      -45.7123  -25.7965    6.5143 H         1 UNK         0.0791 
    156 H156      -45.6617  -27.3928    5.7891 H         1 UNK         0.0791 
    157 H157      -48.0025  -28.6004    6.5519 H         1 UNK         0.3028 
@<TRIPOS>BOND
     1    1    2 1    
     2    1   82 1    
     3    1   83 1    
     4    1   84 1    
     5    2    3 2    
     6    2    4 am   BACKBONE|DICT|INTERRES
     7    4    5 1    
     8    4   85 1    
     9    5    6 1    
    10    5   80 1    
    11    5   86 1    
    12    6    7 1    
    13    6   87 1    
    14    6   88 1    
    15    7    8 1    
    16    8    9 1    
    17    8   89 1    
    18    8   90 1    
    19    9   10 ar   
    20    9   14 ar   
    21   10   11 ar   
    22   10   91 1    
    23   11   12 ar   
    24   11   58 1    
    25   12   13 ar   
    26   12   92 1    
    27   13   14 ar   
    28   13   15 1    
    29   14   93 1    
    30   15   16 1    
    31   15   94 1    
    32   15   95 1    
    33   16   17 1    
    34   17   18 1    
    35   17   96 1    
    36   17   97 1    
    37   18   19 1    
    38   18   22 1    
    39   18   98 1    
    40   19   20 am   BACKBONE|DICT|INTERRES
    41   19   21 2    
    42   20   99 1    
    43   20  100 1    
    44   22   23 am   BACKBONE|DICT|INTERRES
    45   22  101 1    
    46   23   24 2    
    47   23   25 1    
    48   25   26 1    
    49   25   27 1    
    50   25  102 1    
    51   26  103 1    
    52   26  104 1    
    53   26  105 1    
    54   27   28 am   BACKBONE|DICT|INTERRES
    55   27  106 1    
    56   28   29 2    
    57   28   30 1    
    58   30   31 1    
    59   30   32 1    
    60   30  107 1    
    61   31  108 1    
    62   31  109 1    
    63   31  110 1    
    64   32   33 am   BACKBONE|DICT|INTERRES
    65   32  111 1    
    66   33   34 2    
    67   33   35 1    
    68   35   36 1    
    69   35   37 1    
    70   35  112 1    
    71   36  113 1    
    72   36  114 1    
    73   36  115 1    
    74   37   38 am   BACKBONE|DICT|INTERRES
    75   37  116 1    
    76   38   39 2    
    77   38   40 1    
    78   40   41 1    
    79   40   42 1    
    80   40  117 1    
    81   41  118 1    
    82   41  119 1    
    83   41  120 1    
    84   42   43 am   BACKBONE|DICT|INTERRES
    85   42  121 1    
    86   43   44 2    
    87   43   45 1    
    88   45   46 1    
    89   45   47 1    
    90   45  122 1    
    91   46  123 1    
    92   46  124 1    
    93   46  125 1    
    94   47   48 am   BACKBONE|DICT|INTERRES
    95   47  126 1    
    96   48   49 2    
    97   48   50 1    
    98   50   51 1    
    99   50   52 1    
   100   50  127 1    
   101   51  128 1    
   102   51  129 1    
   103   51  130 1    
   104   52   53 am   BACKBONE|DICT|INTERRES
   105   52  131 1    
   106   53   54 2    
   107   53   55 1    
   108   55   56 1    
   109   55   59 1    
   110   55  132 1    
   111   56   57 1    
   112   56  133 1    
   113   56  134 1    
   114   57   58 1    
   115   58  135 1    
   116   58  136 1    
   117   59   60 am   BACKBONE|DICT|INTERRES
   118   59  137 1    
   119   60   61 2    
   120   60   62 1    
   121   62   63 1    
   122   62   64 1    
   123   62  138 1    
   124   63  139 1    
   125   63  140 1    
   126   63  141 1    
   127   64   65 am   BACKBONE|DICT|INTERRES
   128   64  142 1    
   129   65   66 2    
   130   65   67 1    
   131   67   68 1    
   132   67   69 1    
   133   67  143 1    
   134   68  144 1    
   135   68  145 1    
   136   68  146 1    
   137   69   70 am   BACKBONE|DICT|INTERRES
   138   69  147 1    
   139   70   71 2    
   140   70   72 1    
   141   72   73 1    
   142   72   74 1    
   143   72  148 1    
   144   73  149 1    
   145   73  150 1    
   146   73  151 1    
   147   74   75 am   BACKBONE|DICT|INTERRES
   148   74  152 1    
   149   75   76 2    
   150   75   77 1    
   151   77   78 1    
   152   77   79 1    
   153   77  153 1    
   154   78  154 1    
   155   78  155 1    
   156   78  156 1    
   157   79   80 am   BACKBONE|DICT|INTERRES
   158   79  157 1    
   159   80   81 2    
@<TRIPOS>SUBSTRUCTURE
     1 UNK         1 GROUP             0       ****    0 ROOT    
