@<TRIPOS>MOLECULE
3R207
157   159    1
SMALL
USER_CHARGES


@<TRIPOS>ATOM
      1 CA        -46.5703  -30.3316    2.7241 C.3       0 UNK        -0.1975 
      2 C         -47.8411  -29.5078    2.5220 C.2       0 UNK         0.4852 
      3 O         -48.4558  -29.6236    1.4628 O.2       0 UNK        -0.5216 
      4 N         -48.2888  -28.6682    3.4697 N.am      1 UNK        -0.4461 
      5 CA        -47.7276  -28.3396    4.7885 C.3       1 UNK         0.0864 
      6 C6        -47.9972  -29.4193    5.8759 C.3       14 UNK        -0.0898 
      7 S7        -49.7814  -29.5820    6.2251 S.3       14 UNK        -0.2598 
      8 C8        -49.9050  -28.4977    7.6809 C.3       14 UNK         0.0286 
      9 C9        -51.3334  -28.3320    8.1730 C.ar      14 UNK        -0.0844 
     10 C10       -51.9800  -27.0973    8.0498 C.ar      14 UNK        -0.0881 
     11 C11       -53.2803  -26.9271    8.5311 C.ar      14 UNK        -0.0643 
     12 C12       -53.9459  -28.0126    9.1052 C.ar      14 UNK        -0.0930 
     13 C13       -53.3041  -29.2434    9.2557 C.ar      14 UNK        -0.0827 
     14 C14       -51.9954  -29.3984    8.7897 C.ar      14 UNK        -0.1249 
     15 C15       -54.0362  -30.3969    9.9208 C.3       14 UNK         0.0141 
     16 S16       -54.2449  -30.0990   11.7075 S.3       14 UNK        -0.2313 
     17 C17       -56.0260  -30.4332   11.9291 C.3       14 UNK        -0.0915 
     18 CA        -56.8752  -29.1352   11.9794 C.3       13 UNK         0.0968 
     19 C         -58.3946  -29.4609   11.8882 C.2       13 UNK         0.5732 
     20 N         -59.1968  -29.2103   12.9165 N.am      13 UNK        -0.7310 
     21 O         -58.8556  -29.9438   10.8567 O.2       13 UNK        -0.5035 
     22 N         -56.5011  -28.3006   13.1304 N.am      13 UNK        -0.4233 
     23 C         -56.7474  -26.9950   13.2700 C.2       13 UNK         0.4989 
     24 O         -57.2870  -26.3073   12.4036 O.2       13 UNK        -0.4996 
     25 CA        -56.3079  -26.3265   14.5885 C.3       12 UNK         0.0216 
     26 CB        -57.4021  -26.4584   15.6652 C.3       12 UNK        -0.1964 
     27 N         -54.9960  -26.7558   15.1006 N.am      12 UNK        -0.4276 
     28 C         -54.6077  -27.9675   15.5298 C.2       12 UNK         0.5020 
     29 O         -55.3566  -28.9439   15.5880 O.2       12 UNK        -0.5489 
     30 CA        -53.1295  -28.1510   15.9133 C.3       11 UNK         0.0294 
     31 CB        -52.3959  -28.9690   14.8375 C.3       11 UNK        -0.2019 
     32 N         -52.4079  -26.8960   16.1382 N.am      11 UNK        -0.4493 
     33 C         -52.5517  -26.1319   17.2320 C.2       11 UNK         0.4932 
     34 O         -53.3733  -26.3694   18.1190 O.2       11 UNK        -0.5029 
     35 CA        -51.6158  -24.9114   17.3632 C.3       10 UNK         0.0280 
     36 CB        -51.4771  -24.4172   18.8182 C.3       10 UNK        -0.1976 
     37 N         -50.2926  -25.1232   16.7650 N.am      10 UNK        -0.4242 
     38 C         -49.4062  -26.0953   17.0432 C.2       10 UNK         0.5072 
     39 O         -49.5607  -26.9306   17.9352 O.2       10 UNK        -0.5224 
     40 CA        -48.1425  -26.1699   16.1656 C.3       9 UNK         0.0343 
     41 CB        -47.9638  -27.5777   15.5674 C.3       9 UNK        -0.2003 
     42 N         -48.1929  -25.1951   15.0727 N.am      9 UNK        -0.4272 
     43 C         -47.4118  -24.1117   14.9790 C.2       9 UNK         0.4988 
     44 O         -46.4910  -23.8563   15.7557 O.2       9 UNK        -0.5108 
     45 CA        -47.7147  -23.1293   13.8361 C.3       8 UNK         0.0248 
     46 CB        -46.9011  -23.4939   12.5824 C.3       8 UNK        -0.2001 
     47 N         -49.1365  -23.0174   13.4880 N.am      8 UNK        -0.4140 
     48 C         -50.0973  -22.5421   14.2952 C.2       8 UNK         0.5028 
     49 O         -49.9223  -22.2867   15.4858 O.2       8 UNK        -0.5428 
     50 CA        -51.4881  -22.3243   13.6828 C.3       7 UNK         0.0264 
     51 CB        -51.4915  -21.0762   12.7847 C.3       7 UNK        -0.1988 
     52 N         -51.9053  -23.4816   12.8966 N.am      7 UNK        -0.4454 
     53 C         -52.8188  -24.3823   13.2808 C.2       7 UNK         0.5027 
     54 O         -53.4539  -24.3240   14.3351 O.2       7 UNK        -0.5083 
     55 CA        -53.0305  -25.5983   12.3537 C.3       6 UNK         0.0844 
     56 C56       -54.0987  -25.2930   11.2702 C.3       14 UNK        -0.0967 
     57 S57       -53.4463  -24.4492    9.7804 S.3       14 UNK        -0.2604 
     58 C58       -53.9646  -25.5709    8.4387 C.3       14 UNK         0.0134 
     59 N         -51.7816  -26.1339   11.8025 N.am      6 UNK        -0.4116 
     60 C         -50.6792  -26.4340   12.5037 C.2       5 UNK         0.5034 
     61 O         -50.6107  -26.3951   13.7341 O.2       5 UNK        -0.5045 
     62 CA        -49.4096  -26.7644   11.7034 C.3       5 UNK         0.0224 
     63 CB        -49.3001  -28.2822   11.4985 C.3       5 UNK        -0.1978 
     64 N         -49.2701  -26.0819   10.4073 N.am      5 UNK        -0.4737 
     65 C         -49.4166  -24.7736   10.1517 C.2       4 UNK         0.5027 
     66 O         -49.7999  -23.9489   10.9822 O.2       4 UNK        -0.5211 
     67 CA        -49.0273  -24.3062    8.7383 C.3       4 UNK         0.0297 
     68 CB        -49.5411  -22.8868    8.4350 C.3       4 UNK        -0.1993 
     69 N         -47.5745  -24.3445    8.5434 N.am      4 UNK        -0.4486 
     70 C         -46.8626  -25.4600    8.3491 C.2       3 UNK         0.4961 
     71 O         -47.3594  -26.5909    8.3201 O.2       3 UNK        -0.5105 
     72 CA        -45.3493  -25.3047    8.1595 C.3       3 UNK         0.0299 
     73 CB        -44.6234  -25.2253    9.5129 C.3       3 UNK        -0.1972 
     74 N         -44.9217  -26.4908    7.4330 N.am      3 UNK        -0.4305 
     75 C         -43.9803  -26.5757    6.4889 C.2       2 UNK         0.5006 
     76 O         -43.1719  -25.6831    6.2325 O.2       2 UNK        -0.5106 
     77 CA        -43.9830  -27.8757    5.6599 C.3       2 UNK         0.0296 
     78 CB        -43.1003  -28.9459    6.3223 C.3       2 UNK        -0.2002 
     79 N         -45.3425  -28.4041    5.4742 N.am      2 UNK        -0.4032 
     80 C         -46.2733  -27.8236    4.6993 C.2       1 UNK         0.5000 
     81 O         -46.0295  -26.8799    3.9440 O.2       1 UNK        -0.5238 
     82 H82       -45.6926  -29.7415    2.4616 H         1 UNK         0.0889 
     83 H83       -46.5849  -31.2078    2.0762 H         1 UNK         0.0889 
     84 H84       -46.4562  -30.6905    3.7432 H         1 UNK         0.0889 
     85 H85       -49.1278  -28.1495    3.2525 H         1 UNK         0.3028 
     86 H86       -48.2786  -27.4518    5.1043 H         1 UNK         0.0864 
     87 H87       -47.6204  -30.3979    5.5816 H         1 UNK         0.0720 
     88 H88       -47.4976  -29.1710    6.8140 H         1 UNK         0.0720 
     89 H89       -49.4955  -27.5252    7.4117 H         1 UNK         0.0814 
     90 H90       -49.2834  -28.8916    8.4860 H         1 UNK         0.0814 
     91 H91       -51.4725  -26.2617    7.5890 H         1 UNK         0.1469 
     92 H92       -54.9600  -27.8969    9.4607 H         1 UNK         0.1381 
     93 H93       -51.4905  -30.3484    8.9007 H         1 UNK         0.1206 
     94 H94       -55.0017  -30.5225    9.4296 H         1 UNK         0.0813 
     95 H95       -53.4971  -31.3348    9.7793 H         1 UNK         0.0813 
     96 H96       -56.1490  -30.9958   12.8563 H         1 UNK         0.0638 
     97 H97       -56.3662  -31.0994   11.1344 H         1 UNK         0.0638 
     98 H98       -56.6504  -28.5608   11.0794 H         1 UNK         0.0568 
     99 H99       -58.8291  -28.8203   13.7686 H         1 UNK         0.3450 
    100 H100      -60.1788  -29.4229   12.8390 H         1 UNK         0.3450 
    101 H101      -56.0735  -28.7803   13.9197 H         1 UNK         0.2987 
    102 H102      -56.1957  -25.2633   14.3692 H         1 UNK         0.0766 
    103 H103      -57.1334  -25.9121   16.5694 H         1 UNK         0.0798 
    104 H104      -57.5812  -27.4972   15.9439 H         1 UNK         0.0798 
    105 H105      -58.3493  -26.0503   15.3098 H         1 UNK         0.0798 
    106 H106      -54.2895  -26.0260   15.0883 H         1 UNK         0.3198 
    107 H107      -53.1072  -28.7236   16.8432 H         1 UNK         0.0843 
    108 H108      -52.8453  -29.9569   14.7269 H         1 UNK         0.0831 
    109 H109      -51.3466  -29.1174   15.0931 H         1 UNK         0.0831 
    110 H110      -52.4395  -28.4877   13.8607 H         1 UNK         0.0831 
    111 H111      -51.7143  -26.6360   15.4432 H         1 UNK         0.3133 
    112 H112      -52.0818  -24.1110   16.7868 H         1 UNK         0.0566 
    113 H113      -50.8299  -23.5422   18.8788 H         1 UNK         0.0814 
    114 H114      -52.4455  -24.1302   19.2297 H         1 UNK         0.0814 
    115 H115      -51.0622  -25.1880   19.4686 H         1 UNK         0.0814 
    116 H116      -50.0308  -24.4428   16.0634 H         1 UNK         0.3091 
    117 H117      -47.2923  -25.9711   16.8208 H         1 UNK         0.0702 
    118 H118      -47.0814  -27.6284   14.9294 H         1 UNK         0.0785 
    119 H119      -48.8256  -27.8807   14.9728 H         1 UNK         0.0785 
    120 H120      -47.8361  -28.3227   16.3537 H         1 UNK         0.0785 
    121 H121      -48.9386  -25.3314   14.4001 H         1 UNK         0.2998 
    122 H122      -47.3907  -22.1408   14.1684 H         1 UNK         0.0697 
    123 H123      -47.1595  -24.4818   12.2022 H         1 UNK         0.0825 
    124 H124      -45.8323  -23.5010   12.8005 H         1 UNK         0.0825 
    125 H125      -47.0621  -22.7738   11.7799 H         1 UNK         0.0825 
    126 H126      -49.3807  -23.2479   12.5250 H         1 UNK         0.3029 
    127 H127      -52.1886  -22.1506   14.5031 H         1 UNK         0.0897 
    128 H128      -52.4909  -20.8711   12.4008 H         1 UNK         0.0792 
    129 H129      -51.1699  -20.1937   13.3396 H         1 UNK         0.0792 
    130 H130      -50.8234  -21.1881   11.9294 H         1 UNK         0.0792 
    131 H131      -51.3922  -23.6527   12.0353 H         1 UNK         0.3086 
    132 H132      -53.4300  -26.3965   12.9780 H         1 UNK         0.0583 
    133 H133      -54.9133  -24.6895   11.6772 H         1 UNK         0.1020 
    134 H134      -54.5812  -26.2246   10.9833 H         1 UNK         0.1020 
    135 H135      -55.0498  -25.6837    8.4614 H         1 UNK         0.0694 
    136 H136      -53.7273  -25.1068    7.4803 H         1 UNK         0.0694 
    137 H137      -51.7320  -26.1779   10.7945 H         1 UNK         0.2989 
    138 H138      -48.5620  -26.4503   12.3140 H         1 UNK         0.1055 
    139 H139      -49.3243  -28.8078   12.4544 H         1 UNK         0.0806 
    140 H140      -48.3662  -28.5531   11.0057 H         1 UNK         0.0806 
    141 H141      -50.1245  -28.6675   10.8982 H         1 UNK         0.0806 
    142 H142      -48.8524  -26.6300    9.6623 H         1 UNK         0.3061 
    143 H143      -49.4954  -24.9854    8.0237 H         1 UNK         0.0734 
    144 H144      -50.6228  -22.8291    8.5669 H         1 UNK         0.0832 
    145 H145      -49.0939  -22.1425    9.0953 H         1 UNK         0.0832 
    146 H146      -49.3257  -22.5971    7.4065 H         1 UNK         0.0832 
    147 H147      -47.0904  -23.4588    8.5849 H         1 UNK         0.3156 
    148 H148      -45.1500  -24.4092    7.5672 H         1 UNK         0.0589 
    149 H149      -44.8341  -26.0961   10.1354 H         1 UNK         0.0808 
    150 H150      -43.5433  -25.1644    9.3784 H         1 UNK         0.0808 
    151 H151      -44.9313  -24.3410   10.0723 H         1 UNK         0.0808 
    152 H152      -45.5693  -27.2609    7.5464 H         1 UNK         0.3098 
    153 H153      -43.5636  -27.6466    4.6777 H         1 UNK         0.0720 
    154 H154      -43.0473  -29.8487    5.7134 H         1 UNK         0.0791 
    155 H155      -43.4715  -29.2262    7.3089 H         1 UNK         0.0791 
    156 H156      -42.0795  -28.5827    6.4499 H         1 UNK         0.0791 
    157 H157      -45.6018  -29.1973    6.0426 H         1 UNK         0.3028 
@<TRIPOS>BOND
     1    1    2 1    
     2    1   82 1    
     3    1   83 1    
     4    1   84 1    
     5    2    3 2    
     6    2    4 am   BACKBONE|DICT|INTERRES
     7    4    5 1    
     8    4   85 1    
     9    5    6 1    
    10    5   80 1    
    11    5   86 1    
    12    6    7 1    
    13    6   87 1    
    14    6   88 1    
    15    7    8 1    
    16    8    9 1    
    17    8   89 1    
    18    8   90 1    
    19    9   10 ar   
    20    9   14 ar   
    21   10   11 ar   
    22   10   91 1    
    23   11   12 ar   
    24   11   58 1    
    25   12   13 ar   
    26   12   92 1    
    27   13   14 ar   
    28   13   15 1    
    29   14   93 1    
    30   15   16 1    
    31   15   94 1    
    32   15   95 1    
    33   16   17 1    
    34   17   18 1    
    35   17   96 1    
    36   17   97 1    
    37   18   19 1    
    38   18   22 1    
    39   18   98 1    
    40   19   20 am   BACKBONE|DICT|INTERRES
    41   19   21 2    
    42   20   99 1    
    43   20  100 1    
    44   22   23 am   BACKBONE|DICT|INTERRES
    45   22  101 1    
    46   23   24 2    
    47   23   25 1    
    48   25   26 1    
    49   25   27 1    
    50   25  102 1    
    51   26  103 1    
    52   26  104 1    
    53   26  105 1    
    54   27   28 am   BACKBONE|DICT|INTERRES
    55   27  106 1    
    56   28   29 2    
    57   28   30 1    
    58   30   31 1    
    59   30   32 1    
    60   30  107 1    
    61   31  108 1    
    62   31  109 1    
    63   31  110 1    
    64   32   33 am   BACKBONE|DICT|INTERRES
    65   32  111 1    
    66   33   34 2    
    67   33   35 1    
    68   35   36 1    
    69   35   37 1    
    70   35  112 1    
    71   36  113 1    
    72   36  114 1    
    73   36  115 1    
    74   37   38 am   BACKBONE|DICT|INTERRES
    75   37  116 1    
    76   38   39 2    
    77   38   40 1    
    78   40   41 1    
    79   40   42 1    
    80   40  117 1    
    81   41  118 1    
    82   41  119 1    
    83   41  120 1    
    84   42   43 am   BACKBONE|DICT|INTERRES
    85   42  121 1    
    86   43   44 2    
    87   43   45 1    
    88   45   46 1    
    89   45   47 1    
    90   45  122 1    
    91   46  123 1    
    92   46  124 1    
    93   46  125 1    
    94   47   48 am   BACKBONE|DICT|INTERRES
    95   47  126 1    
    96   48   49 2    
    97   48   50 1    
    98   50   51 1    
    99   50   52 1    
   100   50  127 1    
   101   51  128 1    
   102   51  129 1    
   103   51  130 1    
   104   52   53 am   BACKBONE|DICT|INTERRES
   105   52  131 1    
   106   53   54 2    
   107   53   55 1    
   108   55   56 1    
   109   55   59 1    
   110   55  132 1    
   111   56   57 1    
   112   56  133 1    
   113   56  134 1    
   114   57   58 1    
   115   58  135 1    
   116   58  136 1    
   117   59   60 am   BACKBONE|DICT|INTERRES
   118   59  137 1    
   119   60   61 2    
   120   60   62 1    
   121   62   63 1    
   122   62   64 1    
   123   62  138 1    
   124   63  139 1    
   125   63  140 1    
   126   63  141 1    
   127   64   65 am   BACKBONE|DICT|INTERRES
   128   64  142 1    
   129   65   66 2    
   130   65   67 1    
   131   67   68 1    
   132   67   69 1    
   133   67  143 1    
   134   68  144 1    
   135   68  145 1    
   136   68  146 1    
   137   69   70 am   BACKBONE|DICT|INTERRES
   138   69  147 1    
   139   70   71 2    
   140   70   72 1    
   141   72   73 1    
   142   72   74 1    
   143   72  148 1    
   144   73  149 1    
   145   73  150 1    
   146   73  151 1    
   147   74   75 am   BACKBONE|DICT|INTERRES
   148   74  152 1    
   149   75   76 2    
   150   75   77 1    
   151   77   78 1    
   152   77   79 1    
   153   77  153 1    
   154   78  154 1    
   155   78  155 1    
   156   78  156 1    
   157   79   80 am   BACKBONE|DICT|INTERRES
   158   79  157 1    
   159   80   81 2    
@<TRIPOS>SUBSTRUCTURE
     1 UNK         1 GROUP             0       ****    0 ROOT    
