@<TRIPOS>MOLECULE
3R207
157   159    1
SMALL
USER_CHARGES


@<TRIPOS>ATOM
      1 CA        -45.3960  -30.6773    5.9732 C.3       0 UNK        -0.1975 
      2 C         -46.5935  -29.7458    5.8649 C.2       0 UNK         0.4852 
      3 O         -46.7678  -29.0855    4.8392 O.2       0 UNK        -0.5216 
      4 N         -47.4167  -29.6730    6.9190 N.am      1 UNK        -0.4461 
      5 CA        -48.6299  -28.8506    7.0089 C.3       1 UNK         0.0864 
      6 C6        -49.6012  -29.3923    8.0871 C.3       14 UNK        -0.0898 
      7 S7        -50.1956  -31.0887    7.7708 S.3       14 UNK        -0.2598 
      8 C8        -51.4488  -30.8576    6.4661 C.3       14 UNK         0.0286 
      9 C9        -52.4403  -29.7462    6.7812 C.ar      14 UNK        -0.0844 
     10 C10       -52.3906  -28.5468    6.0659 C.ar      14 UNK        -0.0881 
     11 C11       -53.2883  -27.5141    6.3464 C.ar      14 UNK        -0.0643 
     12 C12       -54.2552  -27.6945    7.3406 C.ar      14 UNK        -0.0930 
     13 C13       -54.3013  -28.8814    8.0769 C.ar      14 UNK        -0.0827 
     14 C14       -53.3967  -29.9081    7.7881 C.ar      14 UNK        -0.1249 
     15 C15       -55.3291  -29.0538    9.1826 C.3       14 UNK         0.0141 
     16 S16       -54.6980  -28.4535   10.7818 S.3       14 UNK        -0.2313 
     17 C17       -56.0820  -28.9378   11.8681 C.3       14 UNK        -0.0915 
     18 CA        -56.4928  -27.8193   12.8598 C.3       13 UNK         0.0968 
     19 C         -57.8693  -28.1425   13.5127 C.2       13 UNK         0.5732 
     20 N         -57.9407  -28.4615   14.8001 N.am      13 UNK        -0.7310 
     21 O         -58.8937  -28.0958   12.8357 O.2       13 UNK        -0.5035 
     22 N         -55.4193  -27.5445   13.8264 N.am      13 UNK        -0.4233 
     23 C         -55.3260  -26.4499   14.5876 C.2       13 UNK         0.4989 
     24 O         -56.0970  -25.4943   14.4980 O.2       13 UNK        -0.4996 
     25 CA        -54.1854  -26.3818   15.6203 C.3       12 UNK         0.0216 
     26 CB        -54.7008  -26.7024   17.0368 C.3       12 UNK        -0.1964 
     27 N         -52.9821  -27.1655   15.2994 N.am      12 UNK        -0.4276 
     28 C         -52.8252  -28.4946   15.2331 C.2       12 UNK         0.5020 
     29 O         -53.7536  -29.2882   15.3920 O.2       12 UNK        -0.5489 
     30 CA        -51.4304  -29.0585   14.9144 C.3       11 UNK         0.0294 
     31 CB        -51.3933  -29.6350   13.4877 C.3       11 UNK        -0.2019 
     32 N         -50.3181  -28.1160   15.1258 N.am      11 UNK        -0.4493 
     33 C         -49.0864  -28.5044   15.4970 C.2       11 UNK         0.4932 
     34 O         -48.7705  -29.6862   15.6441 O.2       11 UNK        -0.5029 
     35 CA        -48.0095  -27.4334   15.7719 C.3       10 UNK         0.0280 
     36 CB        -46.8705  -27.4888   14.7405 C.3       10 UNK        -0.1976 
     37 N         -48.5217  -26.0640   15.8786 N.am      10 UNK        -0.4242 
     38 C         -49.1476  -25.5996   16.9693 C.2       10 UNK         0.5072 
     39 O         -49.3589  -26.2857   17.9710 O.2       10 UNK        -0.5224 
     40 CA        -49.6151  -24.1312   16.9831 C.3       9 UNK         0.0343 
     41 CB        -48.5021  -23.2359   17.5530 C.3       9 UNK        -0.2003 
     42 N         -50.1023  -23.5371   15.7311 N.am      9 UNK        -0.4272 
     43 C         -50.8857  -24.0928   14.7982 C.2       9 UNK         0.4988 
     44 O         -51.1391  -25.2963   14.7275 O.2       9 UNK        -0.5108 
     45 CA        -51.5131  -23.1170   13.7956 C.3       8 UNK         0.0248 
     46 CB        -50.4736  -22.5171   12.8319 C.3       8 UNK        -0.2001 
     47 N         -52.5540  -23.7803   13.0139 N.am      8 UNK        -0.4140 
     48 C         -53.6743  -23.1940   12.5709 C.2       8 UNK         0.5028 
     49 O         -54.0243  -22.0591   12.9029 O.2       8 UNK        -0.5428 
     50 CA        -54.5245  -23.9913   11.5549 C.3       7 UNK         0.0264 
     51 CB        -55.4784  -23.0955   10.7375 C.3       7 UNK        -0.1988 
     52 N         -53.7192  -24.8259   10.6543 N.am      7 UNK        -0.4454 
     53 C         -52.6973  -24.4321    9.8758 C.2       7 UNK         0.5027 
     54 O         -52.3215  -23.2642    9.7522 O.2       7 UNK        -0.5083 
     55 CA        -51.9272  -25.5603    9.1537 C.3       6 UNK         0.0844 
     56 C56       -51.5644  -25.1857    7.6892 C.3       14 UNK        -0.0967 
     57 S57       -53.0150  -24.7528    6.6570 S.3       14 UNK        -0.2604 
     58 C58       -53.1997  -26.2054    5.5733 C.3       14 UNK         0.0134 
     59 N         -50.7336  -25.9638    9.9106 N.am      6 UNK        -0.4116 
     60 C         -50.6892  -26.3449   11.1977 C.2       5 UNK         0.5034 
     61 O         -51.6756  -26.4244   11.9290 O.2       5 UNK        -0.5045 
     62 CA        -49.3142  -26.6725   11.7937 C.3       5 UNK         0.0224 
     63 CB        -48.8607  -28.1000   11.4424 C.3       5 UNK        -0.1978 
     64 N         -48.2896  -25.7132   11.3755 N.am      5 UNK        -0.4737 
     65 C         -47.7239  -24.8077   12.1845 C.2       4 UNK         0.5027 
     66 O         -48.0119  -24.6889   13.3769 O.2       4 UNK        -0.5211 
     67 CA        -46.6747  -23.8625   11.5652 C.3       4 UNK         0.0297 
     68 CB        -45.6764  -23.3305   12.6155 C.3       4 UNK        -0.1993 
     69 N         -45.9600  -24.4187   10.4082 N.am      4 UNK        -0.4486 
     70 C         -45.1811  -25.5088   10.3611 C.2       3 UNK         0.4961 
     71 O         -44.9832  -26.2543   11.3214 O.2       3 UNK        -0.5105 
     72 CA        -44.5171  -25.8105    8.9989 C.3       3 UNK         0.0299 
     73 CB        -43.6386  -27.0755    9.0364 C.3       3 UNK        -0.1972 
     74 N         -45.4890  -25.9506    7.9105 N.am      3 UNK        -0.4305 
     75 C         -46.1790  -24.9607    7.3261 C.2       2 UNK         0.5006 
     76 O         -46.0531  -23.7744    7.6342 O.2       2 UNK        -0.5106 
     77 CA        -47.1948  -25.3450    6.2330 C.3       2 UNK         0.0296 
     78 CB        -46.6395  -25.0020    4.8414 C.3       2 UNK        -0.2002 
     79 N         -47.6061  -26.7529    6.2484 N.am      2 UNK        -0.4032 
     80 C         -48.2836  -27.3590    7.2316 C.2       1 UNK         0.5000 
     81 O         -48.6023  -26.7871    8.2776 O.2       1 UNK        -0.5238 
     82 H82       -45.3667  -31.1944    6.9320 H         1 UNK         0.0889 
     83 H83       -44.4704  -30.1128    5.8633 H         1 UNK         0.0889 
     84 H84       -45.4335  -31.4279    5.1842 H         1 UNK         0.0889 
     85 H85       -47.2229  -30.2394    7.7327 H         1 UNK         0.3028 
     86 H86       -49.1481  -28.9021    6.0493 H         1 UNK         0.0864 
     87 H87       -49.0932  -29.4303    9.0470 H         1 UNK         0.0720 
     88 H88       -50.4550  -28.7280    8.2299 H         1 UNK         0.0720 
     89 H89       -51.9910  -31.7943    6.3298 H         1 UNK         0.0814 
     90 H90       -50.9399  -30.6649    5.5204 H         1 UNK         0.0814 
     91 H91       -51.6468  -28.4144    5.2923 H         1 UNK         0.1469 
     92 H92       -54.9523  -26.8973    7.5604 H         1 UNK         0.1381 
     93 H93       -53.4270  -30.8291    8.3544 H         1 UNK         0.1206 
     94 H94       -56.2454  -28.5180    8.9295 H         1 UNK         0.0813 
     95 H95       -55.6017  -30.1065    9.2735 H         1 UNK         0.0813 
     96 H96       -55.7972  -29.8427   12.4080 H         1 UNK         0.0638 
     97 H97       -56.9311  -29.2169   11.2411 H         1 UNK         0.0638 
     98 H98       -56.6502  -26.9071   12.2811 H         1 UNK         0.0568 
     99 H99       -57.1056  -28.5153   15.3606 H         1 UNK         0.3450 
    100 H100      -58.8392  -28.6639   15.2091 H         1 UNK         0.3450 
    101 H101      -54.7819  -28.3073   14.0270 H         1 UNK         0.2987 
    102 H102      -53.8532  -25.3424   15.6251 H         1 UNK         0.0766 
    103 H103      -53.9179  -26.5643   17.7826 H         1 UNK         0.0798 
    104 H104      -55.0645  -27.7269   17.1183 H         1 UNK         0.0798 
    105 H105      -55.5268  -26.0439   17.3092 H         1 UNK         0.0798 
    106 H106      -52.1878  -26.5729   15.0558 H         1 UNK         0.3198 
    107 H107      -51.3035  -29.8914   15.6097 H         1 UNK         0.0843 
    108 H108      -51.5835  -28.8676   12.7399 H         1 UNK         0.0831 
    109 H109      -52.1582  -30.4018   13.3580 H         1 UNK         0.0831 
    110 H110      -50.4327  -30.0995   13.2663 H         1 UNK         0.0831 
    111 H111      -50.5071  -27.1232   15.0250 H         1 UNK         0.3133 
    112 H112      -47.5641  -27.6963   16.7339 H         1 UNK         0.0566 
    113 H113      -46.0590  -26.8135   15.0118 H         1 UNK         0.0814 
    114 H114      -46.4474  -28.4920   14.6750 H         1 UNK         0.0814 
    115 H115      -47.2047  -27.2140   13.7438 H         1 UNK         0.0814 
    116 H116      -48.4023  -25.4563   15.0688 H         1 UNK         0.3091 
    117 H117      -50.4584  -24.0896   17.6751 H         1 UNK         0.0702 
    118 H118      -48.8612  -22.2246   17.7447 H         1 UNK         0.0785 
    119 H119      -47.6545  -23.1688   16.8695 H         1 UNK         0.0785 
    120 H120      -48.1274  -23.6271   18.5002 H         1 UNK         0.0785 
    121 H121      -49.9327  -22.5457   15.6455 H         1 UNK         0.2998 
    122 H122      -51.9562  -22.3107   14.3839 H         1 UNK         0.0697 
    123 H123      -49.5993  -22.1322   13.3579 H         1 UNK         0.0825 
    124 H124      -50.9007  -21.6899   12.2646 H         1 UNK         0.0825 
    125 H125      -50.1279  -23.2577   12.1118 H         1 UNK         0.0825 
    126 H126      -52.3451  -24.7381   12.7407 H         1 UNK         0.3029 
    127 H127      -55.1373  -24.6761   12.1402 H         1 UNK         0.0897 
    128 H128      -56.0790  -23.6845   10.0444 H         1 UNK         0.0792 
    129 H129      -54.9327  -22.3495   10.1587 H         1 UNK         0.0792 
    130 H130      -56.1699  -22.5611   11.3901 H         1 UNK         0.0792 
    131 H131      -53.8773  -25.8227   10.7340 H         1 UNK         0.3086 
    132 H132      -52.5724  -26.4391    9.1206 H         1 UNK         0.0583 
    133 H133      -50.8735  -24.3405    7.6756 H         1 UNK         0.1020 
    134 H134      -51.0295  -26.0097    7.2168 H         1 UNK         0.1020 
    135 H135      -54.1032  -26.0861    4.9741 H         1 UNK         0.0694 
    136 H136      -52.3644  -26.2218    4.8715 H         1 UNK         0.0694 
    137 H137      -49.8742  -26.0250    9.3716 H         1 UNK         0.2989 
    138 H138      -49.4512  -26.6325   12.8756 H         1 UNK         0.1055 
    139 H139      -49.7042  -28.7573   11.2292 H         1 UNK         0.0806 
    140 H140      -48.3119  -28.5537   12.2662 H         1 UNK         0.0806 
    141 H141      -48.2001  -28.1112   10.5770 H         1 UNK         0.0806 
    142 H142      -47.9939  -25.7522   10.4090 H         1 UNK         0.3061 
    143 H143      -47.2371  -23.0077   11.1869 H         1 UNK         0.0734 
    144 H144      -44.9547  -22.6467   12.1691 H         1 UNK         0.0832 
    145 H145      -46.1921  -22.7831   13.4057 H         1 UNK         0.0832 
    146 H146      -45.1235  -24.1410   13.0915 H         1 UNK         0.0832 
    147 H147      -46.0672  -23.9099    9.5328 H         1 UNK         0.3156 
    148 H148      -43.8665  -24.9642    8.7686 H         1 UNK         0.0589 
    149 H149      -44.2245  -27.9680    9.2604 H         1 UNK         0.0808 
    150 H150      -43.1308  -27.2360    8.0852 H         1 UNK         0.0808 
    151 H151      -42.8659  -26.9923    9.8020 H         1 UNK         0.0808 
    152 H152      -45.6832  -26.8928    7.6075 H         1 UNK         0.3098 
    153 H153      -48.0884  -24.7407    6.4030 H         1 UNK         0.0720 
    154 H154      -47.3840  -25.1735    4.0637 H         1 UNK         0.0791 
    155 H155      -45.7586  -25.5989    4.6007 H         1 UNK         0.0791 
    156 H156      -46.3489  -23.9520    4.7825 H         1 UNK         0.0791 
    157 H157      -47.3283  -27.3272    5.4564 H         1 UNK         0.3028 
@<TRIPOS>BOND
     1    1    2 1    
     2    1   82 1    
     3    1   83 1    
     4    1   84 1    
     5    2    3 2    
     6    2    4 am   BACKBONE|DICT|INTERRES
     7    4    5 1    
     8    4   85 1    
     9    5    6 1    
    10    5   80 1    
    11    5   86 1    
    12    6    7 1    
    13    6   87 1    
    14    6   88 1    
    15    7    8 1    
    16    8    9 1    
    17    8   89 1    
    18    8   90 1    
    19    9   10 ar   
    20    9   14 ar   
    21   10   11 ar   
    22   10   91 1    
    23   11   12 ar   
    24   11   58 1    
    25   12   13 ar   
    26   12   92 1    
    27   13   14 ar   
    28   13   15 1    
    29   14   93 1    
    30   15   16 1    
    31   15   94 1    
    32   15   95 1    
    33   16   17 1    
    34   17   18 1    
    35   17   96 1    
    36   17   97 1    
    37   18   19 1    
    38   18   22 1    
    39   18   98 1    
    40   19   20 am   BACKBONE|DICT|INTERRES
    41   19   21 2    
    42   20   99 1    
    43   20  100 1    
    44   22   23 am   BACKBONE|DICT|INTERRES
    45   22  101 1    
    46   23   24 2    
    47   23   25 1    
    48   25   26 1    
    49   25   27 1    
    50   25  102 1    
    51   26  103 1    
    52   26  104 1    
    53   26  105 1    
    54   27   28 am   BACKBONE|DICT|INTERRES
    55   27  106 1    
    56   28   29 2    
    57   28   30 1    
    58   30   31 1    
    59   30   32 1    
    60   30  107 1    
    61   31  108 1    
    62   31  109 1    
    63   31  110 1    
    64   32   33 am   BACKBONE|DICT|INTERRES
    65   32  111 1    
    66   33   34 2    
    67   33   35 1    
    68   35   36 1    
    69   35   37 1    
    70   35  112 1    
    71   36  113 1    
    72   36  114 1    
    73   36  115 1    
    74   37   38 am   BACKBONE|DICT|INTERRES
    75   37  116 1    
    76   38   39 2    
    77   38   40 1    
    78   40   41 1    
    79   40   42 1    
    80   40  117 1    
    81   41  118 1    
    82   41  119 1    
    83   41  120 1    
    84   42   43 am   BACKBONE|DICT|INTERRES
    85   42  121 1    
    86   43   44 2    
    87   43   45 1    
    88   45   46 1    
    89   45   47 1    
    90   45  122 1    
    91   46  123 1    
    92   46  124 1    
    93   46  125 1    
    94   47   48 am   BACKBONE|DICT|INTERRES
    95   47  126 1    
    96   48   49 2    
    97   48   50 1    
    98   50   51 1    
    99   50   52 1    
   100   50  127 1    
   101   51  128 1    
   102   51  129 1    
   103   51  130 1    
   104   52   53 am   BACKBONE|DICT|INTERRES
   105   52  131 1    
   106   53   54 2    
   107   53   55 1    
   108   55   56 1    
   109   55   59 1    
   110   55  132 1    
   111   56   57 1    
   112   56  133 1    
   113   56  134 1    
   114   57   58 1    
   115   58  135 1    
   116   58  136 1    
   117   59   60 am   BACKBONE|DICT|INTERRES
   118   59  137 1    
   119   60   61 2    
   120   60   62 1    
   121   62   63 1    
   122   62   64 1    
   123   62  138 1    
   124   63  139 1    
   125   63  140 1    
   126   63  141 1    
   127   64   65 am   BACKBONE|DICT|INTERRES
   128   64  142 1    
   129   65   66 2    
   130   65   67 1    
   131   67   68 1    
   132   67   69 1    
   133   67  143 1    
   134   68  144 1    
   135   68  145 1    
   136   68  146 1    
   137   69   70 am   BACKBONE|DICT|INTERRES
   138   69  147 1    
   139   70   71 2    
   140   70   72 1    
   141   72   73 1    
   142   72   74 1    
   143   72  148 1    
   144   73  149 1    
   145   73  150 1    
   146   73  151 1    
   147   74   75 am   BACKBONE|DICT|INTERRES
   148   74  152 1    
   149   75   76 2    
   150   75   77 1    
   151   77   78 1    
   152   77   79 1    
   153   77  153 1    
   154   78  154 1    
   155   78  155 1    
   156   78  156 1    
   157   79   80 am   BACKBONE|DICT|INTERRES
   158   79  157 1    
   159   80   81 2    
@<TRIPOS>SUBSTRUCTURE
     1 UNK         1 GROUP             0       ****    0 ROOT    
