@<TRIPOS>MOLECULE
3R207
157   159    1
SMALL
USER_CHARGES


@<TRIPOS>ATOM
      1 CA        -46.3173  -30.6578    3.1938 C.3       0 UNK        -0.1975 
      2 C         -46.8353  -31.4290    4.4056 C.2       0 UNK         0.4852 
      3 O         -46.1738  -32.3658    4.8491 O.2       0 UNK        -0.5216 
      4 N         -48.0016  -31.0883    4.9747 N.am      1 UNK        -0.4461 
      5 CA        -48.8996  -29.9873    4.5926 C.3       1 UNK         0.0864 
      6 C6        -50.2696  -30.0799    5.3090 C.3       14 UNK        -0.0898 
      7 S7        -51.0836  -31.7060    5.1825 S.3       14 UNK        -0.2598 
      8 C8        -52.7822  -31.2998    5.7215 C.3       14 UNK         0.0286 
      9 C9        -52.8364  -30.4289    6.9753 C.ar      14 UNK        -0.0844 
     10 C10       -52.1462  -30.7987    8.1367 C.ar      14 UNK        -0.0881 
     11 C11       -52.1780  -29.9856    9.2743 C.ar      14 UNK        -0.0643 
     12 C12       -52.9430  -28.8168    9.2561 C.ar      14 UNK        -0.0930 
     13 C13       -53.6255  -28.4284    8.1022 C.ar      14 UNK        -0.0827 
     14 C14       -53.5714  -29.2380    6.9646 C.ar      14 UNK        -0.1249 
     15 C15       -54.3933  -27.1176    8.0939 C.3       14 UNK         0.0141 
     16 S16       -55.9692  -27.2763    8.9832 S.3       14 UNK        -0.2313 
     17 C17       -56.2852  -25.5315    9.4120 C.3       14 UNK        -0.0915 
     18 CA        -55.6707  -25.1231   10.7794 C.3       13 UNK         0.0968 
     19 C         -55.9089  -23.6103   11.0596 C.2       13 UNK         0.5732 
     20 N         -56.6767  -23.2312   12.0742 N.am      13 UNK        -0.7310 
     21 O         -55.3835  -22.7645   10.3400 O.2       13 UNK        -0.5035 
     22 N         -56.0872  -26.0391   11.8550 N.am      13 UNK        -0.4233 
     23 C         -55.4944  -26.1484   13.0497 C.2       13 UNK         0.4989 
     24 O         -54.5689  -25.4240   13.4198 O.2       13 UNK        -0.4996 
     25 CA        -56.0381  -27.2298   14.0087 C.3       12 UNK         0.0216 
     26 CB        -56.8371  -28.3537   13.3074 C.3       12 UNK        -0.1964 
     27 N         -54.9743  -27.7911   14.8502 N.am      12 UNK        -0.4276 
     28 C         -53.8816  -28.4538   14.4434 C.2       12 UNK         0.5020 
     29 O         -53.6625  -28.7798   13.2751 O.2       12 UNK        -0.5489 
     30 CA        -52.8486  -28.7692   15.5394 C.3       11 UNK         0.0294 
     31 CB        -51.6521  -29.5862   15.0152 C.3       11 UNK        -0.2019 
     32 N         -52.3505  -27.5242   16.1234 N.am      11 UNK        -0.4493 
     33 C         -52.9116  -26.8551   17.1383 C.2       11 UNK         0.4932 
     34 O         -53.9268  -27.2459   17.7177 O.2       11 UNK        -0.5029 
     35 CA        -52.2671  -25.5114   17.5385 C.3       10 UNK         0.0280 
     36 CB        -52.5418  -25.1262   19.0076 C.3       10 UNK        -0.1976 
     37 N         -50.8355  -25.4297   17.2224 N.am      10 UNK        -0.4242 
     38 C         -49.8344  -26.1638   17.7344 C.2       10 UNK         0.5072 
     39 O         -49.9831  -26.9845   18.6411 O.2       10 UNK        -0.5224 
     40 CA        -48.4270  -25.9858   17.1255 C.3       9 UNK         0.0343 
     41 CB        -47.9662  -27.2887   16.4490 C.3       9 UNK        -0.2003 
     42 N         -48.3349  -24.8949   16.1510 N.am      9 UNK        -0.4272 
     43 C         -48.2527  -23.5929   16.4572 C.2       9 UNK         0.4988 
     44 O         -48.1703  -23.1646   17.6087 O.2       9 UNK        -0.5108 
     45 CA        -48.3101  -22.5968   15.2835 C.3       8 UNK         0.0248 
     46 CB        -46.9088  -22.3733   14.6938 C.3       8 UNK        -0.2001 
     47 N         -49.2386  -23.0029   14.2210 N.am      8 UNK        -0.4140 
     48 C         -50.5615  -23.1557   14.3878 C.2       8 UNK         0.5028 
     49 O         -51.1461  -22.9224   15.4456 O.2       8 UNK        -0.5428 
     50 CA        -51.3637  -23.7229   13.2048 C.3       7 UNK         0.0264 
     51 CB        -51.6883  -22.6273   12.1780 C.3       7 UNK        -0.1988 
     52 N         -50.7001  -24.8507   12.5451 N.am      7 UNK        -0.4454 
     53 C         -50.3949  -26.0088   13.1502 C.2       7 UNK         0.5027 
     54 O         -50.6546  -26.2514   14.3271 O.2       7 UNK        -0.5083 
     55 CA        -49.6247  -27.0617   12.3290 C.3       6 UNK         0.0844 
     56 C56       -50.5821  -27.7953   11.3650 C.3       14 UNK        -0.0967 
     57 S57       -49.8782  -29.3361   10.6909 S.3       14 UNK        -0.2604 
     58 C58       -51.3797  -30.3612   10.5165 C.3       14 UNK         0.0134 
     59 N         -48.4669  -26.4702   11.6518 N.am      6 UNK        -0.4116 
     60 C         -47.4573  -25.8490   12.2815 C.2       5 UNK         0.5034 
     61 O         -47.3325  -25.8010   13.5050 O.2       5 UNK        -0.5045 
     62 CA        -46.4559  -25.0893   11.4012 C.3       5 UNK         0.0224 
     63 CB        -45.3746  -26.0315   10.8487 C.3       5 UNK        -0.1978 
     64 N         -47.1313  -24.3864   10.3071 N.am      5 UNK        -0.4737 
     65 C         -47.8930  -23.2957   10.4785 C.2       4 UNK         0.5027 
     66 O         -48.0605  -22.7484   11.5676 O.2       4 UNK        -0.5211 
     67 CA        -48.6160  -22.7401    9.2392 C.3       4 UNK         0.0297 
     68 CB        -47.6944  -21.7884    8.4609 C.3       4 UNK        -0.1993 
     69 N         -49.1063  -23.7906    8.3442 N.am      4 UNK        -0.4486 
     70 C         -50.0725  -24.6654    8.6578 C.2       3 UNK         0.4961 
     71 O         -50.6965  -24.6455    9.7173 O.2       3 UNK        -0.5105 
     72 CA        -50.3556  -25.7853    7.6414 C.3       3 UNK         0.0299 
     73 CB        -51.4239  -25.3429    6.6299 C.3       3 UNK        -0.1972 
     74 N         -49.1658  -26.2572    6.9241 N.am      3 UNK        -0.4305 
     75 C         -48.0594  -26.7521    7.4969 C.2       2 UNK         0.5006 
     76 O         -47.8950  -26.8183    8.7160 O.2       2 UNK        -0.5106 
     77 CA        -46.9772  -27.2841    6.5396 C.3       2 UNK         0.0296 
     78 CB        -45.6355  -27.5447    7.2490 C.3       2 UNK        -0.2002 
     79 N         -47.4406  -28.5254    5.9227 N.am      2 UNK        -0.4032 
     80 C         -48.3070  -28.5982    4.9024 C.2       1 UNK         0.5000 
     81 O         -48.6847  -27.6171    4.2593 O.2       1 UNK        -0.5238 
     82 H82       -45.9233  -29.6873    3.4935 H         1 UNK         0.0889 
     83 H83       -47.0960  -30.5089    2.4472 H         1 UNK         0.0889 
     84 H84       -45.5089  -31.2085    2.7130 H         1 UNK         0.0889 
     85 H85       -48.3351  -31.6517    5.7443 H         1 UNK         0.3028 
     86 H86       -49.0796  -30.0446    3.5178 H         1 UNK         0.0864 
     87 H87       -50.1556  -29.8544    6.3718 H         1 UNK         0.0720 
     88 H88       -50.9533  -29.3267    4.9106 H         1 UNK         0.0720 
     89 H89       -53.3247  -32.2270    5.9100 H         1 UNK         0.0814 
     90 H90       -53.2945  -30.8091    4.8925 H         1 UNK         0.0814 
     91 H91       -51.5635  -31.7098    8.1435 H         1 UNK         0.1469 
     92 H92       -53.0029  -28.1952   10.1376 H         1 UNK         0.1381 
     93 H93       -54.0998  -28.9375    6.0701 H         1 UNK         0.1206 
     94 H94       -54.5833  -26.7806    7.0738 H         1 UNK         0.0813 
     95 H95       -53.7808  -26.3479    8.5661 H         1 UNK         0.0813 
     96 H96       -57.3665  -25.3832    9.4262 H         1 UNK         0.0638 
     97 H97       -55.9041  -24.8982    8.6084 H         1 UNK         0.0638 
     98 H98       -54.5876  -25.2289   10.6904 H         1 UNK         0.0568 
     99 H99       -56.8190  -22.2484   12.2442 H         1 UNK         0.3450 
    100 H100      -57.1077  -23.9159   12.6733 H         1 UNK         0.3450 
    101 H101      -56.8387  -26.6715   11.6249 H         1 UNK         0.2987 
    102 H102      -56.7183  -26.7149   14.6886 H         1 UNK         0.0766 
    103 H103      -57.1367  -29.1239   14.0182 H         1 UNK         0.0798 
    104 H104      -56.2557  -28.8392   12.5220 H         1 UNK         0.0798 
    105 H105      -57.7528  -27.9714   12.8551 H         1 UNK         0.0798 
    106 H106      -55.0107  -27.5398   15.8318 H         1 UNK         0.3198 
    107 H107      -53.3486  -29.3629   16.3078 H         1 UNK         0.0843 
    108 H108      -51.1097  -29.0546   14.2334 H         1 UNK         0.0831 
    109 H109      -51.9833  -30.5357   14.5930 H         1 UNK         0.0831 
    110 H110      -50.9470  -29.8136   15.8148 H         1 UNK         0.0831 
    111 H111      -51.5962  -27.0669   15.6108 H         1 UNK         0.3133 
    112 H112      -52.7465  -24.7590   16.9109 H         1 UNK         0.0566 
    113 H113      -52.0818  -24.1707   19.2595 H         1 UNK         0.0814 
    114 H114      -53.6121  -25.0273   19.1921 H         1 UNK         0.0814 
    115 H115      -52.1626  -25.8762   19.7022 H         1 UNK         0.0814 
    116 H116      -50.6072  -24.7904   16.4697 H         1 UNK         0.3091 
    117 H117      -47.7436  -25.7721   17.9498 H         1 UNK         0.0702 
    118 H118      -46.9536  -27.1949   16.0560 H         1 UNK         0.0785 
    119 H119      -48.6204  -27.5660   15.6218 H         1 UNK         0.0785 
    120 H120      -47.9635  -28.1198   17.1554 H         1 UNK         0.0785 
    121 H121      -48.3356  -25.1651   15.1721 H         1 UNK         0.2998 
    122 H122      -48.6662  -21.6437   15.6797 H         1 UNK         0.0697 
    123 H123      -46.5010  -23.2883   14.2641 H         1 UNK         0.0825 
    124 H124      -46.2117  -22.0342   15.4612 H         1 UNK         0.0825 
    125 H125      -46.9238  -21.6143   13.9113 H         1 UNK         0.0825 
    126 H126      -48.8399  -23.1547   13.2976 H         1 UNK         0.3029 
    127 H127      -52.3075  -24.0957   13.6068 H         1 UNK         0.0897 
    128 H128      -52.3364  -23.0066   11.3873 H         1 UNK         0.0792 
    129 H129      -52.2091  -21.7930   12.6497 H         1 UNK         0.0792 
    130 H130      -50.7870  -22.2297   11.7116 H         1 UNK         0.0792 
    131 H131      -50.5090  -24.7462   11.5500 H         1 UNK         0.3086 
    132 H132      -49.2366  -27.7937   13.0405 H         1 UNK         0.0583 
    133 H133      -51.5051  -28.0487   11.8895 H         1 UNK         0.1020 
    134 H134      -50.8707  -27.1477   10.5376 H         1 UNK         0.1020 
    135 H135      -51.0772  -31.4081   10.4656 H         1 UNK         0.0694 
    136 H136      -52.0054  -30.2723   11.4062 H         1 UNK         0.0694 
    137 H137      -48.4552  -26.5085   10.6374 H         1 UNK         0.2989 
    138 H138      -45.9623  -24.3437   12.0286 H         1 UNK         0.1055 
    139 H139      -44.8066  -26.4841   11.6625 H         1 UNK         0.0806 
    140 H140      -44.6650  -25.4971   10.2171 H         1 UNK         0.0806 
    141 H141      -45.8002  -26.8464   10.2636 H         1 UNK         0.0806 
    142 H142      -47.1156  -24.8355    9.4012 H         1 UNK         0.3061 
    143 H143      -49.4785  -22.1684    9.5881 H         1 UNK         0.0734 
    144 H144      -48.2180  -21.3221    7.6262 H         1 UNK         0.0832 
    145 H145      -47.3344  -20.9842    9.1044 H         1 UNK         0.0832 
    146 H146      -46.8188  -22.3039    8.0644 H         1 UNK         0.0832 
    147 H147      -48.6513  -23.8823    7.4477 H         1 UNK         0.3156 
    148 H148      -50.7528  -26.6367    8.1976 H         1 UNK         0.0589 
    149 H149      -51.0571  -24.5532    5.9731 H         1 UNK         0.0808 
    150 H150      -51.7474  -26.1772    6.0068 H         1 UNK         0.0808 
    151 H151      -52.3090  -24.9569    7.1372 H         1 UNK         0.0808 
    152 H152      -49.2227  -26.2885    5.9125 H         1 UNK         0.3098 
    153 H153      -46.8080  -26.5318    5.7661 H         1 UNK         0.0720 
    154 H154      -44.8776  -27.8920    6.5466 H         1 UNK         0.0791 
    155 H155      -45.7299  -28.2935    8.0366 H         1 UNK         0.0791 
    156 H156      -45.2551  -26.6320    7.7093 H         1 UNK         0.0791 
    157 H157      -47.2144  -29.3803    6.4112 H         1 UNK         0.3028 
@<TRIPOS>BOND
     1    1    2 1    
     2    1   82 1    
     3    1   83 1    
     4    1   84 1    
     5    2    3 2    
     6    2    4 am   BACKBONE|DICT|INTERRES
     7    4    5 1    
     8    4   85 1    
     9    5    6 1    
    10    5   80 1    
    11    5   86 1    
    12    6    7 1    
    13    6   87 1    
    14    6   88 1    
    15    7    8 1    
    16    8    9 1    
    17    8   89 1    
    18    8   90 1    
    19    9   10 ar   
    20    9   14 ar   
    21   10   11 ar   
    22   10   91 1    
    23   11   12 ar   
    24   11   58 1    
    25   12   13 ar   
    26   12   92 1    
    27   13   14 ar   
    28   13   15 1    
    29   14   93 1    
    30   15   16 1    
    31   15   94 1    
    32   15   95 1    
    33   16   17 1    
    34   17   18 1    
    35   17   96 1    
    36   17   97 1    
    37   18   19 1    
    38   18   22 1    
    39   18   98 1    
    40   19   20 am   BACKBONE|DICT|INTERRES
    41   19   21 2    
    42   20   99 1    
    43   20  100 1    
    44   22   23 am   BACKBONE|DICT|INTERRES
    45   22  101 1    
    46   23   24 2    
    47   23   25 1    
    48   25   26 1    
    49   25   27 1    
    50   25  102 1    
    51   26  103 1    
    52   26  104 1    
    53   26  105 1    
    54   27   28 am   BACKBONE|DICT|INTERRES
    55   27  106 1    
    56   28   29 2    
    57   28   30 1    
    58   30   31 1    
    59   30   32 1    
    60   30  107 1    
    61   31  108 1    
    62   31  109 1    
    63   31  110 1    
    64   32   33 am   BACKBONE|DICT|INTERRES
    65   32  111 1    
    66   33   34 2    
    67   33   35 1    
    68   35   36 1    
    69   35   37 1    
    70   35  112 1    
    71   36  113 1    
    72   36  114 1    
    73   36  115 1    
    74   37   38 am   BACKBONE|DICT|INTERRES
    75   37  116 1    
    76   38   39 2    
    77   38   40 1    
    78   40   41 1    
    79   40   42 1    
    80   40  117 1    
    81   41  118 1    
    82   41  119 1    
    83   41  120 1    
    84   42   43 am   BACKBONE|DICT|INTERRES
    85   42  121 1    
    86   43   44 2    
    87   43   45 1    
    88   45   46 1    
    89   45   47 1    
    90   45  122 1    
    91   46  123 1    
    92   46  124 1    
    93   46  125 1    
    94   47   48 am   BACKBONE|DICT|INTERRES
    95   47  126 1    
    96   48   49 2    
    97   48   50 1    
    98   50   51 1    
    99   50   52 1    
   100   50  127 1    
   101   51  128 1    
   102   51  129 1    
   103   51  130 1    
   104   52   53 am   BACKBONE|DICT|INTERRES
   105   52  131 1    
   106   53   54 2    
   107   53   55 1    
   108   55   56 1    
   109   55   59 1    
   110   55  132 1    
   111   56   57 1    
   112   56  133 1    
   113   56  134 1    
   114   57   58 1    
   115   58  135 1    
   116   58  136 1    
   117   59   60 am   BACKBONE|DICT|INTERRES
   118   59  137 1    
   119   60   61 2    
   120   60   62 1    
   121   62   63 1    
   122   62   64 1    
   123   62  138 1    
   124   63  139 1    
   125   63  140 1    
   126   63  141 1    
   127   64   65 am   BACKBONE|DICT|INTERRES
   128   64  142 1    
   129   65   66 2    
   130   65   67 1    
   131   67   68 1    
   132   67   69 1    
   133   67  143 1    
   134   68  144 1    
   135   68  145 1    
   136   68  146 1    
   137   69   70 am   BACKBONE|DICT|INTERRES
   138   69  147 1    
   139   70   71 2    
   140   70   72 1    
   141   72   73 1    
   142   72   74 1    
   143   72  148 1    
   144   73  149 1    
   145   73  150 1    
   146   73  151 1    
   147   74   75 am   BACKBONE|DICT|INTERRES
   148   74  152 1    
   149   75   76 2    
   150   75   77 1    
   151   77   78 1    
   152   77   79 1    
   153   77  153 1    
   154   78  154 1    
   155   78  155 1    
   156   78  156 1    
   157   79   80 am   BACKBONE|DICT|INTERRES
   158   79  157 1    
   159   80   81 2    
@<TRIPOS>SUBSTRUCTURE
     1 UNK         1 GROUP             0       ****    0 ROOT    
