@<TRIPOS>MOLECULE
3R207
157   159    1
SMALL
USER_CHARGES


@<TRIPOS>ATOM
      1 CA        -48.6470  -30.1662    0.7335 C.3       0 UNK        -0.1975 
      2 C         -48.6643  -29.9082    2.2334 C.2       0 UNK         0.4852 
      3 O         -47.9752  -30.6079    2.9773 O.2       0 UNK        -0.5216 
      4 N         -49.4516  -28.9153    2.6732 N.am      1 UNK        -0.4461 
      5 CA        -49.5866  -28.4562    4.0628 C.3       1 UNK         0.0864 
      6 C6        -50.1043  -29.5763    5.0139 C.3       14 UNK        -0.0898 
      7 S7        -51.0026  -28.9391    6.4653 S.3       14 UNK        -0.2598 
      8 C8        -52.6608  -28.6793    5.7702 C.3       14 UNK         0.0286 
      9 C9        -53.5349  -27.9486    6.7733 C.ar      14 UNK        -0.0844 
     10 C10       -53.4121  -26.5665    6.9320 C.ar      14 UNK        -0.0881 
     11 C11       -54.1839  -25.8893    7.8801 C.ar      14 UNK        -0.0643 
     12 C12       -55.0864  -26.6077    8.6719 C.ar      14 UNK        -0.0930 
     13 C13       -55.2185  -27.9931    8.5225 C.ar      14 UNK        -0.0827 
     14 C14       -54.4479  -28.6536    7.5591 C.ar      14 UNK        -0.1249 
     15 C15       -56.2012  -28.7659    9.3981 C.3       14 UNK         0.0141 
     16 S16       -55.5065  -30.3144   10.0715 S.3       14 UNK        -0.2313 
     17 C17       -54.0836  -29.6863   11.0229 C.3       14 UNK        -0.0915 
     18 CA        -53.7484  -30.5830   12.2473 C.3       13 UNK         0.0968 
     19 C         -52.7222  -31.7028   11.9046 C.2       13 UNK         0.5732 
     20 N         -51.5648  -31.7651   12.5538 N.am      13 UNK        -0.7310 
     21 O         -52.9845  -32.5420   11.0470 O.2       13 UNK        -0.5035 
     22 N         -53.3700  -29.7558   13.3989 N.am      13 UNK        -0.4233 
     23 C         -53.6190  -30.0563   14.6791 C.2       13 UNK         0.4989 
     24 O         -54.1685  -31.0941   15.0508 O.2       13 UNK        -0.4996 
     25 CA        -53.1970  -29.0126   15.7277 C.3       12 UNK         0.0216 
     26 CB        -51.7850  -29.3220   16.2473 C.3       12 UNK        -0.1964 
     27 N         -53.2456  -27.6371   15.2204 N.am      12 UNK        -0.4276 
     28 C         -54.3690  -26.9915   14.8750 C.2       12 UNK         0.5020 
     29 O         -55.5014  -27.4551   15.0248 O.2       12 UNK        -0.5489 
     30 CA        -54.1763  -25.6017   14.2445 C.3       11 UNK         0.0294 
     31 CB        -55.5001  -24.8873   13.8984 C.3       11 UNK        -0.2019 
     32 N         -53.2946  -24.7447   15.0444 N.am      11 UNK        -0.4493 
     33 C         -53.5156  -24.2797   16.2840 C.2       11 UNK         0.4932 
     34 O         -54.5461  -24.4874   16.9265 O.2       11 UNK        -0.5029 
     35 CA        -52.3866  -23.4276   16.8998 C.3       10 UNK         0.0280 
     36 CB        -52.5587  -23.1977   18.4167 C.3       10 UNK        -0.1976 
     37 N         -51.0451  -23.9424   16.5989 N.am      10 UNK        -0.4242 
     38 C         -50.5455  -25.1475   16.9232 C.2       10 UNK         0.5072 
     39 O         -51.1682  -25.9902   17.5694 O.2       10 UNK        -0.5224 
     40 CA        -49.1207  -25.4838   16.4424 C.3       9 UNK         0.0343 
     41 CB        -49.0380  -26.9070   15.8692 C.3       9 UNK        -0.2003 
     42 N         -48.6563  -24.5420   15.4239 N.am      9 UNK        -0.4272 
     43 C         -47.7489  -23.5763   15.6217 C.2       9 UNK         0.4988 
     44 O         -47.1080  -23.4376   16.6640 O.2       9 UNK        -0.5108 
     45 CA        -47.5439  -22.5628   14.4812 C.3       8 UNK         0.0248 
     46 CB        -46.2423  -22.8498   13.7166 C.3       8 UNK        -0.2001 
     47 N         -48.6813  -22.5007   13.5524 N.am      8 UNK        -0.4140 
     48 C         -49.8645  -21.9615   13.8823 C.2       8 UNK         0.5028 
     49 O         -50.1078  -21.5069   15.0007 O.2       8 UNK        -0.5428 
     50 CA        -50.9835  -21.9384   12.8291 C.3       7 UNK         0.0264 
     51 CB        -50.9080  -20.6418   12.0073 C.3       7 UNK        -0.1988 
     52 N         -51.0487  -23.0784   11.9119 N.am      7 UNK        -0.4454 
     53 C         -51.1202  -24.3772   12.2359 C.2       7 UNK         0.5027 
     54 O         -50.9655  -24.7950   13.3871 O.2       7 UNK        -0.5083 
     55 CA        -51.4942  -25.3608   11.0977 C.3       6 UNK         0.0844 
     56 C56       -51.7487  -24.7042    9.7122 C.3       14 UNK        -0.0967 
     57 S57       -53.3816  -23.8824    9.6567 S.3       14 UNK        -0.2604 
     58 C58       -54.0434  -24.3802    8.0333 C.3       14 UNK         0.0134 
     59 N         -50.5134  -26.4343   10.9961 N.am      6 UNK        -0.4116 
     60 C         -50.5386  -27.5840   11.6822 C.2       5 UNK         0.5034 
     61 O         -51.4045  -27.8875   12.5061 O.2       5 UNK        -0.5045 
     62 CA        -49.4026  -28.5719   11.3774 C.3       5 UNK         0.0224 
     63 CB        -49.7550  -29.4311   10.1530 C.3       5 UNK        -0.1978 
     64 N         -48.1439  -27.8634   11.1275 N.am      5 UNK        -0.4737 
     65 C         -47.2572  -27.5647   12.0868 C.2       4 UNK         0.5027 
     66 O         -47.3310  -27.9929   13.2366 O.2       4 UNK        -0.5211 
     67 CA        -46.0843  -26.6379   11.7173 C.3       4 UNK         0.0297 
     68 CB        -44.8328  -27.4676   11.3883 C.3       4 UNK        -0.1993 
     69 N         -46.3649  -25.7334   10.5998 N.am      4 UNK        -0.4486 
     70 C         -47.2893  -24.7617   10.5839 C.2       3 UNK         0.4961 
     71 O         -47.9936  -24.4584   11.5440 O.2       3 UNK        -0.5105 
     72 CA        -47.5011  -24.0264    9.2502 C.3       3 UNK         0.0299 
     73 CB        -46.6985  -22.7166    9.2306 C.3       3 UNK        -0.1972 
     74 N         -47.1609  -24.8357    8.0741 N.am      3 UNK        -0.4305 
     75 C         -47.7582  -25.9884    7.7412 C.2       2 UNK         0.5006 
     76 O         -48.6754  -26.5019    8.3902 O.2       2 UNK        -0.5106 
     77 CA        -47.1762  -26.7212    6.5304 C.3       2 UNK         0.0296 
     78 CB        -46.0570  -27.6836    6.9666 C.3       2 UNK        -0.2002 
     79 N         -48.2397  -27.4700    5.8723 N.am      2 UNK        -0.4032 
     80 C         -48.3149  -27.7239    4.5613 C.2       1 UNK         0.5000 
     81 O         -47.4531  -27.3601    3.7544 O.2       1 UNK        -0.5238 
     82 H82       -49.3101  -29.4898    0.1944 H         1 UNK         0.0889 
     83 H83       -48.9632  -31.1880    0.5249 H         1 UNK         0.0889 
     84 H84       -47.6384  -30.0347    0.3427 H         1 UNK         0.0889 
     85 H85       -49.9620  -28.3671    1.9947 H         1 UNK         0.3028 
     86 H86       -50.3522  -27.6808    4.0133 H         1 UNK         0.0864 
     87 H87       -50.7803  -30.2446    4.4778 H         1 UNK         0.0720 
     88 H88       -49.2823  -30.2068    5.3580 H         1 UNK         0.0720 
     89 H89       -53.0990  -29.6421    5.5021 H         1 UNK         0.0814 
     90 H90       -52.5961  -28.0990    4.8490 H         1 UNK         0.0814 
     91 H91       -52.7030  -26.0216    6.3238 H         1 UNK         0.1469 
     92 H92       -55.6803  -26.0830    9.4078 H         1 UNK         0.1381 
     93 H93       -54.5427  -29.7237    7.4356 H         1 UNK         0.1206 
     94 H94       -57.0837  -29.0064    8.8042 H         1 UNK         0.0813 
     95 H95       -56.5466  -28.1493   10.2295 H         1 UNK         0.0813 
     96 H96       -54.3375  -28.6769   11.3522 H         1 UNK         0.0638 
     97 H97       -53.2263  -29.5660   10.3575 H         1 UNK         0.0638 
     98 H98       -54.6604  -31.1107   12.5326 H         1 UNK         0.0568 
     99 H99       -50.9148  -32.5018   12.3315 H         1 UNK         0.3450 
    100 H100      -51.3457  -31.0933   13.2702 H         1 UNK         0.3450 
    101 H101      -52.8247  -28.9251   13.1830 H         1 UNK         0.2987 
    102 H102      -53.8945  -29.0861   16.5648 H         1 UNK         0.0766 
    103 H103      -51.5154  -28.6596   17.0697 H         1 UNK         0.0798 
    104 H104      -51.0334  -29.2168   15.4640 H         1 UNK         0.0798 
    105 H105      -51.7221  -30.3433   16.6257 H         1 UNK         0.0798 
    106 H106      -52.3599  -27.1770   15.0641 H         1 UNK         0.3198 
    107 H107      -53.6584  -25.7801   13.3037 H         1 UNK         0.0843 
    108 H108      -55.3179  -23.9265   13.4171 H         1 UNK         0.0831 
    109 H109      -56.1129  -24.7111   14.7828 H         1 UNK         0.0831 
    110 H110      -56.0949  -25.4870   13.2083 H         1 UNK         0.0831 
    111 H111      -52.3858  -24.5644   14.6240 H         1 UNK         0.3133 
    112 H112      -52.4490  -22.4529   16.4139 H         1 UNK         0.0566 
    113 H113      -51.7592  -22.5743   18.8167 H         1 UNK         0.0814 
    114 H114      -53.5005  -22.6910   18.6310 H         1 UNK         0.0814 
    115 H115      -52.5624  -24.1366   18.9712 H         1 UNK         0.0814 
    116 H116      -50.4541  -23.3061   16.0752 H         1 UNK         0.3091 
    117 H117      -48.4778  -25.4410   17.3235 H         1 UNK         0.0702 
    118 H118      -49.3480  -27.6490   16.6047 H         1 UNK         0.0785 
    119 H119      -48.0134  -27.1510   15.5920 H         1 UNK         0.0785 
    120 H120      -49.6650  -27.0267   14.9843 H         1 UNK         0.0785 
    121 H121      -49.1474  -24.5753   14.5363 H         1 UNK         0.2998 
    122 H122      -47.4412  -21.5774   14.9412 H         1 UNK         0.0697 
    123 H123      -46.2137  -23.8697   13.3385 H         1 UNK         0.0825 
    124 H124      -45.3770  -22.7275   14.3693 H         1 UNK         0.0825 
    125 H125      -46.1124  -22.1712   12.8736 H         1 UNK         0.0825 
    126 H126      -48.5685  -22.9668   12.6556 H         1 UNK         0.3029 
    127 H127      -51.9275  -21.9310   13.3785 H         1 UNK         0.0897 
    128 H128      -51.7744  -20.5327   11.3543 H         1 UNK         0.0792 
    129 H129      -50.8852  -19.7659   12.6578 H         1 UNK         0.0792 
    130 H130      -50.0116  -20.6101   11.3864 H         1 UNK         0.0792 
    131 H131      -51.2197  -22.8423   10.9453 H         1 UNK         0.3086 
    132 H132      -52.4360  -25.8231   11.3970 H         1 UNK         0.0583 
    133 H133      -50.9608  -24.0066    9.4254 H         1 UNK         0.1020 
    134 H134      -51.7261  -25.4773    8.9433 H         1 UNK         0.1020 
    135 H135      -55.0227  -23.9189    7.8987 H         1 UNK         0.0694 
    136 H136      -53.4027  -23.9669    7.2527 H         1 UNK         0.0694 
    137 H137      -49.7574  -26.2879   10.3412 H         1 UNK         0.2989 
    138 H138      -49.2976  -29.2347   12.2395 H         1 UNK         0.1055 
    139 H139      -50.6902  -29.9699   10.3072 H         1 UNK         0.0806 
    140 H140      -48.9826  -30.1741    9.9546 H         1 UNK         0.0806 
    141 H141      -49.8749  -28.8252    9.2548 H         1 UNK         0.0806 
    142 H142      -48.0135  -27.4776   10.2001 H         1 UNK         0.3061 
    143 H143      -45.8672  -26.0287   12.5958 H         1 UNK         0.0734 
    144 H144      -43.9660  -26.8297   11.2148 H         1 UNK         0.0832 
    145 H145      -44.5801  -28.1349   12.2137 H         1 UNK         0.0832 
    146 H146      -44.9794  -28.0875   10.5028 H         1 UNK         0.0832 
    147 H147      -45.8326  -25.8853    9.7564 H         1 UNK         0.3156 
    148 H148      -48.5609  -23.7755    9.1820 H         1 UNK         0.0589 
    149 H149      -45.6238  -22.8986    9.2731 H         1 UNK         0.0808 
    150 H150      -46.9067  -22.1359    8.3317 H         1 UNK         0.0808 
    151 H151      -46.9559  -22.0887   10.0852 H         1 UNK         0.0808 
    152 H152      -46.4103  -24.4914    7.4916 H         1 UNK         0.3098 
    153 H153      -46.7707  -25.9786    5.8396 H         1 UNK         0.0720 
    154 H154      -45.6304  -28.2070    6.1107 H         1 UNK         0.0791 
    155 H155      -46.4231  -28.4353    7.6676 H         1 UNK         0.0791 
    156 H156      -45.2421  -27.1477    7.4547 H         1 UNK         0.0791 
    157 H157      -49.0070  -27.7477    6.4761 H         1 UNK         0.3028 
@<TRIPOS>BOND
     1    1    2 1    
     2    1   82 1    
     3    1   83 1    
     4    1   84 1    
     5    2    3 2    
     6    2    4 am   BACKBONE|DICT|INTERRES
     7    4    5 1    
     8    4   85 1    
     9    5    6 1    
    10    5   80 1    
    11    5   86 1    
    12    6    7 1    
    13    6   87 1    
    14    6   88 1    
    15    7    8 1    
    16    8    9 1    
    17    8   89 1    
    18    8   90 1    
    19    9   10 ar   
    20    9   14 ar   
    21   10   11 ar   
    22   10   91 1    
    23   11   12 ar   
    24   11   58 1    
    25   12   13 ar   
    26   12   92 1    
    27   13   14 ar   
    28   13   15 1    
    29   14   93 1    
    30   15   16 1    
    31   15   94 1    
    32   15   95 1    
    33   16   17 1    
    34   17   18 1    
    35   17   96 1    
    36   17   97 1    
    37   18   19 1    
    38   18   22 1    
    39   18   98 1    
    40   19   20 am   BACKBONE|DICT|INTERRES
    41   19   21 2    
    42   20   99 1    
    43   20  100 1    
    44   22   23 am   BACKBONE|DICT|INTERRES
    45   22  101 1    
    46   23   24 2    
    47   23   25 1    
    48   25   26 1    
    49   25   27 1    
    50   25  102 1    
    51   26  103 1    
    52   26  104 1    
    53   26  105 1    
    54   27   28 am   BACKBONE|DICT|INTERRES
    55   27  106 1    
    56   28   29 2    
    57   28   30 1    
    58   30   31 1    
    59   30   32 1    
    60   30  107 1    
    61   31  108 1    
    62   31  109 1    
    63   31  110 1    
    64   32   33 am   BACKBONE|DICT|INTERRES
    65   32  111 1    
    66   33   34 2    
    67   33   35 1    
    68   35   36 1    
    69   35   37 1    
    70   35  112 1    
    71   36  113 1    
    72   36  114 1    
    73   36  115 1    
    74   37   38 am   BACKBONE|DICT|INTERRES
    75   37  116 1    
    76   38   39 2    
    77   38   40 1    
    78   40   41 1    
    79   40   42 1    
    80   40  117 1    
    81   41  118 1    
    82   41  119 1    
    83   41  120 1    
    84   42   43 am   BACKBONE|DICT|INTERRES
    85   42  121 1    
    86   43   44 2    
    87   43   45 1    
    88   45   46 1    
    89   45   47 1    
    90   45  122 1    
    91   46  123 1    
    92   46  124 1    
    93   46  125 1    
    94   47   48 am   BACKBONE|DICT|INTERRES
    95   47  126 1    
    96   48   49 2    
    97   48   50 1    
    98   50   51 1    
    99   50   52 1    
   100   50  127 1    
   101   51  128 1    
   102   51  129 1    
   103   51  130 1    
   104   52   53 am   BACKBONE|DICT|INTERRES
   105   52  131 1    
   106   53   54 2    
   107   53   55 1    
   108   55   56 1    
   109   55   59 1    
   110   55  132 1    
   111   56   57 1    
   112   56  133 1    
   113   56  134 1    
   114   57   58 1    
   115   58  135 1    
   116   58  136 1    
   117   59   60 am   BACKBONE|DICT|INTERRES
   118   59  137 1    
   119   60   61 2    
   120   60   62 1    
   121   62   63 1    
   122   62   64 1    
   123   62  138 1    
   124   63  139 1    
   125   63  140 1    
   126   63  141 1    
   127   64   65 am   BACKBONE|DICT|INTERRES
   128   64  142 1    
   129   65   66 2    
   130   65   67 1    
   131   67   68 1    
   132   67   69 1    
   133   67  143 1    
   134   68  144 1    
   135   68  145 1    
   136   68  146 1    
   137   69   70 am   BACKBONE|DICT|INTERRES
   138   69  147 1    
   139   70   71 2    
   140   70   72 1    
   141   72   73 1    
   142   72   74 1    
   143   72  148 1    
   144   73  149 1    
   145   73  150 1    
   146   73  151 1    
   147   74   75 am   BACKBONE|DICT|INTERRES
   148   74  152 1    
   149   75   76 2    
   150   75   77 1    
   151   77   78 1    
   152   77   79 1    
   153   77  153 1    
   154   78  154 1    
   155   78  155 1    
   156   78  156 1    
   157   79   80 am   BACKBONE|DICT|INTERRES
   158   79  157 1    
   159   80   81 2    
@<TRIPOS>SUBSTRUCTURE
     1 UNK         1 GROUP             0       ****    0 ROOT    
