@<TRIPOS>MOLECULE
3R207
157   159    1
SMALL
USER_CHARGES


@<TRIPOS>ATOM
      1 CA        -46.8886  -27.3395    4.5012 C.3       0 UNK        -0.1975 
      2 C         -47.9948  -26.9168    3.5341 C.2       0 UNK         0.4852 
      3 O         -47.7756  -26.9866    2.3263 O.2       0 UNK        -0.5216 
      4 N         -49.1874  -26.4809    3.9728 N.am      1 UNK        -0.4461 
      5 CA        -49.6748  -26.2781    5.3453 C.3       1 UNK         0.0864 
      6 C6        -49.7511  -27.5726    6.2040 C.3       14 UNK        -0.0898 
      7 S7        -50.9475  -28.7838    5.5606 S.3       14 UNK        -0.2598 
      8 C8        -52.4338  -28.3722    6.5471 C.3       14 UNK         0.0286 
      9 C9        -52.3479  -28.6465    8.0529 C.ar      14 UNK        -0.0844 
     10 C10       -51.4422  -29.5614    8.6072 C.ar      14 UNK        -0.0881 
     11 C11       -51.4293  -29.8139    9.9835 C.ar      14 UNK        -0.0643 
     12 C12       -52.3401  -29.1541   10.8135 C.ar      14 UNK        -0.0930 
     13 C13       -53.2457  -28.2343   10.2786 C.ar      14 UNK        -0.0827 
     14 C14       -53.2396  -27.9831    8.9029 C.ar      14 UNK        -0.1249 
     15 C15       -54.2348  -27.5140   11.1833 C.3       14 UNK         0.0141 
     16 S16       -55.9093  -28.1936   10.9845 S.3       14 UNK        -0.2313 
     17 C17       -56.8667  -27.1630   12.1508 C.3       14 UNK        -0.0915 
     18 CA        -57.8580  -27.9791   13.0235 C.3       13 UNK         0.0968 
     19 C         -59.0471  -28.5446   12.1900 C.2       13 UNK         0.5732 
     20 N         -59.1965  -29.8561   12.0441 N.am      13 UNK        -0.7310 
     21 O         -59.8565  -27.7749   11.6773 O.2       13 UNK        -0.5035 
     22 N         -57.1474  -28.9511   13.8664 N.am      13 UNK        -0.4233 
     23 C         -57.6492  -29.5879   14.9296 C.2       13 UNK         0.4989 
     24 O         -58.8019  -29.4420   15.3372 O.2       13 UNK        -0.4996 
     25 CA        -56.6986  -30.5325   15.6889 C.3       12 UNK         0.0216 
     26 CB        -56.4467  -31.8356   14.9032 C.3       12 UNK        -0.1964 
     27 N         -55.4450  -29.8880   16.1104 N.am      12 UNK        -0.4276 
     28 C         -54.4509  -29.4174   15.3446 C.2       12 UNK         0.5020 
     29 O         -54.3987  -29.5391   14.1184 O.2       12 UNK        -0.5489 
     30 CA        -53.3349  -28.6534   16.0702 C.3       11 UNK         0.0294 
     31 CB        -52.0124  -29.4341   16.0201 C.3       11 UNK        -0.2019 
     32 N         -53.1410  -27.3369   15.4661 N.am      11 UNK        -0.4493 
     33 C         -54.0128  -26.3216   15.5298 C.2       11 UNK         0.4932 
     34 O         -55.0837  -26.3747   16.1378 O.2       11 UNK        -0.5029 
     35 CA        -53.5881  -25.0264   14.8097 C.3       10 UNK         0.0280 
     36 CB        -54.5447  -23.8432   15.0638 C.3       10 UNK        -0.1976 
     37 N         -52.1997  -24.6585   15.1130 N.am      10 UNK        -0.4242 
     38 C         -51.6596  -24.4033   16.3156 C.2       10 UNK         0.5072 
     39 O         -52.3058  -24.3324   17.3619 O.2       10 UNK        -0.5224 
     40 CA        -50.1295  -24.2302   16.3815 C.3       9 UNK         0.0343 
     41 CB        -49.4862  -25.4947   16.9753 C.3       9 UNK        -0.2003 
     42 N         -49.5108  -23.9541   15.0826 N.am      9 UNK        -0.4272 
     43 C         -49.5617  -22.7771   14.4434 C.2       9 UNK         0.4988 
     44 O         -50.0722  -21.7610   14.9158 O.2       9 UNK        -0.5108 
     45 CA        -48.9777  -22.7394   13.0186 C.3       8 UNK         0.0248 
     46 CB        -47.4512  -22.5655   13.0553 C.3       8 UNK        -0.2001 
     47 N         -49.3237  -23.9267   12.2294 N.am      8 UNK        -0.4140 
     48 C         -50.5771  -24.2853   11.9099 C.2       8 UNK         0.5028 
     49 O         -51.5765  -23.6309   12.2042 O.2       8 UNK        -0.5428 
     50 CA        -50.7568  -25.6231   11.1846 C.3       7 UNK         0.0264 
     51 CB        -50.5157  -25.4630    9.6822 C.3       7 UNK        -0.1988 
     52 N         -49.8747  -26.6570   11.7228 N.am      7 UNK        -0.4454 
     53 C         -50.0841  -27.2788   12.8911 C.2       7 UNK         0.5027 
     54 O         -51.0630  -27.0696   13.6072 O.2       7 UNK        -0.5083 
     55 CA        -49.0040  -28.2673   13.3725 C.3       6 UNK         0.0844 
     56 C56       -49.2847  -29.7177   12.9060 C.3       14 UNK        -0.0967 
     57 S57       -48.9150  -30.0391   11.1435 S.3       14 UNK        -0.2604 
     58 C58       -50.4508  -30.8265   10.5602 C.3       14 UNK         0.0134 
     59 N         -47.6463  -27.8229   13.0471 N.am      6 UNK        -0.4116 
     60 C         -47.0683  -26.7130   13.5273 C.2       5 UNK         0.5034 
     61 O         -47.6037  -25.9560   14.3353 O.2       5 UNK        -0.5045 
     62 CA        -45.6757  -26.3619   12.9796 C.3       5 UNK         0.0224 
     63 CB        -44.5800  -27.0362   13.8199 C.3       5 UNK        -0.1978 
     64 N         -45.5026  -26.7168   11.5674 N.am      5 UNK        -0.4737 
     65 C         -46.1970  -26.1763   10.5576 C.2       4 UNK         0.5027 
     66 O         -47.0798  -25.3281   10.7095 O.2       4 UNK        -0.5211 
     67 CA        -45.8978  -26.7392    9.1624 C.3       4 UNK         0.0297 
     68 CB        -46.9733  -27.7587    8.7566 C.3       4 UNK        -0.1993 
     69 N         -45.8256  -25.6761    8.1594 N.am      4 UNK        -0.4486 
     70 C         -44.7110  -24.9789    7.8928 C.2       3 UNK         0.4961 
     71 O         -43.6601  -25.1283    8.5188 O.2       3 UNK        -0.5105 
     72 CA        -44.7193  -23.9857    6.7122 C.3       3 UNK         0.0299 
     73 CB        -43.8208  -24.5052    5.5761 C.3       3 UNK        -0.1972 
     74 N         -46.0502  -23.7234    6.1637 N.am      3 UNK        -0.4305 
     75 C         -46.8971  -22.7938    6.6229 C.2       2 UNK         0.5006 
     76 O         -46.6299  -22.0162    7.5398 O.2       2 UNK        -0.5106 
     77 CA        -48.2838  -22.7142    5.9505 C.3       2 UNK         0.0296 
     78 CB        -48.2813  -21.6357    4.8544 C.3       2 UNK        -0.2002 
     79 N         -48.8051  -23.9712    5.3878 N.am      2 UNK        -0.4032 
     80 C         -48.9407  -25.1249    6.0592 C.2       1 UNK         0.5000 
     81 O         -48.4785  -25.3037    7.1832 O.2       1 UNK        -0.5238 
     82 H82       -45.9129  -27.1724    4.0456 H         1 UNK         0.0889 
     83 H83       -46.9725  -28.4042    4.7163 H         1 UNK         0.0889 
     84 H84       -46.8974  -26.7981    5.4427 H         1 UNK         0.0889 
     85 H85       -49.8686  -26.2466    3.2638 H         1 UNK         0.3028 
     86 H86       -50.6987  -25.9163    5.2382 H         1 UNK         0.0864 
     87 H87       -50.0351  -27.3394    7.2288 H         1 UNK         0.0720 
     88 H88       -48.7822  -28.0619    6.2817 H         1 UNK         0.0720 
     89 H89       -53.2736  -28.9422    6.1480 H         1 UNK         0.0814 
     90 H90       -52.6724  -27.3207    6.3800 H         1 UNK         0.0814 
     91 H91       -50.7480  -30.0919    7.9713 H         1 UNK         0.1469 
     92 H92       -52.3477  -29.3552   11.8763 H         1 UNK         0.1381 
     93 H93       -53.9504  -27.2793    8.4915 H         1 UNK         0.1206 
     94 H94       -54.2446  -26.4500   10.9427 H         1 UNK         0.0813 
     95 H95       -53.9289  -27.5956   12.2279 H         1 UNK         0.0813 
     96 H96       -57.3936  -26.3947   11.5821 H         1 UNK         0.0638 
     97 H97       -56.1765  -26.6244   12.8023 H         1 UNK         0.0638 
     98 H98       -58.3164  -27.2688   13.7140 H         1 UNK         0.0568 
     99 H99       -58.5325  -30.4916   12.4546 H         1 UNK         0.3450 
    100 H100      -59.9727  -30.2089   11.5073 H         1 UNK         0.3450 
    101 H101      -56.1745  -29.1308   13.6283 H         1 UNK         0.2987 
    102 H102      -57.2089  -30.8092   16.6131 H         1 UNK         0.0766 
    103 H103      -55.9557  -31.6547   13.9466 H         1 UNK         0.0798 
    104 H104      -57.3862  -32.3478   14.6912 H         1 UNK         0.0798 
    105 H105      -55.8237  -32.5256   15.4722 H         1 UNK         0.0798 
    106 H106      -55.3882  -29.6990   17.1022 H         1 UNK         0.3198 
    107 H107      -53.6110  -28.5074   17.1167 H         1 UNK         0.0843 
    108 H108      -51.6961  -29.6145   14.9931 H         1 UNK         0.0831 
    109 H109      -52.1137  -30.4055   16.5056 H         1 UNK         0.0831 
    110 H110      -51.2121  -28.8963   16.5288 H         1 UNK         0.0831 
    111 H111      -52.3221  -27.2256   14.8689 H         1 UNK         0.3133 
    112 H112      -53.6155  -25.2483   13.7417 H         1 UNK         0.0566 
    113 H113      -55.5563  -24.0826   14.7339 H         1 UNK         0.0814 
    114 H114      -54.6003  -23.5854   16.1218 H         1 UNK         0.0814 
    115 H115      -54.2269  -22.9550   14.5175 H         1 UNK         0.0814 
    116 H116      -51.5710  -24.6895   14.3214 H         1 UNK         0.3091 
    117 H117      -49.9204  -23.3921   17.0495 H         1 UNK         0.0702 
    118 H118      -48.4079  -25.3775   17.0849 H         1 UNK         0.0785 
    119 H119      -49.6655  -26.3687   16.3472 H         1 UNK         0.0785 
    120 H120      -49.8909  -25.7142   17.9642 H         1 UNK         0.0785 
    121 H121      -48.9880  -24.7176   14.6591 H         1 UNK         0.2998 
    122 H122      -49.4052  -21.8740   12.5081 H         1 UNK         0.0697 
    123 H123      -46.9637  -23.3830   13.5858 H         1 UNK         0.0825 
    124 H124      -47.1782  -21.6402   13.5642 H         1 UNK         0.0825 
    125 H125      -47.0312  -22.5203   12.0500 H         1 UNK         0.0825 
    126 H126      -48.5550  -24.4993   11.8934 H         1 UNK         0.3029 
    127 H127      -51.7901  -25.9427   11.3280 H         1 UNK         0.0897 
    128 H128      -49.5012  -25.1218    9.4796 H         1 UNK         0.0792 
    129 H129      -51.2012  -24.7348    9.2476 H         1 UNK         0.0792 
    130 H130      -50.6700  -26.4068    9.1633 H         1 UNK         0.0792 
    131 H131      -49.0350  -26.8624   11.2005 H         1 UNK         0.3086 
    132 H132      -49.0717  -28.2714   14.4629 H         1 UNK         0.0583 
    133 H133      -48.6734  -30.4041   13.4940 H         1 UNK         0.1020 
    134 H134      -50.3154  -29.9956   13.1294 H         1 UNK         0.1020 
    135 H135      -50.1890  -31.5591    9.7952 H         1 UNK         0.0694 
    136 H136      -50.9191  -31.3955   11.3645 H         1 UNK         0.0694 
    137 H137      -47.1420  -28.3830   12.3757 H         1 UNK         0.2989 
    138 H138      -45.5546  -25.2802   13.0662 H         1 UNK         0.1055 
    139 H139      -44.6777  -26.7693   14.8734 H         1 UNK         0.0806 
    140 H140      -43.5857  -26.7233   13.5006 H         1 UNK         0.0806 
    141 H141      -44.6282  -28.1239   13.7539 H         1 UNK         0.0806 
    142 H142      -44.7990  -27.4110   11.3569 H         1 UNK         0.3061 
    143 H143      -44.9399  -27.2637    9.1862 H         1 UNK         0.0734 
    144 H144      -46.8071  -28.1306    7.7461 H         1 UNK         0.0832 
    145 H145      -46.9566  -28.6223    9.4211 H         1 UNK         0.0832 
    146 H146      -47.9768  -27.3340    8.8008 H         1 UNK         0.0832 
    147 H147      -46.7032  -25.4322    7.7046 H         1 UNK         0.3156 
    148 H148      -44.2914  -23.0487    7.0750 H         1 UNK         0.0589 
    149 H149      -44.1805  -25.4543    5.1769 H         1 UNK         0.0808 
    150 H150      -43.7677  -23.7919    4.7533 H         1 UNK         0.0808 
    151 H151      -42.8002  -24.6665    5.9263 H         1 UNK         0.0808 
    152 H152      -46.3537  -24.3088    5.4006 H         1 UNK         0.3098 
    153 H153      -48.9869  -22.4043    6.7264 H         1 UNK         0.0720 
    154 H154      -49.2834  -21.4654    4.4604 H         1 UNK         0.0791 
    155 H155      -47.6331  -21.9095    4.0210 H         1 UNK         0.0791 
    156 H156      -47.9243  -20.6812    5.2446 H         1 UNK         0.0791 
    157 H157      -49.1764  -23.9206    4.4498 H         1 UNK         0.3028 
@<TRIPOS>BOND
     1    1    2 1    
     2    1   82 1    
     3    1   83 1    
     4    1   84 1    
     5    2    3 2    
     6    2    4 am   BACKBONE|DICT|INTERRES
     7    4    5 1    
     8    4   85 1    
     9    5    6 1    
    10    5   80 1    
    11    5   86 1    
    12    6    7 1    
    13    6   87 1    
    14    6   88 1    
    15    7    8 1    
    16    8    9 1    
    17    8   89 1    
    18    8   90 1    
    19    9   10 ar   
    20    9   14 ar   
    21   10   11 ar   
    22   10   91 1    
    23   11   12 ar   
    24   11   58 1    
    25   12   13 ar   
    26   12   92 1    
    27   13   14 ar   
    28   13   15 1    
    29   14   93 1    
    30   15   16 1    
    31   15   94 1    
    32   15   95 1    
    33   16   17 1    
    34   17   18 1    
    35   17   96 1    
    36   17   97 1    
    37   18   19 1    
    38   18   22 1    
    39   18   98 1    
    40   19   20 am   BACKBONE|DICT|INTERRES
    41   19   21 2    
    42   20   99 1    
    43   20  100 1    
    44   22   23 am   BACKBONE|DICT|INTERRES
    45   22  101 1    
    46   23   24 2    
    47   23   25 1    
    48   25   26 1    
    49   25   27 1    
    50   25  102 1    
    51   26  103 1    
    52   26  104 1    
    53   26  105 1    
    54   27   28 am   BACKBONE|DICT|INTERRES
    55   27  106 1    
    56   28   29 2    
    57   28   30 1    
    58   30   31 1    
    59   30   32 1    
    60   30  107 1    
    61   31  108 1    
    62   31  109 1    
    63   31  110 1    
    64   32   33 am   BACKBONE|DICT|INTERRES
    65   32  111 1    
    66   33   34 2    
    67   33   35 1    
    68   35   36 1    
    69   35   37 1    
    70   35  112 1    
    71   36  113 1    
    72   36  114 1    
    73   36  115 1    
    74   37   38 am   BACKBONE|DICT|INTERRES
    75   37  116 1    
    76   38   39 2    
    77   38   40 1    
    78   40   41 1    
    79   40   42 1    
    80   40  117 1    
    81   41  118 1    
    82   41  119 1    
    83   41  120 1    
    84   42   43 am   BACKBONE|DICT|INTERRES
    85   42  121 1    
    86   43   44 2    
    87   43   45 1    
    88   45   46 1    
    89   45   47 1    
    90   45  122 1    
    91   46  123 1    
    92   46  124 1    
    93   46  125 1    
    94   47   48 am   BACKBONE|DICT|INTERRES
    95   47  126 1    
    96   48   49 2    
    97   48   50 1    
    98   50   51 1    
    99   50   52 1    
   100   50  127 1    
   101   51  128 1    
   102   51  129 1    
   103   51  130 1    
   104   52   53 am   BACKBONE|DICT|INTERRES
   105   52  131 1    
   106   53   54 2    
   107   53   55 1    
   108   55   56 1    
   109   55   59 1    
   110   55  132 1    
   111   56   57 1    
   112   56  133 1    
   113   56  134 1    
   114   57   58 1    
   115   58  135 1    
   116   58  136 1    
   117   59   60 am   BACKBONE|DICT|INTERRES
   118   59  137 1    
   119   60   61 2    
   120   60   62 1    
   121   62   63 1    
   122   62   64 1    
   123   62  138 1    
   124   63  139 1    
   125   63  140 1    
   126   63  141 1    
   127   64   65 am   BACKBONE|DICT|INTERRES
   128   64  142 1    
   129   65   66 2    
   130   65   67 1    
   131   67   68 1    
   132   67   69 1    
   133   67  143 1    
   134   68  144 1    
   135   68  145 1    
   136   68  146 1    
   137   69   70 am   BACKBONE|DICT|INTERRES
   138   69  147 1    
   139   70   71 2    
   140   70   72 1    
   141   72   73 1    
   142   72   74 1    
   143   72  148 1    
   144   73  149 1    
   145   73  150 1    
   146   73  151 1    
   147   74   75 am   BACKBONE|DICT|INTERRES
   148   74  152 1    
   149   75   76 2    
   150   75   77 1    
   151   77   78 1    
   152   77   79 1    
   153   77  153 1    
   154   78  154 1    
   155   78  155 1    
   156   78  156 1    
   157   79   80 am   BACKBONE|DICT|INTERRES
   158   79  157 1    
   159   80   81 2    
@<TRIPOS>SUBSTRUCTURE
     1 UNK         1 GROUP             0       ****    0 ROOT    
