@<TRIPOS>MOLECULE
3R207
157   159    1
SMALL
USER_CHARGES


@<TRIPOS>ATOM
      1 CA        -48.6076  -30.1948    5.7773 C.3       0 UNK        -0.1975 
      2 C         -49.3021  -29.6053    7.0020 C.2       0 UNK         0.4852 
      3 O         -48.9522  -29.9710    8.1212 O.2       0 UNK        -0.5216 
      4 N         -50.2769  -28.6969    6.8491 N.am      1 UNK        -0.4461 
      5 CA        -50.8445  -28.2032    5.5840 C.3       1 UNK         0.0864 
      6 C6        -52.3894  -28.0790    5.6461 C.3       14 UNK        -0.0898 
      7 S7        -53.1790  -29.6811    6.0344 S.3       14 UNK        -0.2598 
      8 C8        -54.3282  -29.2523    7.3820 C.3       14 UNK         0.0286 
      9 C9        -53.6301  -28.6332    8.5855 C.ar      14 UNK        -0.0844 
     10 C10       -53.8911  -27.3066    8.9383 C.ar      14 UNK        -0.0881 
     11 C11       -53.2644  -26.7305   10.0453 C.ar      14 UNK        -0.0643 
     12 C12       -52.3733  -27.4924   10.8086 C.ar      14 UNK        -0.0930 
     13 C13       -52.0939  -28.8175   10.4584 C.ar      14 UNK        -0.0827 
     14 C14       -52.7307  -29.3827    9.3488 C.ar      14 UNK        -0.1249 
     15 C15       -51.0521  -29.6161   11.2314 C.3       14 UNK         0.0141 
     16 S16       -51.7087  -31.1540   11.9529 S.3       14 UNK        -0.2313 
     17 C17       -52.5197  -30.5744   13.4790 C.3       14 UNK        -0.0915 
     18 CA        -54.0455  -30.8528   13.4611 C.3       13 UNK         0.0968 
     19 C         -54.6675  -30.8187   14.8892 C.2       13 UNK         0.5732 
     20 N         -55.7316  -30.0696   15.1548 N.am      13 UNK        -0.7310 
     21 O         -54.1870  -31.5144   15.7809 O.2       13 UNK        -0.5035 
     22 N         -54.7297  -29.9879   12.4922 N.am      13 UNK        -0.4233 
     23 C         -55.8498  -30.3101   11.8339 C.2       13 UNK         0.4989 
     24 O         -56.3727  -31.4252   11.8818 O.2       13 UNK        -0.4996 
     25 CA        -56.5049  -29.1919   10.9938 C.3       12 UNK         0.0216 
     26 CB        -58.0065  -29.4403   10.7359 C.3       12 UNK        -0.1964 
     27 N         -56.2913  -27.8443   11.5426 N.am      12 UNK        -0.4276 
     28 C         -56.6332  -27.4118   12.7651 C.2       12 UNK         0.5020 
     29 O         -57.2280  -28.0933   13.6031 O.2       12 UNK        -0.5489 
     30 CA        -56.2059  -25.9798   13.1277 C.3       11 UNK         0.0294 
     31 CB        -57.4302  -25.0547   13.2141 C.3       11 UNK        -0.2019 
     32 N         -55.4652  -25.9284   14.3917 N.am      11 UNK        -0.4493 
     33 C         -54.3362  -26.6000   14.6607 C.2       11 UNK         0.4932 
     34 O         -53.7606  -27.3271   13.8479 O.2       11 UNK        -0.5029 
     35 CA        -53.7911  -26.4402   16.0936 C.3       10 UNK         0.0280 
     36 CB        -54.6884  -27.1682   17.1096 C.3       10 UNK        -0.1976 
     37 N         -52.4225  -26.9390   16.2454 N.am      10 UNK        -0.4242 
     38 C         -51.3288  -26.3543   15.7421 C.2       10 UNK         0.5072 
     39 O         -51.3439  -25.2869   15.1262 O.2       10 UNK        -0.5224 
     40 CA        -50.0008  -27.0829   16.0017 C.3       9 UNK         0.0343 
     41 CB        -49.9620  -28.4556   15.3052 C.3       9 UNK        -0.2003 
     42 N         -48.8865  -26.2756   15.5113 N.am      9 UNK        -0.4272 
     43 C         -47.7279  -26.0696   16.1471 C.2       9 UNK         0.4988 
     44 O         -47.4503  -26.5585   17.2434 O.2       9 UNK        -0.5108 
     45 CA        -46.6890  -25.1766   15.4441 C.3       8 UNK         0.0248 
     46 CB        -45.8162  -26.0154   14.4967 C.3       8 UNK        -0.2001 
     47 N         -47.2757  -24.0633   14.6952 N.am      8 UNK        -0.4140 
     48 C         -47.9071  -23.0134   15.2430 C.2       8 UNK         0.5028 
     49 O         -48.0467  -22.8512   16.4558 O.2       8 UNK        -0.5428 
     50 CA        -48.4875  -21.9716   14.2742 C.3       7 UNK         0.0264 
     51 CB        -47.3984  -20.9941   13.8014 C.3       7 UNK        -0.1988 
     52 N         -49.0910  -22.6405   13.1206 N.am      7 UNK        -0.4454 
     53 C         -50.4048  -22.8747   12.9866 C.2       7 UNK         0.5027 
     54 O         -51.2584  -22.3641   13.7137 O.2       7 UNK        -0.5083 
     55 CA        -50.8645  -23.8227   11.8562 C.3       6 UNK         0.0844 
     56 C56       -51.8221  -23.0988   10.8756 C.3       14 UNK        -0.0967 
     57 S57       -52.3933  -24.1749    9.5168 S.3       14 UNK        -0.2604 
     58 C58       -53.5382  -25.2785   10.3984 C.3       14 UNK         0.0134 
     59 N         -49.7517  -24.4741   11.1591 N.am      6 UNK        -0.4116 
     60 C         -49.0929  -25.5526   11.6008 C.2       5 UNK         0.5034 
     61 O         -49.3362  -26.1236   12.6606 O.2       5 UNK        -0.5045 
     62 CA        -47.9251  -26.0486   10.7323 C.3       5 UNK         0.0224 
     63 CB        -48.4358  -27.0591    9.6965 C.3       5 UNK        -0.1978 
     64 N         -47.1851  -24.9768   10.0525 N.am      5 UNK        -0.4737 
     65 C         -46.6118  -23.9303   10.6662 C.2       4 UNK         0.5027 
     66 O         -46.6641  -23.7615   11.8860 O.2       4 UNK        -0.5211 
     67 CA        -45.9370  -22.8598    9.7859 C.3       4 UNK         0.0297 
     68 CB        -44.7051  -22.2315   10.4722 C.3       4 UNK        -0.1993 
     69 N         -45.6239  -23.3000    8.4186 N.am      4 UNK        -0.4486 
     70 C         -44.7274  -24.2250    8.0446 C.2       3 UNK         0.4961 
     71 O         -44.0310  -24.8709    8.8292 O.2       3 UNK        -0.5105 
     72 CA        -44.6065  -24.4570    6.5249 C.3       3 UNK         0.0299 
     73 CB        -43.6833  -25.6432    6.1702 C.3       3 UNK        -0.1972 
     74 N         -45.9064  -24.5941    5.8494 N.am      3 UNK        -0.4305 
     75 C         -46.8386  -25.5296    6.0858 C.2       2 UNK         0.5006 
     76 O         -46.7616  -26.3666    6.9878 O.2       2 UNK        -0.5106 
     77 CA        -48.0528  -25.5462    5.1442 C.3       2 UNK         0.0296 
     78 CB        -47.6105  -25.7424    3.6758 C.3       2 UNK        -0.2002 
     79 N         -48.9348  -26.6366    5.5590 N.am      2 UNK        -0.4032 
     80 C         -50.1673  -26.8969    5.1039 C.2       1 UNK         0.5000 
     81 O         -50.7583  -26.1626    4.3093 O.2       1 UNK        -0.5238 
     82 H82       -48.2648  -29.4176    5.0954 H         1 UNK         0.0889 
     83 H83       -49.2816  -30.8631    5.2419 H         1 UNK         0.0889 
     84 H84       -47.7348  -30.7743    6.0778 H         1 UNK         0.0889 
     85 H85       -50.7341  -28.3476    7.6801 H         1 UNK         0.3028 
     86 H86       -50.6410  -28.9270    4.7938 H         1 UNK         0.0864 
     87 H87       -52.7912  -27.7507    4.6858 H         1 UNK         0.0720 
     88 H88       -52.6820  -27.3187    6.3708 H         1 UNK         0.0720 
     89 H89       -54.8479  -30.1568    7.7008 H         1 UNK         0.0814 
     90 H90       -55.0957  -28.5832    6.9896 H         1 UNK         0.0814 
     91 H91       -54.5734  -26.7146    8.3432 H         1 UNK         0.1469 
     92 H92       -51.8813  -27.0451   11.6623 H         1 UNK         0.1381 
     93 H93       -52.5122  -30.4042    9.0685 H         1 UNK         0.1206 
     94 H94       -50.5876  -29.0109   12.0105 H         1 UNK         0.0813 
     95 H95       -50.2514  -29.8863   10.5425 H         1 UNK         0.0813 
     96 H96       -52.3213  -29.5136   13.6338 H         1 UNK         0.0638 
     97 H97       -52.0339  -31.0968   14.3048 H         1 UNK         0.0638 
     98 H98       -54.1762  -31.8867   13.1366 H         1 UNK         0.0568 
     99 H99       -56.1213  -30.0939   16.0824 H         1 UNK         0.3450 
    100 H100      -56.1593  -29.4773   14.4495 H         1 UNK         0.3450 
    101 H101      -54.3773  -29.0408   12.4372 H         1 UNK         0.2987 
    102 H102      -56.0014  -29.2141   10.0276 H         1 UNK         0.0766 
    103 H103      -58.1637  -30.3797   10.2045 H         1 UNK         0.0798 
    104 H104      -58.4405  -28.6489   10.1249 H         1 UNK         0.0798 
    105 H105      -58.5726  -29.4946   11.6665 H         1 UNK         0.0798 
    106 H106      -55.7747  -27.2171   10.9428 H         1 UNK         0.3198 
    107 H107      -55.5485  -25.5969   12.3488 H         1 UNK         0.0843 
    108 H108      -58.1167  -25.3674   14.0022 H         1 UNK         0.0831 
    109 H109      -57.9887  -25.0585   12.2770 H         1 UNK         0.0831 
    110 H110      -57.1381  -24.0230   13.4109 H         1 UNK         0.0831 
    111 H111      -55.8841  -25.3830   15.1307 H         1 UNK         0.3133 
    112 H112      -53.7919  -25.3745   16.3322 H         1 UNK         0.0566 
    113 H113      -54.3678  -26.9695   18.1324 H         1 UNK         0.0814 
    114 H114      -54.6711  -28.2476   16.9600 H         1 UNK         0.0814 
    115 H115      -55.7276  -26.8460   17.0327 H         1 UNK         0.0814 
    116 H116      -52.3208  -27.8265   16.7144 H         1 UNK         0.3091 
    117 H117      -49.9131  -27.2241   17.0810 H         1 UNK         0.0702 
    118 H118      -49.0106  -28.9593   15.4764 H         1 UNK         0.0785 
    119 H119      -50.0961  -28.3555   14.2281 H         1 UNK         0.0785 
    120 H120      -50.7461  -29.1166   15.6751 H         1 UNK         0.0785 
    121 H121      -49.0494  -25.8452   14.6049 H         1 UNK         0.2998 
    122 H122      -46.0426  -24.7522   16.2153 H         1 UNK         0.0697 
    123 H123      -46.4088  -26.4692   13.7018 H         1 UNK         0.0825 
    124 H124      -45.3203  -26.8237   15.0359 H         1 UNK         0.0825 
    125 H125      -45.0383  -25.4101   14.0306 H         1 UNK         0.0825 
    126 H126      -47.1376  -24.0740   13.6882 H         1 UNK         0.3029 
    127 H127      -49.2401  -21.3952   14.8170 H         1 UNK         0.0897 
    128 H128      -46.5805  -21.5053   13.2942 H         1 UNK         0.0792 
    129 H129      -46.9686  -20.4556   14.6471 H         1 UNK         0.0792 
    130 H130      -47.8049  -20.2502   13.1162 H         1 UNK         0.0792 
    131 H131      -48.4452  -23.0884   12.4798 H         1 UNK         0.3086 
    132 H132      -51.4357  -24.6055   12.3584 H         1 UNK         0.0583 
    133 H133      -52.6966  -22.7120   11.4030 H         1 UNK         0.1020 
    134 H134      -51.3301  -22.2309   10.4324 H         1 UNK         0.1020 
    135 H135      -53.4548  -25.1420   11.4766 H         1 UNK         0.0694 
    136 H136      -54.5610  -25.0069   10.1335 H         1 UNK         0.0694 
    137 H137      -49.4905  -24.0828   10.2665 H         1 UNK         0.2989 
    138 H138      -47.2251  -26.5613   11.3947 H         1 UNK         0.1055 
    139 H139      -49.0684  -26.5876    8.9436 H         1 UNK         0.0806 
    140 H140      -49.0248  -27.8428   10.1718 H         1 UNK         0.0806 
    141 H141      -47.6100  -27.5533    9.1852 H         1 UNK         0.0806 
    142 H142      -47.0612  -25.0753    9.0534 H         1 UNK         0.3061 
    143 H143      -46.6796  -22.0681    9.6761 H         1 UNK         0.0734 
    144 H144      -43.9458  -22.9781   10.7065 H         1 UNK         0.0832 
    145 H145      -44.2450  -21.4687    9.8444 H         1 UNK         0.0832 
    146 H146      -44.9814  -21.7503   11.4108 H         1 UNK         0.0832 
    147 H147      -46.1490  -22.8428    7.6854 H         1 UNK         0.3156 
    148 H148      -44.1448  -23.5553    6.1194 H         1 UNK         0.0589 
    149 H149      -43.5859  -25.7619    5.0911 H         1 UNK         0.0808 
    150 H150      -42.6799  -25.4912    6.5700 H         1 UNK         0.0808 
    151 H151      -44.0560  -26.5833    6.5787 H         1 UNK         0.0808 
    152 H152      -46.0744  -23.9383    5.0985 H         1 UNK         0.3098 
    153 H153      -48.5861  -24.5998    5.2517 H         1 UNK         0.0720 
    154 H154      -47.0643  -26.6775    3.5444 H         1 UNK         0.0791 
    155 H155      -46.9602  -24.9347    3.3392 H         1 UNK         0.0791 
    156 H156      -48.4611  -25.7575    2.9947 H         1 UNK         0.0791 
    157 H157      -48.5250  -27.2322    6.2693 H         1 UNK         0.3028 
@<TRIPOS>BOND
     1    1    2 1    
     2    1   82 1    
     3    1   83 1    
     4    1   84 1    
     5    2    3 2    
     6    2    4 am   BACKBONE|DICT|INTERRES
     7    4    5 1    
     8    4   85 1    
     9    5    6 1    
    10    5   80 1    
    11    5   86 1    
    12    6    7 1    
    13    6   87 1    
    14    6   88 1    
    15    7    8 1    
    16    8    9 1    
    17    8   89 1    
    18    8   90 1    
    19    9   10 ar   
    20    9   14 ar   
    21   10   11 ar   
    22   10   91 1    
    23   11   12 ar   
    24   11   58 1    
    25   12   13 ar   
    26   12   92 1    
    27   13   14 ar   
    28   13   15 1    
    29   14   93 1    
    30   15   16 1    
    31   15   94 1    
    32   15   95 1    
    33   16   17 1    
    34   17   18 1    
    35   17   96 1    
    36   17   97 1    
    37   18   19 1    
    38   18   22 1    
    39   18   98 1    
    40   19   20 am   BACKBONE|DICT|INTERRES
    41   19   21 2    
    42   20   99 1    
    43   20  100 1    
    44   22   23 am   BACKBONE|DICT|INTERRES
    45   22  101 1    
    46   23   24 2    
    47   23   25 1    
    48   25   26 1    
    49   25   27 1    
    50   25  102 1    
    51   26  103 1    
    52   26  104 1    
    53   26  105 1    
    54   27   28 am   BACKBONE|DICT|INTERRES
    55   27  106 1    
    56   28   29 2    
    57   28   30 1    
    58   30   31 1    
    59   30   32 1    
    60   30  107 1    
    61   31  108 1    
    62   31  109 1    
    63   31  110 1    
    64   32   33 am   BACKBONE|DICT|INTERRES
    65   32  111 1    
    66   33   34 2    
    67   33   35 1    
    68   35   36 1    
    69   35   37 1    
    70   35  112 1    
    71   36  113 1    
    72   36  114 1    
    73   36  115 1    
    74   37   38 am   BACKBONE|DICT|INTERRES
    75   37  116 1    
    76   38   39 2    
    77   38   40 1    
    78   40   41 1    
    79   40   42 1    
    80   40  117 1    
    81   41  118 1    
    82   41  119 1    
    83   41  120 1    
    84   42   43 am   BACKBONE|DICT|INTERRES
    85   42  121 1    
    86   43   44 2    
    87   43   45 1    
    88   45   46 1    
    89   45   47 1    
    90   45  122 1    
    91   46  123 1    
    92   46  124 1    
    93   46  125 1    
    94   47   48 am   BACKBONE|DICT|INTERRES
    95   47  126 1    
    96   48   49 2    
    97   48   50 1    
    98   50   51 1    
    99   50   52 1    
   100   50  127 1    
   101   51  128 1    
   102   51  129 1    
   103   51  130 1    
   104   52   53 am   BACKBONE|DICT|INTERRES
   105   52  131 1    
   106   53   54 2    
   107   53   55 1    
   108   55   56 1    
   109   55   59 1    
   110   55  132 1    
   111   56   57 1    
   112   56  133 1    
   113   56  134 1    
   114   57   58 1    
   115   58  135 1    
   116   58  136 1    
   117   59   60 am   BACKBONE|DICT|INTERRES
   118   59  137 1    
   119   60   61 2    
   120   60   62 1    
   121   62   63 1    
   122   62   64 1    
   123   62  138 1    
   124   63  139 1    
   125   63  140 1    
   126   63  141 1    
   127   64   65 am   BACKBONE|DICT|INTERRES
   128   64  142 1    
   129   65   66 2    
   130   65   67 1    
   131   67   68 1    
   132   67   69 1    
   133   67  143 1    
   134   68  144 1    
   135   68  145 1    
   136   68  146 1    
   137   69   70 am   BACKBONE|DICT|INTERRES
   138   69  147 1    
   139   70   71 2    
   140   70   72 1    
   141   72   73 1    
   142   72   74 1    
   143   72  148 1    
   144   73  149 1    
   145   73  150 1    
   146   73  151 1    
   147   74   75 am   BACKBONE|DICT|INTERRES
   148   74  152 1    
   149   75   76 2    
   150   75   77 1    
   151   77   78 1    
   152   77   79 1    
   153   77  153 1    
   154   78  154 1    
   155   78  155 1    
   156   78  156 1    
   157   79   80 am   BACKBONE|DICT|INTERRES
   158   79  157 1    
   159   80   81 2    
@<TRIPOS>SUBSTRUCTURE
     1 UNK         1 GROUP             0       ****    0 ROOT    
