@<TRIPOS>MOLECULE
3R207
157   159    1
SMALL
USER_CHARGES


@<TRIPOS>ATOM
      1 CA        -46.0152  -30.8322    7.6968 C.3       0 UNK        -0.1975 
      2 C         -47.0365  -29.8091    7.2236 C.2       0 UNK         0.4852 
      3 O         -46.7478  -29.0341    6.3102 O.2       0 UNK        -0.5216 
      4 N         -48.2244  -29.8061    7.8438 N.am      1 UNK        -0.4461 
      5 CA        -49.3625  -28.9190    7.5748 C.3       1 UNK         0.0864 
      6 C6        -50.5297  -29.2159    8.5458 C.3       14 UNK        -0.0898 
      7 S7        -51.3759  -30.7924    8.1917 S.3       14 UNK        -0.2598 
      8 C8        -52.4391  -30.3723    6.7679 C.3       14 UNK         0.0286 
      9 C9        -53.3045  -29.1455    7.0204 C.ar      14 UNK        -0.0844 
     10 C10       -52.9337  -27.9079    6.4868 C.ar      14 UNK        -0.0881 
     11 C11       -53.7032  -26.7702    6.7339 C.ar      14 UNK        -0.0643 
     12 C12       -54.8622  -26.8807    7.5075 C.ar      14 UNK        -0.0930 
     13 C13       -55.2587  -28.1138    8.0367 C.ar      14 UNK        -0.0827 
     14 C14       -54.4711  -29.2456    7.7846 C.ar      14 UNK        -0.1249 
     15 C15       -56.5713  -28.1767    8.8194 C.3       14 UNK         0.0141 
     16 S16       -56.7707  -29.5938    9.9575 S.3       14 UNK        -0.2313 
     17 C17       -55.5335  -29.2804   11.2675 C.3       14 UNK        -0.0915 
     18 CA        -55.6055  -27.9135   12.0105 C.3       13 UNK         0.0968 
     19 C         -57.0370  -27.5064   12.4746 C.2       13 UNK         0.5732 
     20 N         -57.5324  -28.0069   13.5969 N.am      13 UNK        -0.7310 
     21 O         -57.6941  -26.7013   11.8197 O.2       13 UNK        -0.5035 
     22 N         -54.5708  -27.8050   13.0543 N.am      13 UNK        -0.4233 
     23 C         -54.4705  -28.4883   14.2036 C.2       13 UNK         0.4989 
     24 O         -55.2633  -29.3646   14.5569 O.2       13 UNK        -0.4996 
     25 CA        -53.2921  -28.1079   15.1217 C.3       12 UNK         0.0216 
     26 CB        -53.1438  -29.0406   16.3425 C.3       12 UNK        -0.1964 
     27 N         -52.0151  -27.9891   14.4125 N.am      12 UNK        -0.4276 
     28 C         -51.3865  -28.9298   13.6904 C.2       12 UNK         0.5020 
     29 O         -51.8209  -30.0653   13.4934 O.2       12 UNK        -0.5489 
     30 CA        -50.0201  -28.5362   13.1038 C.3       11 UNK         0.0294 
     31 CB        -50.2067  -27.6752   11.8494 C.3       11 UNK        -0.2019 
     32 N         -49.1871  -27.8112   14.0656 N.am      11 UNK        -0.4493 
     33 C         -48.6277  -28.3639   15.1523 C.2       11 UNK         0.4932 
     34 O         -48.6375  -29.5702   15.3963 O.2       11 UNK        -0.5029 
     35 CA        -48.0215  -27.3959   16.1729 C.3       10 UNK         0.0280 
     36 CB        -46.8016  -26.6391   15.6194 C.3       10 UNK        -0.1976 
     37 N         -49.0700  -26.4639   16.5684 N.am      10 UNK        -0.4242 
     38 C         -49.3313  -26.0184   17.7972 C.2       10 UNK         0.5072 
     39 O         -48.6051  -26.2307   18.7704 O.2       10 UNK        -0.5224 
     40 CA        -50.6436  -25.2164   17.9590 C.3       9 UNK         0.0343 
     41 CB        -50.7958  -24.6114   19.3675 C.3       9 UNK        -0.2003 
     42 N         -50.8266  -24.1494   16.9656 N.am      9 UNK        -0.4272 
     43 C         -51.1059  -24.3073   15.6646 C.2       9 UNK         0.4988 
     44 O         -51.1650  -25.4047   15.1014 O.2       9 UNK        -0.5108 
     45 CA        -51.2795  -23.0173   14.8481 C.3       8 UNK         0.0248 
     46 CB        -49.9133  -22.5587   14.3217 C.3       8 UNK        -0.2001 
     47 N         -52.1918  -23.1918   13.7152 N.am      8 UNK        -0.4140 
     48 C         -53.4969  -23.4867   13.8179 C.2       8 UNK         0.5028 
     49 O         -54.0930  -23.5789   14.8924 O.2       8 UNK        -0.5428 
     50 CA        -54.2908  -23.6973   12.5140 C.3       7 UNK         0.0264 
     51 CB        -55.2148  -22.4986   12.2435 C.3       7 UNK        -0.1988 
     52 N         -53.4493  -23.9213   11.3361 N.am      7 UNK        -0.4454 
     53 C         -52.7674  -25.0484   11.0886 C.2       7 UNK         0.5027 
     54 O         -52.8100  -26.0261   11.8323 O.2       7 UNK        -0.5083 
     55 CA        -51.9284  -25.1077    9.7893 C.3       6 UNK         0.0844 
     56 C56       -52.5851  -24.2949    8.6372 C.3       14 UNK        -0.0967 
     57 S57       -51.8681  -24.7005    7.0119 S.3       14 UNK        -0.2604 
     58 C58       -53.2910  -25.4303    6.1409 C.3       14 UNK         0.0134 
     59 N         -50.5113  -24.7518    9.9888 N.am      6 UNK        -0.4116 
     60 C         -50.0391  -23.6111   10.5168 C.2       5 UNK         0.5034 
     61 O         -50.7487  -22.7777   11.0840 O.2       5 UNK        -0.5045 
     62 CA        -48.5428  -23.2981   10.3063 C.3       5 UNK         0.0224 
     63 CB        -48.0015  -22.1814   11.2250 C.3       5 UNK        -0.1978 
     64 N         -47.6353  -24.4482   10.3169 N.am      5 UNK        -0.4737 
     65 C         -47.3773  -25.3011   11.3212 C.2       4 UNK         0.5027 
     66 O         -47.9838  -25.3051   12.3928 O.2       4 UNK        -0.5211 
     67 CA        -46.2109  -26.2881   11.0949 C.3       4 UNK         0.0297 
     68 CB        -46.4493  -27.6826   11.6994 C.3       4 UNK        -0.1993 
     69 N         -45.9104  -26.4358    9.6700 N.am      4 UNK        -0.4486 
     70 C         -44.7645  -26.0813    9.0718 C.2       3 UNK         0.4961 
     71 O         -43.7722  -25.6754    9.6768 O.2       3 UNK        -0.5105 
     72 CA        -44.7139  -26.1675    7.5328 C.3       3 UNK         0.0299 
     73 CB        -43.8878  -27.3828    7.0835 C.3       3 UNK        -0.1972 
     74 N         -46.0399  -26.2124    6.9052 N.am      3 UNK        -0.4305 
     75 C         -46.8987  -25.1803    6.8895 C.2       2 UNK         0.5006 
     76 O         -46.6391  -24.0743    7.3635 O.2       2 UNK        -0.5106 
     77 CA        -48.3057  -25.4279    6.3199 C.3       2 UNK         0.0296 
     78 CB        -48.3741  -25.0225    4.8397 C.3       2 UNK        -0.2002 
     79 N         -48.7719  -26.8086    6.4708 N.am      2 UNK        -0.4032 
     80 C         -48.9623  -27.4307    7.6429 C.2       1 UNK         0.5000 
     81 O         -48.7942  -26.8894    8.7381 O.2       1 UNK        -0.5238 
     82 H82       -45.2870  -30.3617    8.3563 H         1 UNK         0.0889 
     83 H83       -45.4830  -31.2555    6.8453 H         1 UNK         0.0889 
     84 H84       -46.4869  -31.6517    8.2387 H         1 UNK         0.0889 
     85 H85       -48.3837  -30.4770    8.5816 H         1 UNK         0.3028 
     86 H86       -49.6998  -29.1237    6.5573 H         1 UNK         0.0864 
     87 H87       -50.1485  -29.2823    9.5641 H         1 UNK         0.0720 
     88 H88       -51.2628  -28.4092    8.5671 H         1 UNK         0.0720 
     89 H89       -53.0783  -31.2273    6.5433 H         1 UNK         0.0814 
     90 H90       -51.8154  -30.2259    5.8850 H         1 UNK         0.0814 
     91 H91       -52.0377  -27.8224    5.8879 H         1 UNK         0.1469 
     92 H92       -55.4700  -26.0037    7.6839 H         1 UNK         0.1381 
     93 H93       -54.7580  -30.2111    8.1764 H         1 UNK         0.1206 
     94 H94       -57.3850  -28.2205    8.0947 H         1 UNK         0.0813 
     95 H95       -56.7192  -27.2501    9.3738 H         1 UNK         0.0813 
     96 H96       -54.5428  -29.3986   10.8256 H         1 UNK         0.0638 
     97 H97       -55.6328  -30.0954   11.9853 H         1 UNK         0.0638 
     98 H98       -55.3147  -27.1557   11.2825 H         1 UNK         0.0568 
     99 H99       -58.4530  -27.7428   13.9085 H         1 UNK         0.3450 
    100 H100      -56.9629  -28.6515   14.1362 H         1 UNK         0.3450 
    101 H101      -53.8420  -27.1276   12.8361 H         1 UNK         0.2987 
    102 H102      -53.5180  -27.1094   15.4996 H         1 UNK         0.0766 
    103 H103      -54.0531  -29.0459   16.9448 H         1 UNK         0.0798 
    104 H104      -52.3285  -28.7179   16.9902 H         1 UNK         0.0798 
    105 H105      -52.9457  -30.0700   16.0419 H         1 UNK         0.0798 
    106 H106      -51.5872  -27.0662   14.4736 H         1 UNK         0.3198 
    107 H107      -49.5068  -29.4564   12.8163 H         1 UNK         0.0843 
    108 H108      -50.3746  -26.6315   12.1104 H         1 UNK         0.0831 
    109 H109      -51.0597  -28.0067   11.2561 H         1 UNK         0.0831 
    110 H110      -49.3337  -27.7080   11.2048 H         1 UNK         0.0831 
    111 H111      -49.0694  -26.8194   13.8968 H         1 UNK         0.3133 
    112 H112      -47.7050  -27.9824   17.0382 H         1 UNK         0.0566 
    113 H113      -46.3373  -26.0284   16.3937 H         1 UNK         0.0814 
    114 H114      -47.0683  -25.9781   14.7950 H         1 UNK         0.0814 
    115 H115      -46.0431  -27.3329   15.2548 H         1 UNK         0.0814 
    116 H116      -49.7609  -26.2319   15.8576 H         1 UNK         0.3091 
    117 H117      -51.4566  -25.9331   17.8234 H         1 UNK         0.0702 
    118 H118      -51.7578  -24.1118   19.4840 H         1 UNK         0.0785 
    119 H119      -50.0105  -23.8850   19.5806 H         1 UNK         0.0785 
    120 H120      -50.7430  -25.3845   20.1354 H         1 UNK         0.0785 
    121 H121      -50.7440  -23.2071   17.3198 H         1 UNK         0.2998 
    122 H122      -51.6932  -22.2400   15.4935 H         1 UNK         0.0697 
    123 H123      -49.9989  -21.6594   13.7114 H         1 UNK         0.0825 
    124 H124      -49.4509  -23.3375   13.7141 H         1 UNK         0.0825 
    125 H125      -49.2277  -22.3341   15.1396 H         1 UNK         0.0825 
    126 H126      -51.7792  -23.1354   12.7894 H         1 UNK         0.3029 
    127 H127      -54.9159  -24.5813   12.6596 H         1 UNK         0.0897 
    128 H128      -54.6484  -21.5808   12.0802 H         1 UNK         0.0792 
    129 H129      -55.8836  -22.3228   13.0874 H         1 UNK         0.0792 
    130 H130      -55.8412  -22.6695   11.3678 H         1 UNK         0.0792 
    131 H131      -53.3185  -23.1334   10.7179 H         1 UNK         0.3086 
    132 H132      -51.9304  -26.1575    9.4912 H         1 UNK         0.0583 
    133 H133      -53.6611  -24.4727    8.5984 H         1 UNK         0.1020 
    134 H134      -52.4645  -23.2219    8.7953 H         1 UNK         0.1020 
    135 H135      -54.1239  -24.7254    6.1506 H         1 UNK         0.0694 
    136 H136      -53.0244  -25.5690    5.0922 H         1 UNK         0.0694 
    137 H137      -49.8416  -25.4039    9.5909 H         1 UNK         0.2989 
    138 H138      -48.4966  -22.9080    9.2881 H         1 UNK         0.1055 
    139 H139      -47.9056  -22.5126   12.2574 H         1 UNK         0.0806 
    140 H140      -48.6477  -21.3028   11.2177 H         1 UNK         0.0806 
    141 H141      -47.0161  -21.8517   10.8961 H         1 UNK         0.0806 
    142 H142      -47.0805  -24.5480    9.4755 H         1 UNK         0.3061 
    143 H143      -45.3597  -25.8478   11.6177 H         1 UNK         0.0734 
    144 H144      -47.2020  -28.2438   11.1484 H         1 UNK         0.0832 
    145 H145      -45.5322  -28.2711   11.6843 H         1 UNK         0.0832 
    146 H146      -46.7672  -27.6194   12.7387 H         1 UNK         0.0832 
    147 H147      -46.6926  -26.7329    9.0966 H         1 UNK         0.3156 
    148 H148      -44.2074  -25.2685    7.1749 H         1 UNK         0.0589 
    149 H149      -44.3128  -28.3173    7.4471 H         1 UNK         0.0808 
    150 H150      -42.8675  -27.3218    7.4647 H         1 UNK         0.0808 
    151 H151      -43.8243  -27.4425    5.9969 H         1 UNK         0.0808 
    152 H152      -46.3345  -27.1088    6.5248 H         1 UNK         0.3098 
    153 H153      -48.9864  -24.7860    6.8810 H         1 UNK         0.0720 
    154 H154      -49.3929  -25.0931    4.4577 H         1 UNK         0.0791 
    155 H155      -47.7349  -25.6507    4.2180 H         1 UNK         0.0791 
    156 H156      -48.0505  -23.9896    4.7028 H         1 UNK         0.0791 
    157 H157      -48.8764  -27.3409    5.6189 H         1 UNK         0.3028 
@<TRIPOS>BOND
     1    1    2 1    
     2    1   82 1    
     3    1   83 1    
     4    1   84 1    
     5    2    3 2    
     6    2    4 am   BACKBONE|DICT|INTERRES
     7    4    5 1    
     8    4   85 1    
     9    5    6 1    
    10    5   80 1    
    11    5   86 1    
    12    6    7 1    
    13    6   87 1    
    14    6   88 1    
    15    7    8 1    
    16    8    9 1    
    17    8   89 1    
    18    8   90 1    
    19    9   10 ar   
    20    9   14 ar   
    21   10   11 ar   
    22   10   91 1    
    23   11   12 ar   
    24   11   58 1    
    25   12   13 ar   
    26   12   92 1    
    27   13   14 ar   
    28   13   15 1    
    29   14   93 1    
    30   15   16 1    
    31   15   94 1    
    32   15   95 1    
    33   16   17 1    
    34   17   18 1    
    35   17   96 1    
    36   17   97 1    
    37   18   19 1    
    38   18   22 1    
    39   18   98 1    
    40   19   20 am   BACKBONE|DICT|INTERRES
    41   19   21 2    
    42   20   99 1    
    43   20  100 1    
    44   22   23 am   BACKBONE|DICT|INTERRES
    45   22  101 1    
    46   23   24 2    
    47   23   25 1    
    48   25   26 1    
    49   25   27 1    
    50   25  102 1    
    51   26  103 1    
    52   26  104 1    
    53   26  105 1    
    54   27   28 am   BACKBONE|DICT|INTERRES
    55   27  106 1    
    56   28   29 2    
    57   28   30 1    
    58   30   31 1    
    59   30   32 1    
    60   30  107 1    
    61   31  108 1    
    62   31  109 1    
    63   31  110 1    
    64   32   33 am   BACKBONE|DICT|INTERRES
    65   32  111 1    
    66   33   34 2    
    67   33   35 1    
    68   35   36 1    
    69   35   37 1    
    70   35  112 1    
    71   36  113 1    
    72   36  114 1    
    73   36  115 1    
    74   37   38 am   BACKBONE|DICT|INTERRES
    75   37  116 1    
    76   38   39 2    
    77   38   40 1    
    78   40   41 1    
    79   40   42 1    
    80   40  117 1    
    81   41  118 1    
    82   41  119 1    
    83   41  120 1    
    84   42   43 am   BACKBONE|DICT|INTERRES
    85   42  121 1    
    86   43   44 2    
    87   43   45 1    
    88   45   46 1    
    89   45   47 1    
    90   45  122 1    
    91   46  123 1    
    92   46  124 1    
    93   46  125 1    
    94   47   48 am   BACKBONE|DICT|INTERRES
    95   47  126 1    
    96   48   49 2    
    97   48   50 1    
    98   50   51 1    
    99   50   52 1    
   100   50  127 1    
   101   51  128 1    
   102   51  129 1    
   103   51  130 1    
   104   52   53 am   BACKBONE|DICT|INTERRES
   105   52  131 1    
   106   53   54 2    
   107   53   55 1    
   108   55   56 1    
   109   55   59 1    
   110   55  132 1    
   111   56   57 1    
   112   56  133 1    
   113   56  134 1    
   114   57   58 1    
   115   58  135 1    
   116   58  136 1    
   117   59   60 am   BACKBONE|DICT|INTERRES
   118   59  137 1    
   119   60   61 2    
   120   60   62 1    
   121   62   63 1    
   122   62   64 1    
   123   62  138 1    
   124   63  139 1    
   125   63  140 1    
   126   63  141 1    
   127   64   65 am   BACKBONE|DICT|INTERRES
   128   64  142 1    
   129   65   66 2    
   130   65   67 1    
   131   67   68 1    
   132   67   69 1    
   133   67  143 1    
   134   68  144 1    
   135   68  145 1    
   136   68  146 1    
   137   69   70 am   BACKBONE|DICT|INTERRES
   138   69  147 1    
   139   70   71 2    
   140   70   72 1    
   141   72   73 1    
   142   72   74 1    
   143   72  148 1    
   144   73  149 1    
   145   73  150 1    
   146   73  151 1    
   147   74   75 am   BACKBONE|DICT|INTERRES
   148   74  152 1    
   149   75   76 2    
   150   75   77 1    
   151   77   78 1    
   152   77   79 1    
   153   77  153 1    
   154   78  154 1    
   155   78  155 1    
   156   78  156 1    
   157   79   80 am   BACKBONE|DICT|INTERRES
   158   79  157 1    
   159   80   81 2    
@<TRIPOS>SUBSTRUCTURE
     1 UNK         1 GROUP             0       ****    0 ROOT    
