@<TRIPOS>MOLECULE
3R207
157   159    1
SMALL
USER_CHARGES


@<TRIPOS>ATOM
      1 CA        -49.6379  -27.0051    0.5414 C.3       0 UNK        -0.1975 
      2 C         -50.1945  -26.6736    1.9180 C.2       0 UNK         0.4852 
      3 O         -50.8452  -25.6412    2.0826 O.2       0 UNK        -0.5216 
      4 N         -49.9427  -27.5403    2.9085 N.am      1 UNK        -0.4461 
      5 CA        -50.4113  -27.3915    4.2925 C.3       1 UNK         0.0864 
      6 C6        -50.2919  -28.7176    5.0860 C.3       14 UNK        -0.0898 
      7 S7        -51.3774  -30.0413    4.4574 S.3       14 UNK        -0.2598 
      8 C8        -53.0384  -29.4729    4.9595 C.3       14 UNK         0.0286 
      9 C9        -53.1399  -29.1587    6.4470 C.ar      14 UNK        -0.0844 
     10 C10       -53.0915  -27.8331    6.8905 C.ar      14 UNK        -0.0881 
     11 C11       -53.1948  -27.5221    8.2495 C.ar      14 UNK        -0.0643 
     12 C12       -53.3695  -28.5656    9.1689 C.ar      14 UNK        -0.0930 
     13 C13       -53.4257  -29.8951    8.7393 C.ar      14 UNK        -0.0827 
     14 C14       -53.3027  -30.1873    7.3780 C.ar      14 UNK        -0.1249 
     15 C15       -53.6348  -31.0122    9.7485 C.3       14 UNK         0.0141 
     16 S16       -55.3652  -31.5762    9.7344 S.3       14 UNK        -0.2313 
     17 C17       -55.5665  -32.1868   11.4415 C.3       14 UNK        -0.0915 
     18 CA        -56.4286  -31.2269   12.3047 C.3       13 UNK         0.0968 
     19 C         -56.7588  -31.8516   13.6918 C.2       13 UNK         0.5732 
     20 N         -56.4130  -31.2236   14.8096 N.am      13 UNK        -0.7310 
     21 O         -57.3531  -32.9253   13.7555 O.2       13 UNK        -0.5035 
     22 N         -55.8352  -29.8819   12.3708 N.am      13 UNK        -0.4233 
     23 C         -56.5078  -28.7425   12.5567 C.2       13 UNK         0.4989 
     24 O         -57.7304  -28.6827   12.6993 O.2       13 UNK        -0.4996 
     25 CA        -55.6541  -27.4606   12.6134 C.3       12 UNK         0.0216 
     26 CB        -56.5031  -26.1777   12.6758 C.3       12 UNK        -0.1964 
     27 N         -54.7296  -27.4699   13.7491 N.am      12 UNK        -0.4276 
     28 C         -53.6031  -28.1845   13.8476 C.2       12 UNK         0.5020 
     29 O         -53.1980  -28.9322   12.9546 O.2       12 UNK        -0.5489 
     30 CA        -52.8167  -28.0430   15.1666 C.3       11 UNK         0.0294 
     31 CB        -51.5931  -28.9752   15.2204 C.3       11 UNK        -0.2019 
     32 N         -52.3850  -26.6621   15.4070 N.am      11 UNK        -0.4493 
     33 C         -53.1772  -25.6657   15.8298 C.2       11 UNK         0.4932 
     34 O         -54.3776  -25.8195   16.0673 O.2       11 UNK        -0.5029 
     35 CA        -52.5418  -24.2694   15.9819 C.3       10 UNK         0.0280 
     36 CB        -53.3464  -23.3407   16.9168 C.3       10 UNK        -0.1976 
     37 N         -51.1250  -24.3075   16.3629 N.am      10 UNK        -0.4242 
     38 C         -50.5989  -24.7748   17.5056 C.2       10 UNK         0.5072 
     39 O         -51.2674  -25.2371   18.4315 O.2       10 UNK        -0.5224 
     40 CA        -49.0663  -24.7204   17.6565 C.3       9 UNK         0.0343 
     41 CB        -48.4655  -26.1302   17.8051 C.3       9 UNK        -0.2003 
     42 N         -48.3842  -24.0073   16.5677 N.am      9 UNK        -0.4272 
     43 C         -48.2095  -22.6780   16.5434 C.2       9 UNK         0.4988 
     44 O         -48.6805  -21.9108   17.3837 O.2       9 UNK        -0.5108 
     45 CA        -47.3440  -22.1075   15.4133 C.3       8 UNK         0.0248 
     46 CB        -45.8650  -22.4765   15.6231 C.3       8 UNK        -0.2001 
     47 N         -47.7827  -22.5542   14.0894 N.am      8 UNK        -0.4140 
     48 C         -48.6272  -21.8630   13.3112 C.2       8 UNK         0.5028 
     49 O         -49.2040  -20.8352   13.6699 O.2       8 UNK        -0.5428 
     50 CA        -48.8416  -22.3754   11.8759 C.3       7 UNK         0.0264 
     51 CB        -47.5863  -22.1459   11.0179 C.3       7 UNK        -0.1988 
     52 N         -49.2319  -23.7828   11.8016 N.am      7 UNK        -0.4454 
     53 C         -50.3982  -24.2737   12.2445 C.2       7 UNK         0.5027 
     54 O         -51.2582  -23.5923   12.8014 O.2       7 UNK        -0.5083 
     55 CA        -50.6315  -25.7874   12.0567 C.3       6 UNK         0.0844 
     56 C56       -51.1456  -26.1379   10.6394 C.3       14 UNK        -0.0967 
     57 S57       -52.9047  -25.7060   10.4315 S.3       14 UNK        -0.2604 
     58 C58       -53.1493  -26.0463    8.6551 C.3       14 UNK         0.0134 
     59 N         -49.4280  -26.5419   12.4086 N.am      6 UNK        -0.4116 
     60 C         -49.0102  -26.7198   13.6681 C.2       5 UNK         0.5034 
     61 O         -49.6382  -26.3296   14.6500 O.2       5 UNK        -0.5045 
     62 CA        -47.6593  -27.4239   13.8735 C.3       5 UNK         0.0224 
     63 CB        -47.8429  -28.9483   13.9240 C.3       5 UNK        -0.1978 
     64 N         -46.6770  -27.0788   12.8439 N.am      5 UNK        -0.4737 
     65 C         -46.1581  -25.8537   12.6820 C.2       4 UNK         0.5027 
     66 O         -46.4247  -24.8986   13.4092 O.2       4 UNK        -0.5211 
     67 CA        -45.2331  -25.6472   11.4724 C.3       4 UNK         0.0297 
     68 CB        -43.7852  -26.0112   11.8349 C.3       4 UNK        -0.1993 
     69 N         -45.6527  -26.4003   10.2851 N.am      4 UNK        -0.4486 
     70 C         -46.8302  -26.2527    9.6638 C.2       3 UNK         0.4961 
     71 O         -47.7199  -25.4853   10.0396 O.2       3 UNK        -0.5105 
     72 CA        -47.0848  -27.1593    8.4560 C.3       3 UNK         0.0299 
     73 CB        -48.1071  -28.2534    8.8071 C.3       3 UNK        -0.1972 
     74 N         -47.5936  -26.3754    7.3362 N.am      3 UNK        -0.4305 
     75 C         -46.8476  -25.6545    6.4907 C.2       2 UNK         0.5006 
     76 O         -45.6197  -25.5767    6.5648 O.2       2 UNK        -0.5106 
     77 CA        -47.6042  -24.9429    5.3474 C.3       2 UNK         0.0296 
     78 CB        -46.6587  -24.2770    4.3297 C.3       2 UNK        -0.2002 
     79 N         -48.4923  -25.8693    4.6358 N.am      2 UNK        -0.4032 
     80 C         -49.6961  -26.2687    5.0709 C.2       1 UNK         0.5000 
     81 O         -50.2185  -25.8268    6.0963 O.2       1 UNK        -0.5238 
     82 H82       -48.9643  -26.2157    0.2089 H         1 UNK         0.0889 
     83 H83       -50.4496  -27.0874   -0.1809 H         1 UNK         0.0889 
     84 H84       -49.0863  -27.9451    0.5395 H         1 UNK         0.0889 
     85 H85       -49.4267  -28.3864    2.7101 H         1 UNK         0.3028 
     86 H86       -51.4628  -27.1029    4.2538 H         1 UNK         0.0864 
     87 H87       -50.5082  -28.5744    6.1461 H         1 UNK         0.0720 
     88 H88       -49.2642  -29.0843    5.0524 H         1 UNK         0.0720 
     89 H89       -53.7626  -30.2480    4.7048 H         1 UNK         0.0814 
     90 H90       -53.3169  -28.6022    4.3644 H         1 UNK         0.0814 
     91 H91       -52.9703  -27.0326    6.1737 H         1 UNK         0.1469 
     92 H92       -53.4684  -28.3551   10.2237 H         1 UNK         0.1381 
     93 H93       -53.3483  -31.2145    7.0422 H         1 UNK         0.1206 
     94 H94       -52.9774  -31.8527    9.5214 H         1 UNK         0.0813 
     95 H95       -53.3598  -30.6673   10.7464 H         1 UNK         0.0813 
     96 H96       -54.5898  -32.3502   11.9004 H         1 UNK         0.0638 
     97 H97       -56.0378  -33.1691   11.3760 H         1 UNK         0.0638 
     98 H98       -57.3936  -31.1303   11.8033 H         1 UNK         0.0568 
     99 H99       -56.6404  -31.6400   15.6987 H         1 UNK         0.3450 
    100 H100      -55.9417  -30.3358   14.7712 H         1 UNK         0.3450 
    101 H101      -54.8216  -29.8273   12.3386 H         1 UNK         0.2987 
    102 H102      -55.0715  -27.4233   11.6918 H         1 UNK         0.0766 
    103 H103      -55.8748  -25.2873   12.6389 H         1 UNK         0.0798 
    104 H104      -57.0999  -26.1305   13.5876 H         1 UNK         0.0798 
    105 H105      -57.1900  -26.1220   11.8302 H         1 UNK         0.0798 
    106 H106      -54.9643  -26.8745   14.5391 H         1 UNK         0.3198 
    107 H107      -53.4872  -28.3380   15.9768 H         1 UNK         0.0843 
    108 H108      -50.9255  -28.8095   14.3757 H         1 UNK         0.0831 
    109 H109      -51.9014  -30.0208   15.1844 H         1 UNK         0.0831 
    110 H110      -51.0208  -28.8351   16.1376 H         1 UNK         0.0831 
    111 H111      -51.4076  -26.4551   15.2093 H         1 UNK         0.3133 
    112 H112      -52.5751  -23.8225   14.9894 H         1 UNK         0.0566 
    113 H113      -52.8798  -22.3590   16.9984 H         1 UNK         0.0814 
    114 H114      -54.3576  -23.1861   16.5384 H         1 UNK         0.0814 
    115 H115      -53.4375  -23.7546   17.9214 H         1 UNK         0.0814 
    116 H116      -50.4749  -23.9974   15.6543 H         1 UNK         0.3091 
    117 H117      -48.8684  -24.1914   18.5914 H         1 UNK         0.0702 
    118 H118      -47.3847  -26.0893   17.9408 H         1 UNK         0.0785 
    119 H119      -48.6725  -26.7624   16.9437 H         1 UNK         0.0785 
    120 H120      -48.8794  -26.6366   18.6780 H         1 UNK         0.0785 
    121 H121      -47.9927  -24.5702   15.8254 H         1 UNK         0.2998 
    122 H122      -47.4107  -21.0184   15.4665 H         1 UNK         0.0697 
    123 H123      -45.7028  -23.5547   15.6054 H         1 UNK         0.0825 
    124 H124      -45.5053  -22.1104   16.5856 H         1 UNK         0.0825 
    125 H125      -45.2343  -22.0333   14.8523 H         1 UNK         0.0825 
    126 H126      -47.3461  -23.4020   13.7269 H         1 UNK         0.3029 
    127 H127      -49.6535  -21.7895   11.4393 H         1 UNK         0.0897 
    128 H128      -47.7558  -22.4366    9.9808 H         1 UNK         0.0792 
    129 H129      -47.3007  -21.0931   11.0179 H         1 UNK         0.0792 
    130 H130      -46.7337  -22.7149   11.3882 H         1 UNK         0.0792 
    131 H131      -48.5967  -24.4076   11.3095 H         1 UNK         0.3086 
    132 H132      -51.4088  -26.0842   12.7643 H         1 UNK         0.0583 
    133 H133      -50.5465  -25.6563    9.8634 H         1 UNK         0.1020 
    134 H134      -51.0579  -27.2121   10.4697 H         1 UNK         0.1020 
    135 H135      -54.0901  -25.5848    8.3527 H         1 UNK         0.0694 
    136 H136      -52.3635  -25.5373    8.0941 H         1 UNK         0.0694 
    137 H137      -48.8267  -26.8262   11.6495 H         1 UNK         0.2989 
    138 H138      -47.2625  -27.0956   14.8368 H         1 UNK         0.1055 
    139 H139      -48.5189  -29.2316   14.7318 H         1 UNK         0.0806 
    140 H140      -46.8961  -29.4563   14.1082 H         1 UNK         0.0806 
    141 H141      -48.2599  -29.3399   12.9952 H         1 UNK         0.0806 
    142 H142      -46.3970  -27.8088   12.2049 H         1 UNK         0.3061 
    143 H143      -45.2612  -24.5870   11.2148 H         1 UNK         0.0734 
    144 H144      -43.1006  -25.7802   11.0185 H         1 UNK         0.0832 
    145 H145      -43.4487  -25.4461   12.7056 H         1 UNK         0.0832 
    146 H146      -43.6797  -27.0702   12.0740 H         1 UNK         0.0832 
    147 H147      -44.9854  -27.0581    9.9071 H         1 UNK         0.3156 
    148 H148      -46.1512  -27.6418    8.1581 H         1 UNK         0.0589 
    149 H149      -49.0768  -27.8327    9.0747 H         1 UNK         0.0808 
    150 H150      -47.7658  -28.8555    9.6502 H         1 UNK         0.0808 
    151 H151      -48.2618  -28.9323    7.9681 H         1 UNK         0.0808 
    152 H152      -48.6012  -26.3208    7.2312 H         1 UNK         0.3098 
    153 H153      -48.2065  -24.1546    5.8044 H         1 UNK         0.0720 
    154 H154      -46.0099  -25.0062    3.8428 H         1 UNK         0.0791 
    155 H155      -46.0165  -23.5410    4.8156 H         1 UNK         0.0791 
    156 H156      -47.2173  -23.7533    3.5536 H         1 UNK         0.0791 
    157 H157      -48.1197  -26.3063    3.8055 H         1 UNK         0.3028 
@<TRIPOS>BOND
     1    1    2 1    
     2    1   82 1    
     3    1   83 1    
     4    1   84 1    
     5    2    3 2    
     6    2    4 am   BACKBONE|DICT|INTERRES
     7    4    5 1    
     8    4   85 1    
     9    5    6 1    
    10    5   80 1    
    11    5   86 1    
    12    6    7 1    
    13    6   87 1    
    14    6   88 1    
    15    7    8 1    
    16    8    9 1    
    17    8   89 1    
    18    8   90 1    
    19    9   10 ar   
    20    9   14 ar   
    21   10   11 ar   
    22   10   91 1    
    23   11   12 ar   
    24   11   58 1    
    25   12   13 ar   
    26   12   92 1    
    27   13   14 ar   
    28   13   15 1    
    29   14   93 1    
    30   15   16 1    
    31   15   94 1    
    32   15   95 1    
    33   16   17 1    
    34   17   18 1    
    35   17   96 1    
    36   17   97 1    
    37   18   19 1    
    38   18   22 1    
    39   18   98 1    
    40   19   20 am   BACKBONE|DICT|INTERRES
    41   19   21 2    
    42   20   99 1    
    43   20  100 1    
    44   22   23 am   BACKBONE|DICT|INTERRES
    45   22  101 1    
    46   23   24 2    
    47   23   25 1    
    48   25   26 1    
    49   25   27 1    
    50   25  102 1    
    51   26  103 1    
    52   26  104 1    
    53   26  105 1    
    54   27   28 am   BACKBONE|DICT|INTERRES
    55   27  106 1    
    56   28   29 2    
    57   28   30 1    
    58   30   31 1    
    59   30   32 1    
    60   30  107 1    
    61   31  108 1    
    62   31  109 1    
    63   31  110 1    
    64   32   33 am   BACKBONE|DICT|INTERRES
    65   32  111 1    
    66   33   34 2    
    67   33   35 1    
    68   35   36 1    
    69   35   37 1    
    70   35  112 1    
    71   36  113 1    
    72   36  114 1    
    73   36  115 1    
    74   37   38 am   BACKBONE|DICT|INTERRES
    75   37  116 1    
    76   38   39 2    
    77   38   40 1    
    78   40   41 1    
    79   40   42 1    
    80   40  117 1    
    81   41  118 1    
    82   41  119 1    
    83   41  120 1    
    84   42   43 am   BACKBONE|DICT|INTERRES
    85   42  121 1    
    86   43   44 2    
    87   43   45 1    
    88   45   46 1    
    89   45   47 1    
    90   45  122 1    
    91   46  123 1    
    92   46  124 1    
    93   46  125 1    
    94   47   48 am   BACKBONE|DICT|INTERRES
    95   47  126 1    
    96   48   49 2    
    97   48   50 1    
    98   50   51 1    
    99   50   52 1    
   100   50  127 1    
   101   51  128 1    
   102   51  129 1    
   103   51  130 1    
   104   52   53 am   BACKBONE|DICT|INTERRES
   105   52  131 1    
   106   53   54 2    
   107   53   55 1    
   108   55   56 1    
   109   55   59 1    
   110   55  132 1    
   111   56   57 1    
   112   56  133 1    
   113   56  134 1    
   114   57   58 1    
   115   58  135 1    
   116   58  136 1    
   117   59   60 am   BACKBONE|DICT|INTERRES
   118   59  137 1    
   119   60   61 2    
   120   60   62 1    
   121   62   63 1    
   122   62   64 1    
   123   62  138 1    
   124   63  139 1    
   125   63  140 1    
   126   63  141 1    
   127   64   65 am   BACKBONE|DICT|INTERRES
   128   64  142 1    
   129   65   66 2    
   130   65   67 1    
   131   67   68 1    
   132   67   69 1    
   133   67  143 1    
   134   68  144 1    
   135   68  145 1    
   136   68  146 1    
   137   69   70 am   BACKBONE|DICT|INTERRES
   138   69  147 1    
   139   70   71 2    
   140   70   72 1    
   141   72   73 1    
   142   72   74 1    
   143   72  148 1    
   144   73  149 1    
   145   73  150 1    
   146   73  151 1    
   147   74   75 am   BACKBONE|DICT|INTERRES
   148   74  152 1    
   149   75   76 2    
   150   75   77 1    
   151   77   78 1    
   152   77   79 1    
   153   77  153 1    
   154   78  154 1    
   155   78  155 1    
   156   78  156 1    
   157   79   80 am   BACKBONE|DICT|INTERRES
   158   79  157 1    
   159   80   81 2    
@<TRIPOS>SUBSTRUCTURE
     1 UNK         1 GROUP             0       ****    0 ROOT    
