@<TRIPOS>MOLECULE
3R207
157   159    1
SMALL
USER_CHARGES


@<TRIPOS>ATOM
      1 CA        -51.5104  -30.4294    3.2055 C.3       0 UNK        -0.1975 
      2 C         -50.9721  -29.4214    4.2106 C.2       0 UNK         0.4852 
      3 O         -51.5277  -28.3290    4.3380 O.2       0 UNK        -0.5216 
      4 N         -49.9019  -29.7834    4.9294 N.am      1 UNK        -0.4461 
      5 CA        -49.2244  -28.9276    5.9084 C.3       1 UNK         0.0864 
      6 C6        -48.3067  -29.7459    6.8504 C.3       14 UNK        -0.0898 
      7 S7        -49.2483  -30.8338    7.9730 S.3       14 UNK        -0.2598 
      8 C8        -49.2741  -29.8737    9.5253 C.3       14 UNK         0.0286 
      9 C9        -50.6600  -29.3242    9.8258 C.ar      14 UNK        -0.0844 
     10 C10       -51.0593  -28.0800    9.3244 C.ar      14 UNK        -0.0881 
     11 C11       -52.3307  -27.5732    9.6154 C.ar      14 UNK        -0.0643 
     12 C12       -53.1991  -28.3189   10.4171 C.ar      14 UNK        -0.0930 
     13 C13       -52.8118  -29.5630   10.9225 C.ar      14 UNK        -0.0827 
     14 C14       -51.5410  -30.0607   10.6242 C.ar      14 UNK        -0.1249 
     15 C15       -53.7798  -30.3677   11.7745 C.3       14 UNK         0.0141 
     16 S16       -53.7407  -29.8143   13.5086 S.3       14 UNK        -0.2313 
     17 C17       -55.1407  -30.6909   14.2921 C.3       14 UNK        -0.0915 
     18 CA        -56.4641  -30.7467   13.4787 C.3       13 UNK         0.0968 
     19 C         -57.5669  -31.5120   14.2665 C.2       13 UNK         0.5732 
     20 N         -58.6823  -30.8898   14.6309 N.am      13 UNK        -0.7310 
     21 O         -57.4112  -32.6992   14.5428 O.2       13 UNK        -0.5035 
     22 N         -56.8832  -29.4177   12.9999 N.am      13 UNK        -0.4233 
     23 C         -57.6322  -29.2012   11.9134 C.2       13 UNK         0.4989 
     24 O         -57.9967  -30.1011   11.1556 O.2       13 UNK        -0.4996 
     25 CA        -58.0600  -27.7543   11.5887 C.3       12 UNK         0.0216 
     26 CB        -59.4868  -27.4853   12.1078 C.3       12 UNK        -0.1964 
     27 N         -57.1410  -26.6797   12.0033 N.am      12 UNK        -0.4276 
     28 C         -56.7759  -26.3172   13.2401 C.2       12 UNK         0.5020 
     29 O         -57.1219  -26.9111   14.2650 O.2       12 UNK        -0.5489 
     30 CA        -55.8946  -25.0618   13.3536 C.3       11 UNK         0.0294 
     31 CB        -56.7596  -23.8201   13.6236 C.3       11 UNK        -0.2019 
     32 N         -54.9245  -25.2189   14.4368 N.am      11 UNK        -0.4493 
     33 C         -53.8349  -25.9877   14.3390 C.2       11 UNK         0.4932 
     34 O         -53.4635  -26.5123   13.2877 O.2       11 UNK        -0.5029 
     35 CA        -53.0534  -26.2341   15.6351 C.3       10 UNK         0.0280 
     36 CB        -53.8612  -27.1066   16.6169 C.3       10 UNK        -0.1976 
     37 N         -51.8063  -26.9022   15.2865 N.am      10 UNK        -0.4242 
     38 C         -50.6959  -26.9576   16.0267 C.2       10 UNK         0.5072 
     39 O         -50.6089  -26.4663   17.1537 O.2       10 UNK        -0.5224 
     40 CA        -49.4889  -27.7087   15.4284 C.3       9 UNK         0.0343 
     41 CB        -49.8279  -28.5341   14.1672 C.3       9 UNK        -0.2003 
     42 N         -48.4091  -26.7758   15.1087 N.am      9 UNK        -0.4272 
     43 C         -47.5140  -26.2811   15.9747 C.2       9 UNK         0.4988 
     44 O         -47.4328  -26.6225   17.1555 O.2       9 UNK        -0.5108 
     45 CA        -46.5214  -25.2359   15.4312 C.3       8 UNK         0.0248 
     46 CB        -45.3018  -25.9238   14.7967 C.3       8 UNK        -0.2001 
     47 N         -47.1250  -24.3135   14.4650 N.am      8 UNK        -0.4140 
     48 C         -48.0295  -23.3733   14.7772 C.2       8 UNK         0.5028 
     49 O         -48.3976  -23.1315   15.9275 O.2       8 UNK        -0.5428 
     50 CA        -48.6383  -22.5692   13.6133 C.3       7 UNK         0.0264 
     51 CB        -47.7352  -21.3851   13.2329 C.3       7 UNK        -0.1988 
     52 N         -48.9093  -23.3866   12.4275 N.am      7 UNK        -0.4454 
     53 C         -49.8004  -24.3902   12.3898 C.2       7 UNK         0.5027 
     54 O         -50.5253  -24.6889   13.3375 O.2       7 UNK        -0.5083 
     55 CA        -49.8533  -25.2309   11.0973 C.3       6 UNK         0.0844 
     56 C56       -50.7200  -24.5602   10.0015 C.3       14 UNK        -0.0967 
     57 S57       -52.5038  -24.8632   10.2185 S.3       14 UNK        -0.2604 
     58 C58       -52.7866  -26.2340    9.0517 C.3       14 UNK         0.0134 
     59 N         -48.5122  -25.5401   10.5977 N.am      6 UNK        -0.4116 
     60 C         -47.5869  -26.2648   11.2395 C.2       5 UNK         0.5034 
     61 O         -47.7777  -26.8234   12.3164 O.2       5 UNK        -0.5045 
     62 CA        -46.1911  -26.3268   10.5996 C.3       5 UNK         0.0224 
     63 CB        -46.1199  -27.4034    9.5067 C.3       5 UNK        -0.1978 
     64 N         -45.7852  -25.0337   10.0462 N.am      5 UNK        -0.4737 
     65 C         -45.4869  -23.9601   10.7900 C.2       4 UNK         0.5027 
     66 O         -45.4919  -23.9604   12.0202 O.2       4 UNK        -0.5211 
     67 CA        -45.1638  -22.6623   10.0319 C.3       4 UNK         0.0297 
     68 CB        -43.6803  -22.6260    9.6330 C.3       4 UNK        -0.1993 
     69 N         -45.9995  -22.4756    8.8419 N.am      4 UNK        -0.4486 
     70 C         -47.3213  -22.2563    8.8767 C.2       3 UNK         0.4961 
     71 O         -47.9786  -22.1825    9.9155 O.2       3 UNK        -0.5105 
     72 CA        -48.0381  -22.1570    7.5179 C.3       3 UNK         0.0299 
     73 CB        -47.8047  -20.7786    6.8789 C.3       3 UNK        -0.1972 
     74 N         -47.6735  -23.2168    6.5662 N.am      3 UNK        -0.4305 
     75 C         -47.8021  -24.5273    6.8108 C.2       2 UNK         0.5006 
     76 O         -48.1527  -24.9867    7.9009 O.2       2 UNK        -0.5106 
     77 CA        -47.4797  -25.5036    5.6745 C.3       2 UNK         0.0296 
     78 CB        -45.9630  -25.7550    5.5808 C.3       2 UNK        -0.2002 
     79 N         -48.1851  -26.7360    6.0053 N.am      2 UNK        -0.4032 
     80 C         -48.4280  -27.7931    5.2274 C.2       1 UNK         0.5000 
     81 O         -48.0353  -27.9032    4.0622 O.2       1 UNK        -0.5238 
     82 H82       -52.5464  -30.6743    3.4379 H         1 UNK         0.0889 
     83 H83       -50.9347  -31.3548    3.2078 H         1 UNK         0.0889 
     84 H84       -51.4757  -30.0109    2.2000 H         1 UNK         0.0889 
     85 H85       -49.4801  -30.6876    4.7745 H         1 UNK         0.3028 
     86 H86       -50.0001  -28.4542    6.5140 H         1 UNK         0.0864 
     87 H87       -47.6627  -29.0987    7.4463 H         1 UNK         0.0720 
     88 H88       -47.6255  -30.3677    6.2664 H         1 UNK         0.0720 
     89 H89       -48.9494  -30.5225   10.3403 H         1 UNK         0.0814 
     90 H90       -48.5565  -29.0556    9.4980 H         1 UNK         0.0814 
     91 H91       -50.3805  -27.5028    8.7138 H         1 UNK         0.1469 
     92 H92       -54.1778  -27.9263   10.6569 H         1 UNK         0.1381 
     93 H93       -51.2371  -31.0226   11.0143 H         1 UNK         0.1206 
     94 H94       -54.7778  -30.2498   11.3550 H         1 UNK         0.0813 
     95 H95       -53.5450  -31.4321   11.7277 H         1 UNK         0.0813 
     96 H96       -55.3187  -30.2096   15.2554 H         1 UNK         0.0638 
     97 H97       -54.7997  -31.7022   14.5211 H         1 UNK         0.0638 
     98 H98       -56.2773  -31.3726   12.6054 H         1 UNK         0.0568 
     99 H99       -58.8152  -29.9143   14.4190 H         1 UNK         0.3450 
    100 H100      -59.3895  -31.3999   15.1360 H         1 UNK         0.3450 
    101 H101      -56.6865  -28.6251   13.6048 H         1 UNK         0.2987 
    102 H102      -58.0967  -27.6937   10.4997 H         1 UNK         0.0766 
    103 H103      -59.8472  -26.5077   11.7876 H         1 UNK         0.0798 
    104 H104      -59.5390  -27.5208   13.1963 H         1 UNK         0.0798 
    105 H105      -60.1884  -28.2285   11.7260 H         1 UNK         0.0798 
    106 H106      -56.7667  -26.1353   11.2379 H         1 UNK         0.3198 
    107 H107      -55.3537  -24.9133   12.4155 H         1 UNK         0.0843 
    108 H108      -56.1500  -22.9191   13.6951 H         1 UNK         0.0831 
    109 H109      -57.3281  -23.9167   14.5497 H         1 UNK         0.0831 
    110 H110      -57.4770  -23.6615   12.8173 H         1 UNK         0.0831 
    111 H111      -55.1938  -24.8635   15.3425 H         1 UNK         0.3133 
    112 H112      -52.8274  -25.2675   16.0897 H         1 UNK         0.0566 
    113 H113      -53.3103  -27.2850   17.5403 H         1 UNK         0.0814 
    114 H114      -54.8021  -26.6291   16.8924 H         1 UNK         0.0814 
    115 H115      -54.1046  -28.0761   16.1805 H         1 UNK         0.0814 
    116 H116      -51.8013  -27.2639   14.3390 H         1 UNK         0.3091 
    117 H117      -49.1377  -28.4054   16.1922 H         1 UNK         0.0702 
    118 H118      -50.6218  -29.2557   14.3654 H         1 UNK         0.0785 
    119 H119      -50.1493  -27.9051   13.3353 H         1 UNK         0.0785 
    120 H120      -48.9606  -29.1005   13.8271 H         1 UNK         0.0785 
    121 H121      -48.3450  -26.4883   14.1367 H         1 UNK         0.2998 
    122 H122      -46.1689  -24.6446   16.2791 H         1 UNK         0.0697 
    123 H123      -45.5824  -26.5306   13.9357 H         1 UNK         0.0825 
    124 H124      -44.8094  -26.5826   15.5132 H         1 UNK         0.0825 
    125 H125      -44.5626  -25.1943   14.4649 H         1 UNK         0.0825 
    126 H126      -46.8096  -24.3854   13.5025 H         1 UNK         0.3029 
    127 H127      -49.5934  -22.1677   13.9589 H         1 UNK         0.0897 
    128 H128      -47.5554  -20.7399   14.0939 H         1 UNK         0.0792 
    129 H129      -48.1923  -20.7709   12.4567 H         1 UNK         0.0792 
    130 H130      -46.7640  -21.7176   12.8665 H         1 UNK         0.0792 
    131 H131      -48.3951  -23.1532   11.5821 H         1 UNK         0.3086 
    132 H132      -50.3062  -26.1898   11.3586 H         1 UNK         0.0583 
    133 H133      -50.5420  -23.4839    9.9549 H         1 UNK         0.1020 
    134 H134      -50.4430  -24.9334    9.0164 H         1 UNK         0.1020 
    135 H135      -53.8537  -26.2810    8.8295 H         1 UNK         0.0694 
    136 H136      -52.2945  -26.0279    8.1000 H         1 UNK         0.0694 
    137 H137      -48.2722  -25.1547    9.6866 H         1 UNK         0.2989 
    138 H138      -45.4806  -26.5951   11.3850 H         1 UNK         0.1055 
    139 H139      -46.3336  -28.3891    9.9209 H         1 UNK         0.0806 
    140 H140      -45.1253  -27.4530    9.0633 H         1 UNK         0.0806 
    141 H141      -46.8340  -27.2160    8.7057 H         1 UNK         0.0806 
    142 H142      -45.8036  -24.9348    9.0420 H         1 UNK         0.3061 
    143 H143      -45.3542  -21.8280   10.7106 H         1 UNK         0.0734 
    144 H144      -43.4169  -21.6757    9.1683 H         1 UNK         0.0832 
    145 H145      -43.0398  -22.7446   10.5083 H         1 UNK         0.0832 
    146 H146      -43.4271  -23.4245    8.9344 H         1 UNK         0.0832 
    147 H147      -45.5437  -22.5292    7.9426 H         1 UNK         0.3156 
    148 H148      -49.1080  -22.2574    7.7131 H         1 UNK         0.0589 
    149 H149      -46.7599  -20.6283    6.6044 H         1 UNK         0.0808 
    150 H150      -48.4095  -20.6499    5.9810 H         1 UNK         0.0808 
    151 H151      -48.0790  -19.9779    7.5676 H         1 UNK         0.0808 
    152 H152      -47.3679  -22.9201    5.6501 H         1 UNK         0.3098 
    153 H153      -47.8630  -25.1071    4.7323 H         1 UNK         0.0720 
    154 H154      -45.5627  -26.1604    6.5110 H         1 UNK         0.0791 
    155 H155      -45.4236  -24.8319    5.3659 H         1 UNK         0.0791 
    156 H156      -45.7247  -26.4580    4.7826 H         1 UNK         0.0791 
    157 H157      -48.5573  -26.7079    6.9471 H         1 UNK         0.3028 
@<TRIPOS>BOND
     1    1    2 1    
     2    1   82 1    
     3    1   83 1    
     4    1   84 1    
     5    2    3 2    
     6    2    4 am   BACKBONE|DICT|INTERRES
     7    4    5 1    
     8    4   85 1    
     9    5    6 1    
    10    5   80 1    
    11    5   86 1    
    12    6    7 1    
    13    6   87 1    
    14    6   88 1    
    15    7    8 1    
    16    8    9 1    
    17    8   89 1    
    18    8   90 1    
    19    9   10 ar   
    20    9   14 ar   
    21   10   11 ar   
    22   10   91 1    
    23   11   12 ar   
    24   11   58 1    
    25   12   13 ar   
    26   12   92 1    
    27   13   14 ar   
    28   13   15 1    
    29   14   93 1    
    30   15   16 1    
    31   15   94 1    
    32   15   95 1    
    33   16   17 1    
    34   17   18 1    
    35   17   96 1    
    36   17   97 1    
    37   18   19 1    
    38   18   22 1    
    39   18   98 1    
    40   19   20 am   BACKBONE|DICT|INTERRES
    41   19   21 2    
    42   20   99 1    
    43   20  100 1    
    44   22   23 am   BACKBONE|DICT|INTERRES
    45   22  101 1    
    46   23   24 2    
    47   23   25 1    
    48   25   26 1    
    49   25   27 1    
    50   25  102 1    
    51   26  103 1    
    52   26  104 1    
    53   26  105 1    
    54   27   28 am   BACKBONE|DICT|INTERRES
    55   27  106 1    
    56   28   29 2    
    57   28   30 1    
    58   30   31 1    
    59   30   32 1    
    60   30  107 1    
    61   31  108 1    
    62   31  109 1    
    63   31  110 1    
    64   32   33 am   BACKBONE|DICT|INTERRES
    65   32  111 1    
    66   33   34 2    
    67   33   35 1    
    68   35   36 1    
    69   35   37 1    
    70   35  112 1    
    71   36  113 1    
    72   36  114 1    
    73   36  115 1    
    74   37   38 am   BACKBONE|DICT|INTERRES
    75   37  116 1    
    76   38   39 2    
    77   38   40 1    
    78   40   41 1    
    79   40   42 1    
    80   40  117 1    
    81   41  118 1    
    82   41  119 1    
    83   41  120 1    
    84   42   43 am   BACKBONE|DICT|INTERRES
    85   42  121 1    
    86   43   44 2    
    87   43   45 1    
    88   45   46 1    
    89   45   47 1    
    90   45  122 1    
    91   46  123 1    
    92   46  124 1    
    93   46  125 1    
    94   47   48 am   BACKBONE|DICT|INTERRES
    95   47  126 1    
    96   48   49 2    
    97   48   50 1    
    98   50   51 1    
    99   50   52 1    
   100   50  127 1    
   101   51  128 1    
   102   51  129 1    
   103   51  130 1    
   104   52   53 am   BACKBONE|DICT|INTERRES
   105   52  131 1    
   106   53   54 2    
   107   53   55 1    
   108   55   56 1    
   109   55   59 1    
   110   55  132 1    
   111   56   57 1    
   112   56  133 1    
   113   56  134 1    
   114   57   58 1    
   115   58  135 1    
   116   58  136 1    
   117   59   60 am   BACKBONE|DICT|INTERRES
   118   59  137 1    
   119   60   61 2    
   120   60   62 1    
   121   62   63 1    
   122   62   64 1    
   123   62  138 1    
   124   63  139 1    
   125   63  140 1    
   126   63  141 1    
   127   64   65 am   BACKBONE|DICT|INTERRES
   128   64  142 1    
   129   65   66 2    
   130   65   67 1    
   131   67   68 1    
   132   67   69 1    
   133   67  143 1    
   134   68  144 1    
   135   68  145 1    
   136   68  146 1    
   137   69   70 am   BACKBONE|DICT|INTERRES
   138   69  147 1    
   139   70   71 2    
   140   70   72 1    
   141   72   73 1    
   142   72   74 1    
   143   72  148 1    
   144   73  149 1    
   145   73  150 1    
   146   73  151 1    
   147   74   75 am   BACKBONE|DICT|INTERRES
   148   74  152 1    
   149   75   76 2    
   150   75   77 1    
   151   77   78 1    
   152   77   79 1    
   153   77  153 1    
   154   78  154 1    
   155   78  155 1    
   156   78  156 1    
   157   79   80 am   BACKBONE|DICT|INTERRES
   158   79  157 1    
   159   80   81 2    
@<TRIPOS>SUBSTRUCTURE
     1 UNK         1 GROUP             0       ****    0 ROOT    
