@<TRIPOS>MOLECULE
3R207
157   159    1
SMALL
USER_CHARGES


@<TRIPOS>ATOM
      1 CA        -46.5358  -28.6596    3.7054 C.3       0 UNK        -0.1975 
      2 C         -47.0598  -28.2212    5.0650 C.2       0 UNK         0.4852 
      3 O         -47.6948  -27.1715    5.1649 O.2       0 UNK        -0.5216 
      4 N         -46.8073  -29.0222    6.1065 N.am      1 UNK        -0.4461 
      5 CA        -47.1853  -28.7337    7.4932 C.3       1 UNK         0.0864 
      6 C6        -47.2703  -30.0202    8.3550 C.3       14 UNK        -0.0898 
      7 S7        -48.3065  -31.3245    7.6097 S.3       14 UNK        -0.2598 
      8 C8        -49.2890  -31.9158    9.0307 C.3       14 UNK         0.0286 
      9 C9        -50.6424  -31.2280    9.2059 C.ar      14 UNK        -0.0844 
     10 C10       -51.4092  -30.8247    8.1038 C.ar      14 UNK        -0.0881 
     11 C11       -52.6887  -30.2904    8.2803 C.ar      14 UNK        -0.0643 
     12 C12       -53.2084  -30.1692    9.5716 C.ar      14 UNK        -0.0930 
     13 C13       -52.4580  -30.5661   10.6803 C.ar      14 UNK        -0.0827 
     14 C14       -51.1738  -31.0859   10.4930 C.ar      14 UNK        -0.1249 
     15 C15       -53.0668  -30.4784   12.0700 C.3       14 UNK         0.0141 
     16 S16       -52.8733  -28.8171   12.7768 S.3       14 UNK        -0.2313 
     17 C17       -54.0765  -28.8940   14.1451 C.3       14 UNK        -0.0915 
     18 CA        -55.3776  -28.0963   13.8679 C.3       13 UNK         0.0968 
     19 C         -56.4103  -28.3197   15.0129 C.2       13 UNK         0.5732 
     20 N         -56.8016  -27.3086   15.7816 N.am      13 UNK        -0.7310 
     21 O         -56.8725  -29.4417   15.2047 O.2       13 UNK        -0.5035 
     22 N         -55.1104  -26.6801   13.5717 N.am      13 UNK        -0.4233 
     23 C         -55.9726  -25.8697   12.9402 C.2       13 UNK         0.4989 
     24 O         -57.0283  -26.2649   12.4407 O.2       13 UNK        -0.4996 
     25 CA        -55.6170  -24.3666   12.8671 C.3       12 UNK         0.0216 
     26 CB        -56.8687  -23.4704   12.7496 C.3       12 UNK        -0.1964 
     27 N         -54.7569  -23.8969   13.9624 N.am      12 UNK        -0.4276 
     28 C         -55.0005  -23.9795   15.2780 C.2       12 UNK         0.5020 
     29 O         -56.0260  -24.4561   15.7698 O.2       12 UNK        -0.5489 
     30 CA        -53.8606  -23.5195   16.2044 C.3       11 UNK         0.0294 
     31 CB        -54.3458  -22.4304   17.1756 C.3       11 UNK        -0.2019 
     32 N         -53.2998  -24.6395   16.9674 N.am      11 UNK        -0.4493 
     33 C         -52.7987  -25.7603   16.4318 C.2       11 UNK         0.4932 
     34 O         -52.7224  -25.9682   15.2169 O.2       11 UNK        -0.5029 
     35 CA        -52.3346  -26.8448   17.4110 C.3       10 UNK         0.0280 
     36 CB        -53.5489  -27.5091   18.0942 C.3       10 UNK        -0.1976 
     37 N         -51.5749  -27.8216   16.6381 N.am      10 UNK        -0.4242 
     38 C         -50.8895  -28.8765   17.0876 C.2       10 UNK         0.5072 
     39 O         -50.7543  -29.1553   18.2797 O.2       10 UNK        -0.5224 
     40 CA        -50.2532  -29.7873   16.0231 C.3       9 UNK         0.0343 
     41 CB        -51.1670  -30.9866   15.7226 C.3       9 UNK        -0.2003 
     42 N         -49.9494  -29.0863   14.7703 N.am      9 UNK        -0.4272 
     43 C         -48.8537  -28.3366   14.5871 C.2       9 UNK         0.4988 
     44 O         -48.0115  -28.1291   15.4612 O.2       9 UNK        -0.5108 
     45 CA        -48.6467  -27.7343   13.1906 C.3       8 UNK         0.0248 
     46 CB        -48.1352  -28.7961   12.2028 C.3       8 UNK        -0.2001 
     47 N         -49.8554  -27.1137   12.6495 N.am      8 UNK        -0.4140 
     48 C         -50.2691  -25.8727   12.9431 C.2       8 UNK         0.5028 
     49 O         -49.6891  -25.1317   13.7381 O.2       8 UNK        -0.5428 
     50 CA        -51.5022  -25.3651   12.1742 C.3       7 UNK         0.0264 
     51 CB        -51.6297  -23.8294   12.1727 C.3       7 UNK        -0.1988 
     52 N         -51.4698  -25.8649   10.8019 N.am      7 UNK        -0.4454 
     53 C         -52.5289  -26.1215   10.0290 C.2       7 UNK         0.5027 
     54 O         -53.6916  -25.8933   10.3648 O.2       7 UNK        -0.5083 
     55 CA        -52.2210  -26.7323    8.6446 C.3       6 UNK         0.0844 
     56 C56       -53.4989  -27.1716    7.8860 C.3       14 UNK        -0.0967 
     57 S57       -53.0857  -28.2245    6.4535 S.3       14 UNK        -0.2604 
     58 C58       -53.5255  -29.8800    7.0752 C.3       14 UNK         0.0134 
     59 N         -51.4089  -25.8260    7.8281 N.am      6 UNK        -0.4116 
     60 C         -50.1028  -25.5795    7.9760 C.2       5 UNK         0.5034 
     61 O         -49.4036  -26.1048    8.8481 O.2       5 UNK        -0.5045 
     62 CA        -49.4552  -24.5877    6.9938 C.3       5 UNK         0.0224 
     63 CB        -50.3799  -24.1055    5.8513 C.3       5 UNK        -0.1978 
     64 N         -48.8470  -23.4549    7.6982 N.am      5 UNK        -0.4737 
     65 C         -49.4612  -22.5169    8.4367 C.2       4 UNK         0.5027 
     66 O         -50.6811  -22.4737    8.5969 O.2       4 UNK        -0.5211 
     67 CA        -48.5767  -21.4462    9.1156 C.3       4 UNK         0.0297 
     68 CB        -49.0467  -21.1427   10.5500 C.3       4 UNK        -0.1993 
     69 N         -47.1650  -21.8322    9.1652 N.am      4 UNK        -0.4486 
     70 C         -46.2243  -21.5145    8.2650 C.2       3 UNK         0.4961 
     71 O         -46.4067  -20.7507    7.3174 O.2       3 UNK        -0.5105 
     72 CA        -44.8563  -22.2115    8.4306 C.3       3 UNK         0.0299 
     73 CB        -43.8850  -21.3130    9.2126 C.3       3 UNK        -0.1972 
     74 N         -44.9525  -23.5217    9.0923 N.am      3 UNK        -0.4305 
     75 C         -45.6354  -24.5659    8.5999 C.2       2 UNK         0.5006 
     76 O         -46.1471  -24.5630    7.4787 O.2       2 UNK        -0.5106 
     77 CA        -45.8476  -25.7584    9.5495 C.3       2 UNK         0.0296 
     78 CB        -46.5683  -25.3190   10.8380 C.3       2 UNK        -0.2002 
     79 N         -46.6514  -26.8056    8.9163 N.am      2 UNK        -0.4032 
     80 C         -46.1656  -27.7530    8.1074 C.2       1 UNK         0.5000 
     81 O         -44.9620  -27.8997    7.8707 O.2       1 UNK        -0.5238 
     82 H82       -46.0071  -29.6112    3.7595 H         1 UNK         0.0889 
     83 H83       -45.8490  -27.9117    3.3099 H         1 UNK         0.0889 
     84 H84       -47.3617  -28.7699    3.0032 H         1 UNK         0.0889 
     85 H85       -46.2682  -29.8652    5.9718 H         1 UNK         0.3028 
     86 H86       -48.1713  -28.2627    7.4908 H         1 UNK         0.0864 
     87 H87       -47.6627  -29.7760    9.3427 H         1 UNK         0.0720 
     88 H88       -46.2778  -30.4459    8.5176 H         1 UNK         0.0720 
     89 H89       -49.4768  -32.9806    8.8879 H         1 UNK         0.0814 
     90 H90       -48.6929  -31.8361    9.9412 H         1 UNK         0.0814 
     91 H91       -51.0244  -30.9444    7.1007 H         1 UNK         0.1469 
     92 H92       -54.2056  -29.7772    9.7176 H         1 UNK         0.1381 
     93 H93       -50.6029  -31.4161   11.3502 H         1 UNK         0.1206 
     94 H94       -54.1273  -30.7299   12.0163 H         1 UNK         0.0813 
     95 H95       -52.6103  -31.2116   12.7366 H         1 UNK         0.0813 
     96 H96       -54.3070  -29.9407   14.3518 H         1 UNK         0.0638 
     97 H97       -53.5941  -28.5179   15.0441 H         1 UNK         0.0638 
     98 H98       -55.8305  -28.5322   12.9755 H         1 UNK         0.0568 
     99 H99       -56.4527  -26.3651   15.6414 H         1 UNK         0.3450 
    100 H100      -57.4748  -27.4840   16.5095 H         1 UNK         0.3450 
    101 H101      -54.2696  -26.2937   13.9863 H         1 UNK         0.2987 
    102 H102      -55.0384  -24.2413   11.9515 H         1 UNK         0.0766 
    103 H103      -56.5979  -22.4170   12.6783 H         1 UNK         0.0798 
    104 H104      -57.4452  -23.7145   11.8565 H         1 UNK         0.0798 
    105 H105      -57.5313  -23.5893   13.6076 H         1 UNK         0.0798 
    106 H106      -53.8631  -23.5251   13.6755 H         1 UNK         0.3198 
    107 H107      -53.0551  -23.0989   15.5986 H         1 UNK         0.0843 
    108 H108      -55.1266  -22.8012   17.8412 H         1 UNK         0.0831 
    109 H109      -54.7599  -21.5804   16.6316 H         1 UNK         0.0831 
    110 H110      -53.5295  -22.0526   17.7915 H         1 UNK         0.0831 
    111 H111      -53.3521  -24.5674   17.9732 H         1 UNK         0.3133 
    112 H112      -51.6786  -26.3937   18.1576 H         1 UNK         0.0566 
    113 H113      -54.2105  -27.9839   17.3692 H         1 UNK         0.0814 
    114 H114      -54.1434  -26.7785   18.6437 H         1 UNK         0.0814 
    115 H115      -53.2426  -28.2693   18.8123 H         1 UNK         0.0814 
    116 H116      -51.5991  -27.6356   15.6422 H         1 UNK         0.3091 
    117 H117      -49.3221  -30.1768   16.4411 H         1 UNK         0.0702 
    118 H118      -50.7057  -31.6687   15.0082 H         1 UNK         0.0785 
    119 H119      -52.1281  -30.6740   15.3163 H         1 UNK         0.0785 
    120 H120      -51.3694  -31.5576   16.6298 H         1 UNK         0.0785 
    121 H121      -50.6013  -29.2016   14.0073 H         1 UNK         0.2998 
    122 H122      -47.8759  -26.9677   13.2872 H         1 UNK         0.0697 
    123 H123      -48.8666  -29.5876   12.0364 H         1 UNK         0.0825 
    124 H124      -47.2226  -29.2661   12.5718 H         1 UNK         0.0825 
    125 H125      -47.9001  -28.3494   11.2373 H         1 UNK         0.0825 
    126 H126      -50.4097  -27.6641   12.0090 H         1 UNK         0.3029 
    127 H127      -52.3756  -25.7842   12.6750 H         1 UNK         0.0897 
    128 H128      -52.5399  -23.5050   11.6688 H         1 UNK         0.0792 
    129 H129      -51.6550  -23.4332   13.1884 H         1 UNK         0.0792 
    130 H130      -50.7876  -23.3666   11.6600 H         1 UNK         0.0792 
    131 H131      -50.5493  -26.0246   10.3989 H         1 UNK         0.3086 
    132 H132      -51.6285  -27.6290    8.8408 H         1 UNK         0.0583 
    133 H133      -54.1837  -27.7124    8.5404 H         1 UNK         0.1020 
    134 H134      -54.0577  -26.3016    7.5366 H         1 UNK         0.1020 
    135 H135      -54.5886  -29.9025    7.3200 H         1 UNK         0.0694 
    136 H136      -53.3860  -30.6045    6.2715 H         1 UNK         0.0694 
    137 H137      -51.9026  -25.3299    7.1016 H         1 UNK         0.2989 
    138 H138      -48.6302  -25.1317    6.5325 H         1 UNK         0.1055 
    139 H139      -49.8378  -23.4566    5.1634 H         1 UNK         0.0806 
    140 H140      -51.2418  -23.5462    6.2166 H         1 UNK         0.0806 
    141 H141      -50.7504  -24.9467    5.2634 H         1 UNK         0.0806 
    142 H142      -47.8335  -23.4423    7.6536 H         1 UNK         0.3061 
    143 H143      -48.6850  -20.5327    8.5272 H         1 UNK         0.0734 
    144 H144      -50.0960  -20.8449   10.5718 H         1 UNK         0.0832 
    145 H145      -48.9366  -22.0095   11.2017 H         1 UNK         0.0832 
    146 H146      -48.4743  -20.3240   10.9864 H         1 UNK         0.0832 
    147 H147      -46.9053  -22.4643    9.9077 H         1 UNK         0.3156 
    148 H148      -44.4457  -22.3714    7.4313 H         1 UNK         0.0589 
    149 H149      -44.2317  -21.1300   10.2305 H         1 UNK         0.0808 
    150 H150      -42.8909  -21.7570    9.2697 H         1 UNK         0.0808 
    151 H151      -43.7760  -20.3422    8.7268 H         1 UNK         0.0808 
    152 H152      -44.5349  -23.5983   10.0092 H         1 UNK         0.3098 
    153 H153      -44.8670  -26.1593    9.8144 H         1 UNK         0.0720 
    154 H154      -46.6932  -26.1640   11.5118 H         1 UNK         0.0791 
    155 H155      -46.0034  -24.5657   11.3874 H         1 UNK         0.0791 
    156 H156      -47.5578  -24.9075   10.6325 H         1 UNK         0.0791 
    157 H157      -47.6604  -26.6898    8.9855 H         1 UNK         0.3028 
@<TRIPOS>BOND
     1    1    2 1    
     2    1   82 1    
     3    1   83 1    
     4    1   84 1    
     5    2    3 2    
     6    2    4 am   BACKBONE|DICT|INTERRES
     7    4    5 1    
     8    4   85 1    
     9    5    6 1    
    10    5   80 1    
    11    5   86 1    
    12    6    7 1    
    13    6   87 1    
    14    6   88 1    
    15    7    8 1    
    16    8    9 1    
    17    8   89 1    
    18    8   90 1    
    19    9   10 ar   
    20    9   14 ar   
    21   10   11 ar   
    22   10   91 1    
    23   11   12 ar   
    24   11   58 1    
    25   12   13 ar   
    26   12   92 1    
    27   13   14 ar   
    28   13   15 1    
    29   14   93 1    
    30   15   16 1    
    31   15   94 1    
    32   15   95 1    
    33   16   17 1    
    34   17   18 1    
    35   17   96 1    
    36   17   97 1    
    37   18   19 1    
    38   18   22 1    
    39   18   98 1    
    40   19   20 am   BACKBONE|DICT|INTERRES
    41   19   21 2    
    42   20   99 1    
    43   20  100 1    
    44   22   23 am   BACKBONE|DICT|INTERRES
    45   22  101 1    
    46   23   24 2    
    47   23   25 1    
    48   25   26 1    
    49   25   27 1    
    50   25  102 1    
    51   26  103 1    
    52   26  104 1    
    53   26  105 1    
    54   27   28 am   BACKBONE|DICT|INTERRES
    55   27  106 1    
    56   28   29 2    
    57   28   30 1    
    58   30   31 1    
    59   30   32 1    
    60   30  107 1    
    61   31  108 1    
    62   31  109 1    
    63   31  110 1    
    64   32   33 am   BACKBONE|DICT|INTERRES
    65   32  111 1    
    66   33   34 2    
    67   33   35 1    
    68   35   36 1    
    69   35   37 1    
    70   35  112 1    
    71   36  113 1    
    72   36  114 1    
    73   36  115 1    
    74   37   38 am   BACKBONE|DICT|INTERRES
    75   37  116 1    
    76   38   39 2    
    77   38   40 1    
    78   40   41 1    
    79   40   42 1    
    80   40  117 1    
    81   41  118 1    
    82   41  119 1    
    83   41  120 1    
    84   42   43 am   BACKBONE|DICT|INTERRES
    85   42  121 1    
    86   43   44 2    
    87   43   45 1    
    88   45   46 1    
    89   45   47 1    
    90   45  122 1    
    91   46  123 1    
    92   46  124 1    
    93   46  125 1    
    94   47   48 am   BACKBONE|DICT|INTERRES
    95   47  126 1    
    96   48   49 2    
    97   48   50 1    
    98   50   51 1    
    99   50   52 1    
   100   50  127 1    
   101   51  128 1    
   102   51  129 1    
   103   51  130 1    
   104   52   53 am   BACKBONE|DICT|INTERRES
   105   52  131 1    
   106   53   54 2    
   107   53   55 1    
   108   55   56 1    
   109   55   59 1    
   110   55  132 1    
   111   56   57 1    
   112   56  133 1    
   113   56  134 1    
   114   57   58 1    
   115   58  135 1    
   116   58  136 1    
   117   59   60 am   BACKBONE|DICT|INTERRES
   118   59  137 1    
   119   60   61 2    
   120   60   62 1    
   121   62   63 1    
   122   62   64 1    
   123   62  138 1    
   124   63  139 1    
   125   63  140 1    
   126   63  141 1    
   127   64   65 am   BACKBONE|DICT|INTERRES
   128   64  142 1    
   129   65   66 2    
   130   65   67 1    
   131   67   68 1    
   132   67   69 1    
   133   67  143 1    
   134   68  144 1    
   135   68  145 1    
   136   68  146 1    
   137   69   70 am   BACKBONE|DICT|INTERRES
   138   69  147 1    
   139   70   71 2    
   140   70   72 1    
   141   72   73 1    
   142   72   74 1    
   143   72  148 1    
   144   73  149 1    
   145   73  150 1    
   146   73  151 1    
   147   74   75 am   BACKBONE|DICT|INTERRES
   148   74  152 1    
   149   75   76 2    
   150   75   77 1    
   151   77   78 1    
   152   77   79 1    
   153   77  153 1    
   154   78  154 1    
   155   78  155 1    
   156   78  156 1    
   157   79   80 am   BACKBONE|DICT|INTERRES
   158   79  157 1    
   159   80   81 2    
@<TRIPOS>SUBSTRUCTURE
     1 UNK         1 GROUP             0       ****    0 ROOT    
