@<TRIPOS>MOLECULE
3R207
157   159    1
SMALL
USER_CHARGES


@<TRIPOS>ATOM
      1 CA        -49.0534  -29.9386   11.2153 C.3       0 UNK        -0.1975 
      2 C         -48.5557  -30.1781    9.7977 C.2       0 UNK         0.4852 
      3 O         -47.7270  -31.0634    9.5843 O.2       0 UNK        -0.5216 
      4 N         -49.0490  -29.3947    8.8283 N.am      1 UNK        -0.4461 
      5 CA        -48.7092  -29.5103    7.4007 C.3       1 UNK         0.0864 
      6 C6        -49.6976  -28.7358    6.4899 C.3       14 UNK        -0.0898 
      7 S7        -51.4533  -29.1402    6.7880 S.3       14 UNK        -0.2598 
      8 C8        -51.9775  -27.5926    7.5970 C.3       14 UNK         0.0286 
      9 C9        -53.4137  -27.5412    8.1143 C.ar      14 UNK        -0.0844 
     10 C10       -53.9329  -26.2894    8.4521 C.ar      14 UNK        -0.0881 
     11 C11       -55.2002  -26.1553    9.0307 C.ar      14 UNK        -0.0643 
     12 C12       -55.9746  -27.3035    9.2154 C.ar      14 UNK        -0.0930 
     13 C13       -55.4892  -28.5634    8.8517 C.ar      14 UNK        -0.0827 
     14 C14       -54.2054  -28.6792    8.3117 C.ar      14 UNK        -0.1249 
     15 C15       -56.3668  -29.7919    9.0303 C.3       14 UNK         0.0141 
     16 S16       -56.5173  -30.2718   10.7782 S.3       14 UNK        -0.2313 
     17 C17       -55.0291  -31.3011   11.0438 C.3       14 UNK        -0.0915 
     18 CA        -54.0137  -30.7326   12.0746 C.3       13 UNK         0.0968 
     19 C         -53.0094  -29.7262   11.4434 C.2       13 UNK         0.5732 
     20 N         -52.9294  -28.4820   11.9031 N.am      13 UNK        -0.7310 
     21 O         -52.2577  -30.0970   10.5467 O.2       13 UNK        -0.5035 
     22 N         -54.6820  -30.2297   13.2843 N.am      13 UNK        -0.4233 
     23 C         -54.2499  -30.3981   14.5373 C.2       13 UNK         0.4989 
     24 O         -53.2889  -31.1035   14.8473 O.2       13 UNK        -0.4996 
     25 CA        -55.0081  -29.5994   15.6097 C.3       12 UNK         0.0216 
     26 CB        -54.6503  -30.0281   17.0452 C.3       12 UNK        -0.1964 
     27 N         -54.7130  -28.1753   15.4350 N.am      12 UNK        -0.4276 
     28 C         -55.4117  -27.3464   14.6456 C.2       12 UNK         0.5020 
     29 O         -56.4213  -27.7047   14.0380 O.2       12 UNK        -0.5489 
     30 CA        -54.8871  -25.9148   14.4118 C.3       11 UNK         0.0294 
     31 CB        -55.9702  -24.8484   14.6745 C.3       11 UNK        -0.2019 
     32 N         -53.6282  -25.5891   15.0928 N.am      11 UNK        -0.4493 
     33 C         -53.4029  -25.4176   16.4027 C.2       11 UNK         0.4932 
     34 O         -54.2799  -25.4764   17.2655 O.2       11 UNK        -0.5029 
     35 CA        -51.9286  -25.1854   16.8069 C.3       10 UNK         0.0280 
     36 CB        -51.7097  -25.2958   18.3301 C.3       10 UNK        -0.1976 
     37 N         -50.9707  -26.0536   16.1006 N.am      10 UNK        -0.4242 
     38 C         -51.0281  -27.3913   15.9843 C.2       10 UNK         0.5072 
     39 O         -51.9461  -28.0704   16.4422 O.2       10 UNK        -0.5224 
     40 CA        -49.8845  -28.0843   15.2241 C.3       9 UNK         0.0343 
     41 CB        -50.3037  -29.4265   14.5962 C.3       9 UNK        -0.2003 
     42 N         -49.3198  -27.2094   14.1960 N.am      9 UNK        -0.4272 
     43 C         -48.0124  -27.1024   13.9190 C.2       9 UNK         0.4988 
     44 O         -47.1400  -27.7921   14.4475 O.2       9 UNK        -0.5108 
     45 CA        -47.5939  -26.0370   12.8870 C.3       8 UNK         0.0248 
     46 CB        -47.4113  -26.6849   11.5056 C.3       8 UNK        -0.2001 
     47 N         -48.5341  -24.9155   12.7823 N.am      8 UNK        -0.4140 
     48 C         -48.8274  -24.0663   13.7813 C.2       8 UNK         0.5028 
     49 O         -48.2952  -24.1119   14.8903 O.2       8 UNK        -0.5428 
     50 CA        -49.9348  -23.0238   13.5449 C.3       7 UNK         0.0264 
     51 CB        -49.3475  -21.6062   13.4556 C.3       7 UNK        -0.1988 
     52 N         -50.7648  -23.2837   12.3667 N.am      7 UNK        -0.4454 
     53 C         -51.6161  -24.3128   12.2387 C.2       7 UNK         0.5027 
     54 O         -51.7551  -25.1919   13.0914 O.2       7 UNK        -0.5083 
     55 CA        -52.4025  -24.3976   10.9154 C.3       6 UNK         0.0844 
     56 C56       -53.7210  -23.5845   11.0184 C.3       14 UNK        -0.0967 
     57 S57       -54.6232  -23.3886    9.4398 S.3       14 UNK        -0.2604 
     58 C58       -55.7845  -24.8028    9.4497 C.3       14 UNK         0.0134 
     59 N         -51.5760  -24.0139    9.7646 N.am      6 UNK        -0.4116 
     60 C         -50.4622  -24.6491    9.3746 C.2       5 UNK         0.5034 
     61 O         -49.9994  -25.6300    9.9572 O.2       5 UNK        -0.5045 
     62 CA        -49.7262  -24.1150    8.1351 C.3       5 UNK         0.0224 
     63 CB        -50.4683  -22.9870    7.3821 C.3       5 UNK        -0.1978 
     64 N         -48.3565  -23.7106    8.4667 N.am      5 UNK        -0.4737 
     65 C         -47.9767  -22.7684    9.3452 C.2       4 UNK         0.5027 
     66 O         -48.7724  -22.1065   10.0125 O.2       4 UNK        -0.5211 
     67 CA        -46.4643  -22.5144    9.5287 C.3       4 UNK         0.0297 
     68 CB        -46.0198  -22.8361   10.9660 C.3       4 UNK        -0.1993 
     69 N         -45.6180  -23.2600    8.5915 N.am      4 UNK        -0.4486 
     70 C         -45.4487  -22.9586    7.2961 C.2       3 UNK         0.4961 
     71 O         -45.9133  -21.9504    6.7637 O.2       3 UNK        -0.5105 
     72 CA        -44.6488  -23.9606    6.4370 C.3       3 UNK         0.0299 
     73 CB        -43.2075  -23.4627    6.2411 C.3       3 UNK        -0.1972 
     74 N         -44.6164  -25.3387    6.9508 N.am      3 UNK        -0.4305 
     75 C         -45.6883  -26.1122    7.1769 C.2       2 UNK         0.5006 
     76 O         -46.8488  -25.7286    7.0090 O.2       2 UNK        -0.5106 
     77 CA        -45.4128  -27.5260    7.7203 C.3       2 UNK         0.0296 
     78 CB        -44.6298  -27.4750    9.0458 C.3       2 UNK        -0.2002 
     79 N         -46.6786  -28.2257    7.9459 N.am      2 UNK        -0.4032 
     80 C         -47.2637  -29.0645    7.0802 C.2       1 UNK         0.5000 
     81 O         -46.7248  -29.4683    6.0473 O.2       1 UNK        -0.5238 
     82 H82       -49.7535  -29.1052   11.2683 H         1 UNK         0.0889 
     83 H83       -48.2160  -29.7251   11.8790 H         1 UNK         0.0889 
     84 H84       -49.5645  -30.8270   11.5853 H         1 UNK         0.0889 
     85 H85       -49.7635  -28.7185    9.0555 H         1 UNK         0.3028 
     86 H86       -48.7768  -30.5684    7.1381 H         1 UNK         0.0864 
     87 H87       -49.5494  -27.6587    6.5950 H         1 UNK         0.0720 
     88 H88       -49.4901  -28.9594    5.4415 H         1 UNK         0.0720 
     89 H89       -51.3183  -27.4121    8.4454 H         1 UNK         0.0814 
     90 H90       -51.8204  -26.7725    6.8943 H         1 UNK         0.0814 
     91 H91       -53.3239  -25.4173    8.2743 H         1 UNK         0.1469 
     92 H92       -56.9638  -27.2192    9.6448 H         1 UNK         0.1381 
     93 H93       -53.8239  -29.6598    8.0655 H         1 UNK         0.1206 
     94 H94       -55.9970  -30.6317    8.4401 H         1 UNK         0.0813 
     95 H95       -57.3635  -29.5721    8.6450 H         1 UNK         0.0813 
     96 H96       -55.3848  -32.2671   11.4048 H         1 UNK         0.0638 
     97 H97       -54.5437  -31.5166   10.0903 H         1 UNK         0.0638 
     98 H98       -53.3864  -31.5766   12.3672 H         1 UNK         0.0568 
     99 H99       -52.2731  -27.8487   11.4797 H         1 UNK         0.3450 
    100 H100      -53.5338  -28.1745   12.6431 H         1 UNK         0.3450 
    101 H101      -55.4766  -29.6230   13.1225 H         1 UNK         0.2987 
    102 H102      -56.0762  -29.7814   15.4717 H         1 UNK         0.0766 
    103 H103      -54.9016  -31.0764   17.2102 H         1 UNK         0.0798 
    104 H104      -55.2002  -29.4420   17.7816 H         1 UNK         0.0798 
    105 H105      -53.5868  -29.9140   17.2553 H         1 UNK         0.0798 
    106 H106      -53.8469  -27.8516   15.8585 H         1 UNK         0.3198 
    107 H107      -54.6504  -25.8726   13.3480 H         1 UNK         0.0843 
    108 H108      -56.3191  -24.8675   15.7071 H         1 UNK         0.0831 
    109 H109      -56.8412  -25.0132   14.0388 H         1 UNK         0.0831 
    110 H110      -55.6008  -23.8454   14.4615 H         1 UNK         0.0831 
    111 H111      -52.8239  -25.5156   14.4689 H         1 UNK         0.3133 
    112 H112      -51.6916  -24.1624   16.5117 H         1 UNK         0.0566 
    113 H113      -51.9546  -26.2923   18.7000 H         1 UNK         0.0814 
    114 H114      -52.3353  -24.5841   18.8705 H         1 UNK         0.0814 
    115 H115      -50.6750  -25.0834   18.5991 H         1 UNK         0.0814 
    116 H116      -50.1641  -25.5860   15.7093 H         1 UNK         0.3091 
    117 H117      -49.1251  -28.2920   15.9808 H         1 UNK         0.0702 
    118 H118      -49.4543  -29.9297   14.1359 H         1 UNK         0.0785 
    119 H119      -51.0708  -29.2912   13.8349 H         1 UNK         0.0785 
    120 H120      -50.7066  -30.1065   15.3479 H         1 UNK         0.0785 
    121 H121      -49.9762  -26.6162   13.7023 H         1 UNK         0.2998 
    122 H122      -46.6323  -25.6296   13.2058 H         1 UNK         0.0697 
    123 H123      -47.1229  -25.9559   10.7497 H         1 UNK         0.0825 
    124 H124      -48.3295  -27.1612   11.1666 H         1 UNK         0.0825 
    125 H125      -46.6393  -27.4548   11.5377 H         1 UNK         0.0825 
    126 H126      -49.0404  -24.8314   11.9098 H         1 UNK         0.3029 
    127 H127      -50.5884  -23.0584   14.4191 H         1 UNK         0.0897 
    128 H128      -48.7522  -21.3725   14.3395 H         1 UNK         0.0792 
    129 H129      -50.1341  -20.8544   13.3901 H         1 UNK         0.0792 
    130 H130      -48.6996  -21.4885   12.5878 H         1 UNK         0.0792 
    131 H131      -50.6497  -22.6479   11.5875 H         1 UNK         0.3086 
    132 H132      -52.6687  -25.4473   10.7808 H         1 UNK         0.0583 
    133 H133      -54.3871  -24.0330   11.7573 H         1 UNK         0.1020 
    134 H134      -53.5165  -22.5760   11.3843 H         1 UNK         0.1020 
    135 H135      -56.2316  -24.8879   10.4413 H         1 UNK         0.0694 
    136 H136      -56.6011  -24.5661    8.7664 H         1 UNK         0.0694 
    137 H137      -51.8900  -23.2121    9.2373 H         1 UNK         0.2989 
    138 H138      -49.6362  -24.9628    7.4539 H         1 UNK         0.1055 
    139 H139      -50.5879  -22.0886    7.9887 H         1 UNK         0.0806 
    140 H140      -51.4598  -23.3094    7.0607 H         1 UNK         0.0806 
    141 H141      -49.9232  -22.7004    6.4825 H         1 UNK         0.0806 
    142 H142      -47.6350  -24.2465    7.9918 H         1 UNK         0.3061 
    143 H143      -46.3037  -21.4474    9.3602 H         1 UNK         0.0734 
    144 H144      -46.1313  -23.8933   11.2012 H         1 UNK         0.0832 
    145 H145      -44.9758  -22.5665   11.1265 H         1 UNK         0.0832 
    146 H146      -46.6079  -22.2777   11.6947 H         1 UNK         0.0832 
    147 H147      -45.1846  -24.1016    8.9405 H         1 UNK         0.3156 
    148 H148      -45.1315  -23.9947    5.4581 H         1 UNK         0.0589 
    149 H149      -42.6577  -24.0968    5.5452 H         1 UNK         0.0808 
    150 H150      -42.6571  -23.4381    7.1826 H         1 UNK         0.0808 
    151 H151      -43.1953  -22.4517    5.8310 H         1 UNK         0.0808 
    152 H152      -43.6998  -25.7292    7.1182 H         1 UNK         0.3098 
    153 H153      -44.8147  -28.0645    6.9822 H         1 UNK         0.0720 
    154 H154      -43.6062  -27.1339    8.8881 H         1 UNK         0.0791 
    155 H155      -44.5660  -28.4613    9.5065 H         1 UNK         0.0791 
    156 H156      -45.0874  -26.7987    9.7667 H         1 UNK         0.0791 
    157 H157      -47.2285  -27.9134    8.7318 H         1 UNK         0.3028 
@<TRIPOS>BOND
     1    1    2 1    
     2    1   82 1    
     3    1   83 1    
     4    1   84 1    
     5    2    3 2    
     6    2    4 am   BACKBONE|DICT|INTERRES
     7    4    5 1    
     8    4   85 1    
     9    5    6 1    
    10    5   80 1    
    11    5   86 1    
    12    6    7 1    
    13    6   87 1    
    14    6   88 1    
    15    7    8 1    
    16    8    9 1    
    17    8   89 1    
    18    8   90 1    
    19    9   10 ar   
    20    9   14 ar   
    21   10   11 ar   
    22   10   91 1    
    23   11   12 ar   
    24   11   58 1    
    25   12   13 ar   
    26   12   92 1    
    27   13   14 ar   
    28   13   15 1    
    29   14   93 1    
    30   15   16 1    
    31   15   94 1    
    32   15   95 1    
    33   16   17 1    
    34   17   18 1    
    35   17   96 1    
    36   17   97 1    
    37   18   19 1    
    38   18   22 1    
    39   18   98 1    
    40   19   20 am   BACKBONE|DICT|INTERRES
    41   19   21 2    
    42   20   99 1    
    43   20  100 1    
    44   22   23 am   BACKBONE|DICT|INTERRES
    45   22  101 1    
    46   23   24 2    
    47   23   25 1    
    48   25   26 1    
    49   25   27 1    
    50   25  102 1    
    51   26  103 1    
    52   26  104 1    
    53   26  105 1    
    54   27   28 am   BACKBONE|DICT|INTERRES
    55   27  106 1    
    56   28   29 2    
    57   28   30 1    
    58   30   31 1    
    59   30   32 1    
    60   30  107 1    
    61   31  108 1    
    62   31  109 1    
    63   31  110 1    
    64   32   33 am   BACKBONE|DICT|INTERRES
    65   32  111 1    
    66   33   34 2    
    67   33   35 1    
    68   35   36 1    
    69   35   37 1    
    70   35  112 1    
    71   36  113 1    
    72   36  114 1    
    73   36  115 1    
    74   37   38 am   BACKBONE|DICT|INTERRES
    75   37  116 1    
    76   38   39 2    
    77   38   40 1    
    78   40   41 1    
    79   40   42 1    
    80   40  117 1    
    81   41  118 1    
    82   41  119 1    
    83   41  120 1    
    84   42   43 am   BACKBONE|DICT|INTERRES
    85   42  121 1    
    86   43   44 2    
    87   43   45 1    
    88   45   46 1    
    89   45   47 1    
    90   45  122 1    
    91   46  123 1    
    92   46  124 1    
    93   46  125 1    
    94   47   48 am   BACKBONE|DICT|INTERRES
    95   47  126 1    
    96   48   49 2    
    97   48   50 1    
    98   50   51 1    
    99   50   52 1    
   100   50  127 1    
   101   51  128 1    
   102   51  129 1    
   103   51  130 1    
   104   52   53 am   BACKBONE|DICT|INTERRES
   105   52  131 1    
   106   53   54 2    
   107   53   55 1    
   108   55   56 1    
   109   55   59 1    
   110   55  132 1    
   111   56   57 1    
   112   56  133 1    
   113   56  134 1    
   114   57   58 1    
   115   58  135 1    
   116   58  136 1    
   117   59   60 am   BACKBONE|DICT|INTERRES
   118   59  137 1    
   119   60   61 2    
   120   60   62 1    
   121   62   63 1    
   122   62   64 1    
   123   62  138 1    
   124   63  139 1    
   125   63  140 1    
   126   63  141 1    
   127   64   65 am   BACKBONE|DICT|INTERRES
   128   64  142 1    
   129   65   66 2    
   130   65   67 1    
   131   67   68 1    
   132   67   69 1    
   133   67  143 1    
   134   68  144 1    
   135   68  145 1    
   136   68  146 1    
   137   69   70 am   BACKBONE|DICT|INTERRES
   138   69  147 1    
   139   70   71 2    
   140   70   72 1    
   141   72   73 1    
   142   72   74 1    
   143   72  148 1    
   144   73  149 1    
   145   73  150 1    
   146   73  151 1    
   147   74   75 am   BACKBONE|DICT|INTERRES
   148   74  152 1    
   149   75   76 2    
   150   75   77 1    
   151   77   78 1    
   152   77   79 1    
   153   77  153 1    
   154   78  154 1    
   155   78  155 1    
   156   78  156 1    
   157   79   80 am   BACKBONE|DICT|INTERRES
   158   79  157 1    
   159   80   81 2    
@<TRIPOS>SUBSTRUCTURE
     1 UNK         1 GROUP             0       ****    0 ROOT    
