@<TRIPOS>MOLECULE
3R207
157   159    1
SMALL
USER_CHARGES


@<TRIPOS>ATOM
      1 CA        -53.4428  -24.4267    8.3927 C.3       0 UNK        -0.1975 
      2 C         -52.3407  -25.2940    7.8034 C.2       0 UNK         0.4852 
      3 O         -51.2489  -25.3538    8.3647 O.2       0 UNK        -0.5216 
      4 N         -52.6082  -25.9625    6.6740 N.am      1 UNK        -0.4461 
      5 CA        -51.6225  -26.7646    5.9426 C.3       1 UNK         0.0864 
      6 C6        -52.2981  -27.6314    4.8480 C.3       14 UNK        -0.0898 
      7 S7        -51.3227  -29.1262    4.4651 S.3       14 UNK        -0.2598 
      8 C8        -52.3222  -30.4403    5.2392 C.3       14 UNK         0.0286 
      9 C9        -52.4727  -30.2344    6.7398 C.ar      14 UNK        -0.0844 
     10 C10       -51.3879  -30.4624    7.5930 C.ar      14 UNK        -0.0881 
     11 C11       -51.5096  -30.2405    8.9679 C.ar      14 UNK        -0.0643 
     12 C12       -52.7321  -29.8090    9.4862 C.ar      14 UNK        -0.0930 
     13 C13       -53.8272  -29.5917    8.6479 C.ar      14 UNK        -0.0827 
     14 C14       -53.6933  -29.8062    7.2739 C.ar      14 UNK        -0.1249 
     15 C15       -55.1437  -29.1174    9.2407 C.3       14 UNK         0.0141 
     16 S16       -55.0460  -27.3582    9.6832 S.3       14 UNK        -0.2313 
     17 C17       -56.4294  -27.1847   10.8567 C.3       14 UNK        -0.0915 
     18 CA        -55.9322  -27.1550   12.3324 C.3       13 UNK         0.0968 
     19 C         -56.9792  -26.5948   13.3427 C.2       13 UNK         0.5732 
     20 N         -56.7549  -26.7342   14.6445 N.am      13 UNK        -0.7310 
     21 O         -57.9934  -26.0162   12.9585 O.2       13 UNK        -0.5035 
     22 N         -55.3360  -28.4326   12.7571 N.am      13 UNK        -0.4233 
     23 C         -55.9805  -29.5847   12.9866 C.2       13 UNK         0.4989 
     24 O         -57.1858  -29.7454   12.7915 O.2       13 UNK        -0.4996 
     25 CA        -55.1649  -30.7659   13.5555 C.3       12 UNK         0.0216 
     26 CB        -54.6896  -31.7150   12.4376 C.3       12 UNK        -0.1964 
     27 N         -54.0628  -30.3798   14.4526 N.am      12 UNK        -0.4276 
     28 C         -52.9456  -29.7035   14.1552 C.2       12 UNK         0.5020 
     29 O         -52.6315  -29.3486   13.0185 O.2       12 UNK        -0.5489 
     30 CA        -52.0774  -29.2599   15.3388 C.3       11 UNK         0.0294 
     31 CB        -50.6581  -29.8376   15.2280 C.3       11 UNK        -0.2019 
     32 N         -52.0096  -27.7991   15.3779 N.am      11 UNK        -0.4493 
     33 C         -53.0416  -26.9839   15.6420 C.2       11 UNK         0.4932 
     34 O         -54.1725  -27.3903   15.9185 O.2       11 UNK        -0.5029 
     35 CA        -52.7797  -25.4659   15.5606 C.3       10 UNK         0.0280 
     36 CB        -53.6735  -24.6547   16.5221 C.3       10 UNK        -0.1976 
     37 N         -51.3646  -25.1004   15.7109 N.am      10 UNK        -0.4242 
     38 C         -50.5819  -25.2586   16.7910 C.2       10 UNK         0.5072 
     39 O         -50.9702  -25.7223   17.8635 O.2       10 UNK        -0.5224 
     40 CA        -49.1007  -24.8560   16.6495 C.3       9 UNK         0.0343 
     41 CB        -48.2314  -26.1014   16.4276 C.3       9 UNK        -0.2003 
     42 N         -48.8554  -23.9035   15.5635 N.am      9 UNK        -0.4272 
     43 C         -49.2197  -22.6141   15.5970 C.2       9 UNK         0.4988 
     44 O         -49.7451  -22.0716   16.5696 O.2       9 UNK        -0.5108 
     45 CA        -48.9804  -21.8007   14.3195 C.3       8 UNK         0.0248 
     46 CB        -47.5479  -21.2421   14.2813 C.3       8 UNK        -0.2001 
     47 N         -49.2434  -22.5921   13.1147 N.am      8 UNK        -0.4140 
     48 C         -50.4669  -22.8050   12.6130 C.2       8 UNK         0.5028 
     49 O         -51.5045  -22.4097   13.1451 O.2       8 UNK        -0.5428 
     50 CA        -50.5463  -23.5473   11.2721 C.3       7 UNK         0.0264 
     51 CB        -50.0026  -22.6575   10.1396 C.3       7 UNK        -0.1988 
     52 N         -49.8577  -24.8385   11.2496 N.am      7 UNK        -0.4454 
     53 C         -50.2433  -25.9358   11.9185 C.2       7 UNK         0.5027 
     54 O         -51.1158  -25.9352   12.7855 O.2       7 UNK        -0.5083 
     55 CA        -49.5256  -27.2523   11.5651 C.3       6 UNK         0.0844 
     56 C56       -49.8179  -27.6753   10.1042 C.3       14 UNK        -0.0967 
     57 S57       -49.0006  -29.2373    9.6305 S.3       14 UNK        -0.2604 
     58 C58       -50.3246  -30.4583    9.8982 C.3       14 UNK         0.0134 
     59 N         -48.0994  -27.0792   11.8167 N.am      6 UNK        -0.4116 
     60 C         -47.4339  -27.5591   12.8736 C.2       5 UNK         0.5034 
     61 O         -47.9190  -28.3285   13.7014 O.2       5 UNK        -0.5045 
     62 CA        -45.9732  -27.1011   13.0573 C.3       5 UNK         0.0224 
     63 CB        -45.0060  -28.2479   12.7205 C.3       5 UNK        -0.1978 
     64 N         -45.6094  -25.9251   12.2607 N.am      5 UNK        -0.4737 
     65 C         -46.1457  -24.7033   12.3874 C.2       4 UNK         0.5027 
     66 O         -46.9744  -24.4041   13.2467 O.2       4 UNK        -0.5211 
     67 CA        -45.7579  -23.6726   11.3125 C.3       4 UNK         0.0297 
     68 CB        -44.5310  -22.8641   11.7599 C.3       4 UNK        -0.1993 
     69 N         -45.5014  -24.2861   10.0012 N.am      4 UNK        -0.4486 
     70 C         -46.4241  -24.9338    9.2764 C.2       3 UNK         0.4961 
     71 O         -47.6028  -25.0533    9.6163 O.2       3 UNK        -0.5105 
     72 CA        -45.9431  -25.6317    8.0045 C.3       3 UNK         0.0299 
     73 CB        -45.5289  -27.0821    8.3172 C.3       3 UNK        -0.1972 
     74 N         -47.0261  -25.6164    7.0238 N.am      3 UNK        -0.4305 
     75 C         -46.8596  -25.7291    5.7005 C.2       2 UNK         0.5006 
     76 O         -45.7629  -25.9186    5.1705 O.2       2 UNK        -0.5106 
     77 CA        -48.1166  -25.6045    4.8238 C.3       2 UNK         0.0296 
     78 CB        -47.9050  -26.1160    3.3837 C.3       2 UNK        -0.2002 
     79 N         -49.2630  -26.2901    5.4242 N.am      2 UNK        -0.4032 
     80 C         -50.5277  -25.8593    5.3362 C.2       1 UNK         0.5000 
     81 O         -50.8569  -24.8092    4.7752 O.2       1 UNK        -0.5238 
     82 H82       -53.5680  -24.6509    9.4516 H         1 UNK         0.0889 
     83 H83       -54.3990  -24.5915    7.8966 H         1 UNK         0.0889 
     84 H84       -53.1812  -23.3735    8.2968 H         1 UNK         0.0889 
     85 H85       -53.5112  -25.8603    6.2350 H         1 UNK         0.3028 
     86 H86       -51.1615  -27.4281    6.6790 H         1 UNK         0.0864 
     87 H87       -53.2931  -27.9421    5.1680 H         1 UNK         0.0720 
     88 H88       -52.4590  -27.0657    3.9278 H         1 UNK         0.0720 
     89 H89       -51.8466  -31.4041    5.0522 H         1 UNK         0.0814 
     90 H90       -53.2981  -30.4833    4.7530 H         1 UNK         0.0814 
     91 H91       -50.4408  -30.7883    7.1849 H         1 UNK         0.1469 
     92 H92       -52.8296  -29.6206   10.5451 H         1 UNK         0.1381 
     93 H93       -54.5358  -29.6285    6.6197 H         1 UNK         0.1206 
     94 H94       -55.3737  -29.7134   10.1234 H         1 UNK         0.0813 
     95 H95       -55.9667  -29.2691    8.5409 H         1 UNK         0.0813 
     96 H96       -57.1644  -27.9754   10.6994 H         1 UNK         0.0638 
     97 H97       -56.9312  -26.2502   10.6010 H         1 UNK         0.0638 
     98 H98       -55.1191  -26.4294   12.3765 H         1 UNK         0.0568 
     99 H99       -57.4312  -26.3723   15.2971 H         1 UNK         0.3450 
    100 H100      -55.8994  -27.1561   14.9903 H         1 UNK         0.3450 
    101 H101      -54.3297  -28.4346   12.8921 H         1 UNK         0.2987 
    102 H102      -55.8575  -31.3314   14.1812 H         1 UNK         0.0766 
    103 H103      -54.2115  -32.6031   12.8503 H         1 UNK         0.0798 
    104 H104      -53.9790  -31.2370   11.7655 H         1 UNK         0.0798 
    105 H105      -55.5304  -32.0523   11.8300 H         1 UNK         0.0798 
    106 H106      -54.2386  -30.5651   15.4311 H         1 UNK         0.3198 
    107 H107      -52.5213  -29.6063   16.2745 H         1 UNK         0.0843 
    108 H108      -50.1834  -29.5583   14.2868 H         1 UNK         0.0831 
    109 H109      -50.6779  -30.9272   15.2684 H         1 UNK         0.0831 
    110 H110      -50.0192  -29.4925   16.0411 H         1 UNK         0.0831 
    111 H111      -51.1476  -27.3764   15.0666 H         1 UNK         0.3133 
    112 H112      -53.0529  -25.1737   14.5458 H         1 UNK         0.0566 
    113 H113      -53.5228  -24.9480   17.5613 H         1 UNK         0.0814 
    114 H114      -53.4744  -23.5861   16.4411 H         1 UNK         0.0814 
    115 H115      -54.7296  -24.8041   16.2938 H         1 UNK         0.0814 
    116 H116      -50.9330  -24.7447   14.8679 H         1 UNK         0.3091 
    117 H117      -48.7942  -24.3889   17.5880 H         1 UNK         0.0702 
    118 H118      -47.1766  -25.8434   16.3309 H         1 UNK         0.0785 
    119 H119      -48.5335  -26.6351   15.5283 H         1 UNK         0.0785 
    120 H120      -48.3224  -26.7964   17.2635 H         1 UNK         0.0785 
    121 H121      -48.3637  -24.2432   14.7422 H         1 UNK         0.2998 
    122 H122      -49.6664  -20.9506   14.3325 H         1 UNK         0.0697 
    123 H123      -46.7974  -22.0310   14.3280 H         1 UNK         0.0825 
    124 H124      -47.3699  -20.5793   15.1291 H         1 UNK         0.0825 
    125 H125      -47.3706  -20.6626   13.3752 H         1 UNK         0.0825 
    126 H126      -48.4466  -23.0446   12.6841 H         1 UNK         0.3029 
    127 H127      -51.6016  -23.7406   11.0674 H         1 UNK         0.0897 
    128 H128      -50.5075  -21.6907   10.1242 H         1 UNK         0.0792 
    129 H129      -50.1568  -23.1152    9.1632 H         1 UNK         0.0792 
    130 H130      -48.9342  -22.4678   10.2474 H         1 UNK         0.0792 
    131 H131      -49.1104  -24.9275   10.5627 H         1 UNK         0.3086 
    132 H132      -49.9318  -28.0284   12.2178 H         1 UNK         0.0583 
    133 H133      -50.8934  -27.7495    9.9375 H         1 UNK         0.1020 
    134 H134      -49.4670  -26.9156    9.4054 H         1 UNK         0.1020 
    135 H135      -49.9211  -31.4584    9.7351 H         1 UNK         0.0694 
    136 H136      -50.6367  -30.4192   10.9436 H         1 UNK         0.0694 
    137 H137      -47.6194  -26.4466   11.1902 H         1 UNK         0.2989 
    138 H138      -45.8517  -26.8409   14.1112 H         1 UNK         0.1055 
    139 H139      -45.2236  -29.1317   13.3222 H         1 UNK         0.0806 
    140 H140      -43.9716  -27.9691   12.9225 H         1 UNK         0.0806 
    141 H141      -45.0786  -28.5424   11.6726 H         1 UNK         0.0806 
    142 H142      -44.9364  -26.0704   11.5225 H         1 UNK         0.3061 
    143 H143      -46.5970  -22.9831   11.2000 H         1 UNK         0.0734 
    144 H144      -44.7110  -22.3838   12.7229 H         1 UNK         0.0832 
    145 H145      -44.2941  -22.0743   11.0468 H         1 UNK         0.0832 
    146 H146      -43.6476  -23.4941   11.8711 H         1 UNK         0.0832 
    147 H147      -44.5542  -24.2357    9.6524 H         1 UNK         0.3156 
    148 H148      -45.0875  -25.0815    7.6070 H         1 UNK         0.0589 
    149 H149      -44.7268  -27.1135    9.0554 H         1 UNK         0.0808 
    150 H150      -46.3635  -27.6613    8.7155 H         1 UNK         0.0808 
    151 H151      -45.1646  -27.5936    7.4263 H         1 UNK         0.0808 
    152 H152      -47.9427  -25.4218    7.4095 H         1 UNK         0.3098 
    153 H153      -48.3230  -24.5333    4.7716 H         1 UNK         0.0720 
    154 H154      -48.7952  -25.9627    2.7732 H         1 UNK         0.0791 
    155 H155      -47.6678  -27.1803    3.3679 H         1 UNK         0.0791 
    156 H156      -47.0860  -25.5885    2.8930 H         1 UNK         0.0791 
    157 H157      -49.0659  -27.1612    5.8987 H         1 UNK         0.3028 
@<TRIPOS>BOND
     1    1    2 1    
     2    1   82 1    
     3    1   83 1    
     4    1   84 1    
     5    2    3 2    
     6    2    4 am   BACKBONE|DICT|INTERRES
     7    4    5 1    
     8    4   85 1    
     9    5    6 1    
    10    5   80 1    
    11    5   86 1    
    12    6    7 1    
    13    6   87 1    
    14    6   88 1    
    15    7    8 1    
    16    8    9 1    
    17    8   89 1    
    18    8   90 1    
    19    9   10 ar   
    20    9   14 ar   
    21   10   11 ar   
    22   10   91 1    
    23   11   12 ar   
    24   11   58 1    
    25   12   13 ar   
    26   12   92 1    
    27   13   14 ar   
    28   13   15 1    
    29   14   93 1    
    30   15   16 1    
    31   15   94 1    
    32   15   95 1    
    33   16   17 1    
    34   17   18 1    
    35   17   96 1    
    36   17   97 1    
    37   18   19 1    
    38   18   22 1    
    39   18   98 1    
    40   19   20 am   BACKBONE|DICT|INTERRES
    41   19   21 2    
    42   20   99 1    
    43   20  100 1    
    44   22   23 am   BACKBONE|DICT|INTERRES
    45   22  101 1    
    46   23   24 2    
    47   23   25 1    
    48   25   26 1    
    49   25   27 1    
    50   25  102 1    
    51   26  103 1    
    52   26  104 1    
    53   26  105 1    
    54   27   28 am   BACKBONE|DICT|INTERRES
    55   27  106 1    
    56   28   29 2    
    57   28   30 1    
    58   30   31 1    
    59   30   32 1    
    60   30  107 1    
    61   31  108 1    
    62   31  109 1    
    63   31  110 1    
    64   32   33 am   BACKBONE|DICT|INTERRES
    65   32  111 1    
    66   33   34 2    
    67   33   35 1    
    68   35   36 1    
    69   35   37 1    
    70   35  112 1    
    71   36  113 1    
    72   36  114 1    
    73   36  115 1    
    74   37   38 am   BACKBONE|DICT|INTERRES
    75   37  116 1    
    76   38   39 2    
    77   38   40 1    
    78   40   41 1    
    79   40   42 1    
    80   40  117 1    
    81   41  118 1    
    82   41  119 1    
    83   41  120 1    
    84   42   43 am   BACKBONE|DICT|INTERRES
    85   42  121 1    
    86   43   44 2    
    87   43   45 1    
    88   45   46 1    
    89   45   47 1    
    90   45  122 1    
    91   46  123 1    
    92   46  124 1    
    93   46  125 1    
    94   47   48 am   BACKBONE|DICT|INTERRES
    95   47  126 1    
    96   48   49 2    
    97   48   50 1    
    98   50   51 1    
    99   50   52 1    
   100   50  127 1    
   101   51  128 1    
   102   51  129 1    
   103   51  130 1    
   104   52   53 am   BACKBONE|DICT|INTERRES
   105   52  131 1    
   106   53   54 2    
   107   53   55 1    
   108   55   56 1    
   109   55   59 1    
   110   55  132 1    
   111   56   57 1    
   112   56  133 1    
   113   56  134 1    
   114   57   58 1    
   115   58  135 1    
   116   58  136 1    
   117   59   60 am   BACKBONE|DICT|INTERRES
   118   59  137 1    
   119   60   61 2    
   120   60   62 1    
   121   62   63 1    
   122   62   64 1    
   123   62  138 1    
   124   63  139 1    
   125   63  140 1    
   126   63  141 1    
   127   64   65 am   BACKBONE|DICT|INTERRES
   128   64  142 1    
   129   65   66 2    
   130   65   67 1    
   131   67   68 1    
   132   67   69 1    
   133   67  143 1    
   134   68  144 1    
   135   68  145 1    
   136   68  146 1    
   137   69   70 am   BACKBONE|DICT|INTERRES
   138   69  147 1    
   139   70   71 2    
   140   70   72 1    
   141   72   73 1    
   142   72   74 1    
   143   72  148 1    
   144   73  149 1    
   145   73  150 1    
   146   73  151 1    
   147   74   75 am   BACKBONE|DICT|INTERRES
   148   74  152 1    
   149   75   76 2    
   150   75   77 1    
   151   77   78 1    
   152   77   79 1    
   153   77  153 1    
   154   78  154 1    
   155   78  155 1    
   156   78  156 1    
   157   79   80 am   BACKBONE|DICT|INTERRES
   158   79  157 1    
   159   80   81 2    
@<TRIPOS>SUBSTRUCTURE
     1 UNK         1 GROUP             0       ****    0 ROOT    
