@<TRIPOS>MOLECULE
3R207
157   159    1
SMALL
USER_CHARGES


@<TRIPOS>ATOM
      1 CA        -45.1228  -32.4159    3.4387 C.3       0 UNK        -0.1975 
      2 C         -46.3203  -31.7175    4.0675 C.2       0 UNK         0.4852 
      3 O         -46.9183  -32.2649    4.9935 O.2       0 UNK        -0.5216 
      4 N         -46.6659  -30.5275    3.5541 N.am      1 UNK        -0.4461 
      5 CA        -47.7321  -29.6278    4.0101 C.3       1 UNK         0.0864 
      6 C6        -49.1406  -30.2775    4.0224 C.3       14 UNK        -0.0898 
      7 S7        -50.4730  -29.0302    3.9901 S.3       14 UNK        -0.2598 
      8 C8        -51.8582  -29.9775    4.6936 C.3       14 UNK         0.0286 
      9 C9        -52.0972  -29.6678    6.1666 C.ar      14 UNK        -0.0844 
     10 C10       -51.2541  -30.1874    7.1545 C.ar      14 UNK        -0.0881 
     11 C11       -51.5224  -29.9757    8.5117 C.ar      14 UNK        -0.0643 
     12 C12       -52.6600  -29.2414    8.8727 C.ar      14 UNK        -0.0930 
     13 C13       -53.4986  -28.6979    7.8965 C.ar      14 UNK        -0.0827 
     14 C14       -53.2070  -28.9074    6.5460 C.ar      14 UNK        -0.1249 
     15 C15       -54.7481  -27.9285    8.2975 C.3       14 UNK         0.0141 
     16 S16       -54.3579  -26.2688    8.9372 S.3       14 UNK        -0.2313 
     17 C17       -54.6474  -26.4747   10.7280 C.3       14 UNK        -0.0915 
     18 CA        -56.0484  -25.9483   11.1663 C.3       13 UNK         0.0968 
     19 C         -57.1504  -27.0376   11.0458 C.2       13 UNK         0.5732 
     20 N         -57.7476  -27.1830    9.8709 N.am      13 UNK        -0.7310 
     21 O         -57.4647  -27.7576   11.9912 O.2       13 UNK        -0.5035 
     22 N         -56.0682  -25.2797   12.4789 N.am      13 UNK        -0.4233 
     23 C         -55.5803  -25.7393   13.6375 C.2       13 UNK         0.4989 
     24 O         -54.8688  -26.7384   13.7581 O.2       13 UNK        -0.4996 
     25 CA        -55.9853  -24.9538   14.8902 C.3       12 UNK         0.0216 
     26 CB        -57.3017  -25.5110   15.4676 C.3       12 UNK        -0.1964 
     27 N         -54.9104  -25.0487   15.8732 N.am      12 UNK        -0.4276 
     28 C         -54.7681  -24.2967   16.9715 C.2       12 UNK         0.5020 
     29 O         -55.5796  -23.4321   17.3086 O.2       12 UNK        -0.5489 
     30 CA        -53.4995  -24.5033   17.8254 C.3       11 UNK         0.0294 
     31 CB        -53.8005  -24.5296   19.3395 C.3       11 UNK        -0.2019 
     32 N         -52.6737  -25.6451   17.4075 N.am      11 UNK        -0.4493 
     33 C         -52.9219  -26.9538   17.5608 C.2       11 UNK         0.4932 
     34 O         -53.9058  -27.4038   18.1478 O.2       11 UNK        -0.5029 
     35 CA        -51.9246  -27.9401   16.9273 C.3       10 UNK         0.0280 
     36 CB        -52.5500  -28.6179   15.6972 C.3       10 UNK        -0.1976 
     37 N         -50.6507  -27.3277   16.5362 N.am      10 UNK        -0.4242 
     38 C         -49.6377  -27.0789   17.3774 C.2       10 UNK         0.5072 
     39 O         -49.6838  -27.2969   18.5890 O.2       10 UNK        -0.5224 
     40 CA        -48.3486  -26.5058   16.7642 C.3       9 UNK         0.0343 
     41 CB        -47.5842  -27.5908   15.9875 C.3       9 UNK        -0.2003 
     42 N         -48.5888  -25.3563   15.8907 N.am      9 UNK        -0.4272 
     43 C         -48.9696  -24.1430   16.3145 C.2       9 UNK         0.4988 
     44 O         -49.1510  -23.8549   17.4979 O.2       9 UNK        -0.5108 
     45 CA        -49.1992  -23.0675   15.2366 C.3       8 UNK         0.0248 
     46 CB        -47.8683  -22.4382   14.7949 C.3       8 UNK        -0.2001 
     47 N         -49.9239  -23.5752   14.0687 N.am      8 UNK        -0.4140 
     48 C         -51.1842  -24.0301   14.1143 C.2       8 UNK         0.5028 
     49 O         -51.8791  -24.0131   15.1276 O.2       8 UNK        -0.5428 
     50 CA        -51.7654  -24.6388   12.8318 C.3       7 UNK         0.0264 
     51 CB        -52.2778  -23.5285   11.8991 C.3       7 UNK        -0.1988 
     52 N         -50.8190  -25.5005   12.1206 N.am      7 UNK        -0.4454 
     53 C         -50.2471  -26.6033   12.6298 C.2       7 UNK         0.5027 
     54 O         -50.4716  -27.0288   13.7623 O.2       7 UNK        -0.5083 
     55 CA        -49.1847  -27.3068   11.7596 C.3       6 UNK         0.0844 
     56 C56       -49.8192  -28.1109   10.6002 C.3       14 UNK        -0.0967 
     57 S57       -50.5045  -29.7063   11.1470 S.3       14 UNK        -0.2604 
     58 C58       -50.5931  -30.5988    9.5554 C.3       14 UNK         0.0134 
     59 N         -48.1806  -26.3608   11.2733 N.am      6 UNK        -0.4116 
     60 C         -47.4019  -25.5868   12.0420 C.2       5 UNK         0.5034 
     61 O         -47.3711  -25.6393   13.2707 O.2       5 UNK        -0.5045 
     62 CA        -46.5566  -24.5329   11.3125 C.3       5 UNK         0.0224 
     63 CB        -45.2373  -25.1390   10.8097 C.3       5 UNK        -0.1978 
     64 N         -47.2921  -23.9326   10.1958 N.am      5 UNK        -0.4737 
     65 C         -48.3331  -23.1014   10.3469 C.2       4 UNK         0.5027 
     66 O         -48.7365  -22.7072   11.4412 O.2       4 UNK        -0.5211 
     67 CA        -49.0685  -22.6726    9.0650 C.3       4 UNK         0.0297 
     68 CB        -48.3172  -21.5295    8.3647 C.3       4 UNK        -0.1993 
     69 N         -49.2693  -23.7819    8.1265 N.am      4 UNK        -0.4486 
     70 C         -50.0608  -24.8371    8.3684 C.2       3 UNK         0.4961 
     71 O         -50.7285  -24.9634    9.3913 O.2       3 UNK        -0.5105 
     72 CA        -50.0835  -25.9647    7.3220 C.3       3 UNK         0.0299 
     73 CB        -51.1686  -25.6977    6.2679 C.3       3 UNK        -0.1972 
     74 N         -48.7973  -26.2080    6.6594 N.am      3 UNK        -0.4305 
     75 C         -47.6451  -26.5076    7.2798 C.2       2 UNK         0.5006 
     76 O         -47.5118  -26.5181    8.5045 O.2       2 UNK        -0.5106 
     77 CA        -46.4476  -26.8485    6.3697 C.3       2 UNK         0.0296 
     78 CB        -45.2417  -27.4167    7.1486 C.3       2 UNK        -0.2002 
     79 N         -46.8179  -27.7373    5.2596 N.am      2 UNK        -0.4032 
     80 C         -47.3630  -28.9619    5.3522 C.2       1 UNK         0.5000 
     81 O         -47.5770  -29.5468    6.4165 O.2       1 UNK        -0.5238 
     82 H82       -44.6906  -31.8354    2.6238 H         1 UNK         0.0889 
     83 H83       -45.4204  -33.3862    3.0420 H         1 UNK         0.0889 
     84 H84       -44.3476  -32.5773    4.1875 H         1 UNK         0.0889 
     85 H85       -46.1086  -30.1610    2.7944 H         1 UNK         0.3028 
     86 H86       -47.7602  -28.8416    3.2533 H         1 UNK         0.0864 
     87 H87       -49.2665  -30.9052    3.1390 H         1 UNK         0.0720 
     88 H88       -49.2615  -30.9408    4.8794 H         1 UNK         0.0720 
     89 H89       -51.6905  -31.0477    4.5641 H         1 UNK         0.0814 
     90 H90       -52.7533  -29.7488    4.1130 H         1 UNK         0.0814 
     91 H91       -50.3931  -30.7747    6.8674 H         1 UNK         0.1469 
     92 H92       -52.9022  -29.0901    9.9149 H         1 UNK         0.1381 
     93 H93       -53.8643  -28.5037    5.7879 H         1 UNK         0.1206 
     94 H94       -55.4138  -27.8159    7.4406 H         1 UNK         0.0813 
     95 H95       -55.3084  -28.5057    9.0337 H         1 UNK         0.0813 
     96 H96       -53.8617  -25.9097   11.2242 H         1 UNK         0.0638 
     97 H97       -54.4867  -27.5106   11.0320 H         1 UNK         0.0638 
     98 H98       -56.3313  -25.1453   10.4839 H         1 UNK         0.0568 
     99 H99       -58.4647  -27.8839    9.7702 H         1 UNK         0.3450 
    100 H100      -57.5003  -26.6008    9.0863 H         1 UNK         0.3450 
    101 H101      -56.6500  -24.4549   12.5121 H         1 UNK         0.2987 
    102 H102      -56.1167  -23.9031   14.6229 H         1 UNK         0.0766 
    103 H103      -57.6446  -24.9302   16.3238 H         1 UNK         0.0798 
    104 H104      -57.1891  -26.5470   15.7900 H         1 UNK         0.0798 
    105 H105      -58.0990  -25.4863   14.7236 H         1 UNK         0.0798 
    106 H106      -54.1880  -25.7189   15.6414 H         1 UNK         0.3198 
    107 H107      -52.8813  -23.6236   17.6398 H         1 UNK         0.0843 
    108 H108      -54.5049  -25.3189   19.6023 H         1 UNK         0.0831 
    109 H109      -54.2420  -23.5866   19.6638 H         1 UNK         0.0831 
    110 H110      -52.8921  -24.6783   19.9232 H         1 UNK         0.0831 
    111 H111      -51.8770  -25.3853   16.8367 H         1 UNK         0.3133 
    112 H112      -51.7234  -28.7162   17.6687 H         1 UNK         0.0566 
    113 H113      -52.7646  -27.8980   14.9072 H         1 UNK         0.0814 
    114 H114      -51.8869  -29.3770   15.2821 H         1 UNK         0.0814 
    115 H115      -53.4892  -29.1108   15.9519 H         1 UNK         0.0814 
    116 H116      -50.5244  -27.1404   15.5404 H         1 UNK         0.3091 
    117 H117      -47.7115  -26.1731   17.5865 H         1 UNK         0.0702 
    118 H118      -46.6225  -27.2188   15.6335 H         1 UNK         0.0785 
    119 H119      -48.1448  -27.9387   15.1189 H         1 UNK         0.0785 
    120 H120      -47.3850  -28.4579   16.6186 H         1 UNK         0.0785 
    121 H121      -48.4083  -25.4920   14.8993 H         1 UNK         0.2998 
    122 H122      -49.8104  -22.2800   15.6828 H         1 UNK         0.0697 
    123 H123      -47.2034  -23.1719   14.3397 H         1 UNK         0.0825 
    124 H124      -47.3412  -22.0055   15.6462 H         1 UNK         0.0825 
    125 H125      -48.0284  -21.6385   14.0714 H         1 UNK         0.0825 
    126 H126      -49.4378  -23.5631   13.1774 H         1 UNK         0.3029 
    127 H127      -52.6097  -25.2641   13.1250 H         1 UNK         0.0897 
    128 H128      -52.7284  -23.9343   10.9940 H         1 UNK         0.0792 
    129 H129      -53.0373  -22.9235   12.3960 H         1 UNK         0.0792 
    130 H130      -51.4748  -22.8581   11.5918 H         1 UNK         0.0792 
    131 H131      -50.6215  -25.2459   11.1528 H         1 UNK         0.3086 
    132 H132      -48.6455  -28.0047   12.4040 H         1 UNK         0.0583 
    133 H133      -50.6012  -27.5408   10.0967 H         1 UNK         0.1020 
    134 H134      -49.0660  -28.3230    9.8391 H         1 UNK         0.1020 
    135 H135      -49.5819  -30.6808    9.1525 H         1 UNK         0.0694 
    136 H136      -50.9308  -31.6172    9.7505 H         1 UNK         0.0694 
    137 H137      -48.0809  -26.2811   10.2640 H         1 UNK         0.2989 
    138 H138      -46.3184  -23.7432   12.0286 H         1 UNK         0.1055 
    139 H139      -44.6518  -25.5342   11.6410 H         1 UNK         0.0806 
    140 H140      -44.6222  -24.3928   10.3065 H         1 UNK         0.0806 
    141 H141      -45.4069  -25.9611   10.1145 H         1 UNK         0.0806 
    142 H142      -47.0643  -24.2625    9.2685 H         1 UNK         0.3061 
    143 H143      -50.0526  -22.3013    9.3597 H         1 UNK         0.0734 
    144 H144      -48.8734  -21.1574    7.5042 H         1 UNK         0.0832 
    145 H145      -48.1727  -20.6872    9.0430 H         1 UNK         0.0832 
    146 H146      -47.3308  -21.8415    8.0192 H         1 UNK         0.0832 
    147 H147      -48.7543  -23.7556    7.2587 H         1 UNK         0.3156 
    148 H148      -50.3506  -26.8871    7.8406 H         1 UNK         0.0589 
    149 H149      -50.9464  -24.8141    5.6687 H         1 UNK         0.0808 
    150 H150      -51.2827  -26.5459    5.5931 H         1 UNK         0.0808 
    151 H151      -52.1382  -25.5380    6.7422 H         1 UNK         0.0808 
    152 H152      -48.8122  -26.2268    5.6503 H         1 UNK         0.3098 
    153 H153      -46.1313  -25.9067    5.9190 H         1 UNK         0.0720 
    154 H154      -44.4156  -27.6596    6.4804 H         1 UNK         0.0791 
    155 H155      -45.5045  -28.3204    7.6997 H         1 UNK         0.0791 
    156 H156      -44.8681  -26.6916    7.8718 H         1 UNK         0.0791 
    157 H157      -46.6734  -27.3533    4.3355 H         1 UNK         0.3028 
@<TRIPOS>BOND
     1    1    2 1    
     2    1   82 1    
     3    1   83 1    
     4    1   84 1    
     5    2    3 2    
     6    2    4 am   BACKBONE|DICT|INTERRES
     7    4    5 1    
     8    4   85 1    
     9    5    6 1    
    10    5   80 1    
    11    5   86 1    
    12    6    7 1    
    13    6   87 1    
    14    6   88 1    
    15    7    8 1    
    16    8    9 1    
    17    8   89 1    
    18    8   90 1    
    19    9   10 ar   
    20    9   14 ar   
    21   10   11 ar   
    22   10   91 1    
    23   11   12 ar   
    24   11   58 1    
    25   12   13 ar   
    26   12   92 1    
    27   13   14 ar   
    28   13   15 1    
    29   14   93 1    
    30   15   16 1    
    31   15   94 1    
    32   15   95 1    
    33   16   17 1    
    34   17   18 1    
    35   17   96 1    
    36   17   97 1    
    37   18   19 1    
    38   18   22 1    
    39   18   98 1    
    40   19   20 am   BACKBONE|DICT|INTERRES
    41   19   21 2    
    42   20   99 1    
    43   20  100 1    
    44   22   23 am   BACKBONE|DICT|INTERRES
    45   22  101 1    
    46   23   24 2    
    47   23   25 1    
    48   25   26 1    
    49   25   27 1    
    50   25  102 1    
    51   26  103 1    
    52   26  104 1    
    53   26  105 1    
    54   27   28 am   BACKBONE|DICT|INTERRES
    55   27  106 1    
    56   28   29 2    
    57   28   30 1    
    58   30   31 1    
    59   30   32 1    
    60   30  107 1    
    61   31  108 1    
    62   31  109 1    
    63   31  110 1    
    64   32   33 am   BACKBONE|DICT|INTERRES
    65   32  111 1    
    66   33   34 2    
    67   33   35 1    
    68   35   36 1    
    69   35   37 1    
    70   35  112 1    
    71   36  113 1    
    72   36  114 1    
    73   36  115 1    
    74   37   38 am   BACKBONE|DICT|INTERRES
    75   37  116 1    
    76   38   39 2    
    77   38   40 1    
    78   40   41 1    
    79   40   42 1    
    80   40  117 1    
    81   41  118 1    
    82   41  119 1    
    83   41  120 1    
    84   42   43 am   BACKBONE|DICT|INTERRES
    85   42  121 1    
    86   43   44 2    
    87   43   45 1    
    88   45   46 1    
    89   45   47 1    
    90   45  122 1    
    91   46  123 1    
    92   46  124 1    
    93   46  125 1    
    94   47   48 am   BACKBONE|DICT|INTERRES
    95   47  126 1    
    96   48   49 2    
    97   48   50 1    
    98   50   51 1    
    99   50   52 1    
   100   50  127 1    
   101   51  128 1    
   102   51  129 1    
   103   51  130 1    
   104   52   53 am   BACKBONE|DICT|INTERRES
   105   52  131 1    
   106   53   54 2    
   107   53   55 1    
   108   55   56 1    
   109   55   59 1    
   110   55  132 1    
   111   56   57 1    
   112   56  133 1    
   113   56  134 1    
   114   57   58 1    
   115   58  135 1    
   116   58  136 1    
   117   59   60 am   BACKBONE|DICT|INTERRES
   118   59  137 1    
   119   60   61 2    
   120   60   62 1    
   121   62   63 1    
   122   62   64 1    
   123   62  138 1    
   124   63  139 1    
   125   63  140 1    
   126   63  141 1    
   127   64   65 am   BACKBONE|DICT|INTERRES
   128   64  142 1    
   129   65   66 2    
   130   65   67 1    
   131   67   68 1    
   132   67   69 1    
   133   67  143 1    
   134   68  144 1    
   135   68  145 1    
   136   68  146 1    
   137   69   70 am   BACKBONE|DICT|INTERRES
   138   69  147 1    
   139   70   71 2    
   140   70   72 1    
   141   72   73 1    
   142   72   74 1    
   143   72  148 1    
   144   73  149 1    
   145   73  150 1    
   146   73  151 1    
   147   74   75 am   BACKBONE|DICT|INTERRES
   148   74  152 1    
   149   75   76 2    
   150   75   77 1    
   151   77   78 1    
   152   77   79 1    
   153   77  153 1    
   154   78  154 1    
   155   78  155 1    
   156   78  156 1    
   157   79   80 am   BACKBONE|DICT|INTERRES
   158   79  157 1    
   159   80   81 2    
@<TRIPOS>SUBSTRUCTURE
     1 UNK         1 GROUP             0       ****    0 ROOT    
