@<TRIPOS>MOLECULE
3R207
157   159    1
SMALL
USER_CHARGES


@<TRIPOS>ATOM
      1 CA        -47.7482  -26.9296   10.5374 C.3       0 UNK        -0.1975 
      2 C         -47.5701  -28.0315    9.5074 C.2       0 UNK         0.4852 
      3 O         -47.1922  -29.1495    9.8599 O.2       0 UNK        -0.5216 
      4 N         -47.8570  -27.7153    8.2415 N.am      1 UNK        -0.4461 
      5 CA        -47.6899  -28.6166    7.0977 C.3       1 UNK         0.0864 
      6 C6        -48.9683  -29.4161    6.7388 C.3       14 UNK        -0.0898 
      7 S7        -50.4529  -28.3948    6.4464 S.3       14 UNK        -0.2598 
      8 C8        -51.2376  -28.4927    8.0897 C.3       14 UNK         0.0286 
      9 C9        -52.5395  -27.7081    8.1925 C.ar      14 UNK        -0.0844 
     10 C10       -52.6494  -26.4163    7.6671 C.ar      14 UNK        -0.0881 
     11 C11       -53.8269  -25.6766    7.8230 C.ar      14 UNK        -0.0643 
     12 C12       -54.9040  -26.2487    8.5079 C.ar      14 UNK        -0.0930 
     13 C13       -54.8148  -27.5440    9.0274 C.ar      14 UNK        -0.0827 
     14 C14       -53.6302  -28.2673    8.8640 C.ar      14 UNK        -0.1249 
     15 C15       -56.0057  -28.1637    9.7472 C.3       14 UNK         0.0141 
     16 S16       -55.8733  -27.9896   11.5552 S.3       14 UNK        -0.2313 
     17 C17       -54.7861  -29.3900   11.9949 C.3       14 UNK        -0.0915 
     18 CA        -55.3341  -30.2393   13.1729 C.3       13 UNK         0.0968 
     19 C         -54.4643  -31.5056   13.4305 C.2       13 UNK         0.5732 
     20 N         -54.0646  -31.8164   14.6592 N.am      13 UNK        -0.7310 
     21 O         -54.1572  -32.2395   12.4940 O.2       13 UNK        -0.5035 
     22 N         -55.5431  -29.4283   14.3819 N.am      13 UNK        -0.4233 
     23 C         -56.5863  -29.5595   15.2107 C.2       13 UNK         0.4989 
     24 O         -57.5275  -30.3292   15.0066 O.2       13 UNK        -0.4996 
     25 CA        -56.5782  -28.6876   16.4831 C.3       12 UNK         0.0216 
     26 CB        -57.5412  -29.2083   17.5717 C.3       12 UNK        -0.1964 
     27 N         -55.2396  -28.4717   17.0468 N.am      12 UNK        -0.4276 
     28 C         -54.3629  -29.4045   17.4557 C.2       12 UNK         0.5020 
     29 O         -54.5762  -30.6154   17.3765 O.2       12 UNK        -0.5489 
     30 CA        -53.0112  -28.9152   18.0145 C.3       11 UNK         0.0294 
     31 CB        -51.8482  -29.8039   17.5351 C.3       11 UNK        -0.2019 
     32 N         -52.7403  -27.5345   17.6136 N.am      11 UNK        -0.4493 
     33 C         -52.8842  -26.4491   18.3866 C.2       11 UNK         0.4932 
     34 O         -53.1690  -26.4933   19.5831 O.2       11 UNK        -0.5029 
     35 CA        -52.7189  -25.0764   17.7040 C.3       10 UNK         0.0280 
     36 CB        -51.3272  -24.4952   17.9975 C.3       10 UNK        -0.1976 
     37 N         -52.9384  -25.1235   16.2529 N.am      10 UNK        -0.4242 
     38 C         -54.1284  -25.3698   15.6783 C.2       10 UNK         0.5072 
     39 O         -55.1717  -25.5043   16.3180 O.2       10 UNK        -0.5224 
     40 CA        -54.1623  -25.5866   14.1533 C.3       9 UNK         0.0343 
     41 CB        -54.5542  -24.2910   13.4282 C.3       9 UNK        -0.2003 
     42 N         -52.9000  -26.0946   13.6093 N.am      9 UNK        -0.4272 
     43 C         -52.3464  -27.2697   13.9493 C.2       9 UNK         0.4988 
     44 O         -52.9080  -28.0845   14.6820 O.2       9 UNK        -0.5108 
     45 CA        -50.9238  -27.5831   13.4436 C.3       8 UNK         0.0248 
     46 CB        -50.9735  -28.5819   12.2756 C.3       8 UNK        -0.2001 
     47 N         -50.1582  -26.4040   13.0314 N.am      8 UNK        -0.4140 
     48 C         -49.8513  -25.3501   13.8023 C.2       8 UNK         0.5028 
     49 O         -50.1203  -25.2824   15.0016 O.2       8 UNK        -0.5428 
     50 CA        -49.2079  -24.1354   13.1014 C.3       7 UNK         0.0264 
     51 CB        -47.6873  -24.1375   13.3238 C.3       7 UNK        -0.1988 
     52 N         -49.5013  -24.0190   11.6608 N.am      7 UNK        -0.4454 
     53 C         -50.7385  -23.9837   11.1304 C.2       7 UNK         0.5027 
     54 O         -51.7561  -24.0484   11.8208 O.2       7 UNK        -0.5083 
     55 CA        -50.8820  -23.9048    9.5966 C.3       6 UNK         0.0844 
     56 C56       -52.2031  -23.2015    9.1800 C.3       14 UNK        -0.0967 
     57 S57       -52.4708  -23.2368    7.3746 S.3       14 UNK        -0.2604 
     58 C58       -53.9688  -24.2727    7.2367 C.3       14 UNK         0.0134 
     59 N         -49.7152  -23.2606    8.9979 N.am      6 UNK        -0.4116 
     60 C         -48.8247  -23.8244    8.1743 C.2       5 UNK         0.5034 
     61 O         -48.8227  -25.0147    7.8440 O.2       5 UNK        -0.5045 
     62 CA        -47.7299  -22.8905    7.6243 C.3       5 UNK         0.0224 
     63 CB        -47.9819  -21.3870    7.8846 C.3       5 UNK        -0.1978 
     64 N         -46.3902  -23.2536    8.0935 N.am      5 UNK        -0.4737 
     65 C         -45.9853  -23.4380    9.3606 C.2       4 UNK         0.5027 
     66 O         -46.7414  -23.3778   10.3318 O.2       4 UNK        -0.5211 
     67 CA        -44.4774  -23.7018    9.5748 C.3       4 UNK         0.0297 
     68 CB        -44.1801  -24.4950   10.8662 C.3       4 UNK        -0.1993 
     69 N         -43.8212  -24.2967    8.3994 N.am      4 UNK        -0.4486 
     70 C         -44.0646  -25.5071    7.8790 C.2       3 UNK         0.4961 
     71 O         -44.7675  -26.3671    8.4113 O.2       3 UNK        -0.5105 
     72 CA        -43.5008  -25.7719    6.4728 C.3       3 UNK         0.0299 
     73 CB        -42.5505  -26.9799    6.4695 C.3       3 UNK        -0.1972 
     74 N         -44.6241  -26.0313    5.5732 N.am      3 UNK        -0.4305 
     75 C         -45.5347  -25.1150    5.2190 C.2       2 UNK         0.5006 
     76 O         -45.3667  -23.9027    5.3578 O.2       2 UNK        -0.5106 
     77 CA        -46.8997  -25.6341    4.7332 C.3       2 UNK         0.0296 
     78 CB        -46.8470  -26.1381    3.2773 C.3       2 UNK        -0.2002 
     79 N         -47.4822  -26.6173    5.6626 N.am      2 UNK        -0.4032 
     80 C         -47.0732  -27.8761    5.8998 C.2       1 UNK         0.5000 
     81 O         -46.1781  -28.4318    5.2594 O.2       1 UNK        -0.5238 
     82 H82       -46.8953  -26.2529   10.5085 H         1 UNK         0.0889 
     83 H83       -47.8209  -27.3466   11.5414 H         1 UNK         0.0889 
     84 H84       -48.6495  -26.3561   10.3299 H         1 UNK         0.0889 
     85 H85       -48.1614  -26.7676    8.0340 H         1 UNK         0.3028 
     86 H86       -46.9330  -29.3567    7.3685 H         1 UNK         0.0864 
     87 H87       -48.7949  -30.0263    5.8504 H         1 UNK         0.0720 
     88 H88       -49.1803  -30.1292    7.5369 H         1 UNK         0.0720 
     89 H89       -51.4094  -29.5434    8.3291 H         1 UNK         0.0814 
     90 H90       -50.5504  -28.1103    8.8438 H         1 UNK         0.0814 
     91 H91       -51.8093  -25.9807    7.1437 H         1 UNK         0.1469 
     92 H92       -55.8205  -25.6878    8.6301 H         1 UNK         0.1381 
     93 H93       -53.5536  -29.2667    9.2675 H         1 UNK         0.1206 
     94 H94       -56.1118  -29.2145    9.4742 H         1 UNK         0.0813 
     95 H95       -56.9275  -27.6788    9.4225 H         1 UNK         0.0813 
     96 H96       -54.6573  -30.0238   11.1174 H         1 UNK         0.0638 
     97 H97       -53.8000  -28.9955   12.2268 H         1 UNK         0.0638 
     98 H98       -56.2986  -30.6297   12.8437 H         1 UNK         0.0568 
     99 H99       -53.5094  -32.6456   14.7938 H         1 UNK         0.3450 
    100 H100      -54.3323  -31.2588   15.4625 H         1 UNK         0.3450 
    101 H101      -54.7696  -28.8229   14.6361 H         1 UNK         0.2987 
    102 H102      -56.9364  -27.7055   16.1709 H         1 UNK         0.0766 
    103 H103      -57.5379  -28.5593   18.4475 H         1 UNK         0.0798 
    104 H104      -58.5673  -29.2463   17.2040 H         1 UNK         0.0798 
    105 H105      -57.2746  -30.2141   17.8984 H         1 UNK         0.0798 
    106 H106      -54.9632  -27.4990   17.1161 H         1 UNK         0.3198 
    107 H107      -53.0696  -28.9884   19.1024 H         1 UNK         0.0843 
    108 H108      -51.7857  -29.8354   16.4466 H         1 UNK         0.0831 
    109 H109      -51.9691  -30.8305   17.8834 H         1 UNK         0.0831 
    110 H110      -50.8918  -29.4460   17.9164 H         1 UNK         0.0831 
    111 H111      -52.5445  -27.4078   16.6269 H         1 UNK         0.3133 
    112 H112      -53.4641  -24.4032   18.1330 H         1 UNK         0.0566 
    113 H113      -50.5322  -25.1483   17.6358 H         1 UNK         0.0814 
    114 H114      -51.1777  -24.3670   19.0705 H         1 UNK         0.0814 
    115 H115      -51.1962  -23.5177   17.5329 H         1 UNK         0.0814 
    116 H116      -52.1096  -25.0601   15.6694 H         1 UNK         0.3091 
    117 H117      -54.9315  -26.3339   13.9497 H         1 UNK         0.0702 
    118 H118      -54.6448  -24.4524   12.3535 H         1 UNK         0.0785 
    119 H119      -53.8190  -23.5014   13.5879 H         1 UNK         0.0785 
    120 H120      -55.5167  -23.9202   13.7832 H         1 UNK         0.0785 
    121 H121      -52.3954  -25.4659   12.9900 H         1 UNK         0.2998 
    122 H122      -50.3850  -28.0482   14.2715 H         1 UNK         0.0697 
    123 H123      -51.4748  -29.5037   12.5745 H         1 UNK         0.0825 
    124 H124      -49.9731  -28.8596   11.9431 H         1 UNK         0.0825 
    125 H125      -51.5144  -28.1771   11.4189 H         1 UNK         0.0825 
    126 H126      -49.9207  -26.3446   12.0547 H         1 UNK         0.3029 
    127 H127      -49.6183  -23.2458   13.5837 H         1 UNK         0.0897 
    128 H128      -47.2368  -23.2055   12.9820 H         1 UNK         0.0792 
    129 H129      -47.4446  -24.2399   14.3825 H         1 UNK         0.0792 
    130 H130      -47.2005  -24.9578   12.7957 H         1 UNK         0.0792 
    131 H131      -48.6977  -23.9109   11.0489 H         1 UNK         0.3086 
    132 H132      -50.9330  -24.9422    9.2639 H         1 UNK         0.0583 
    133 H133      -53.0618  -23.6660    9.6691 H         1 UNK         0.1020 
    134 H134      -52.2031  -22.1602    9.5072 H         1 UNK         0.1020 
    135 H135      -54.7942  -23.7423    7.7145 H         1 UNK         0.0694 
    136 H136      -54.2312  -24.3643    6.1821 H         1 UNK         0.0694 
    137 H137      -49.5918  -22.2840    9.2225 H         1 UNK         0.2989 
    138 H138      -47.7339  -23.0367    6.5435 H         1 UNK         0.1055 
    139 H139      -47.2341  -20.7771    7.3774 H         1 UNK         0.0806 
    140 H140      -47.9383  -21.1362    8.9454 H         1 UNK         0.0806 
    141 H141      -48.9541  -21.0730    7.5011 H         1 UNK         0.0806 
    142 H142      -45.7064  -23.3765    7.3547 H         1 UNK         0.3061 
    143 H143      -44.0281  -22.7152    9.6966 H         1 UNK         0.0734 
    144 H144      -44.5567  -23.9673   11.7434 H         1 UNK         0.0832 
    145 H145      -44.6459  -25.4798   10.8607 H         1 UNK         0.0832 
    146 H146      -43.1085  -24.6325   11.0085 H         1 UNK         0.0832 
    147 H147      -43.2314  -23.6669    7.8713 H         1 UNK         0.3156 
    148 H148      -42.9550  -24.8956    6.1168 H         1 UNK         0.0589 
    149 H149      -43.0505  -27.8894    6.8059 H         1 UNK         0.0808 
    150 H150      -42.1509  -27.1670    5.4726 H         1 UNK         0.0808 
    151 H151      -41.7021  -26.8092    7.1334 H         1 UNK         0.0808 
    152 H152      -44.8942  -27.0040    5.4551 H         1 UNK         0.3098 
    153 H153      -47.5834  -24.7841    4.7508 H         1 UNK         0.0720 
    154 H154      -47.8220  -26.4971    2.9477 H         1 UNK         0.0791 
    155 H155      -46.5526  -25.3332    2.6027 H         1 UNK         0.0791 
    156 H156      -46.1284  -26.9465    3.1416 H         1 UNK         0.0791 
    157 H157      -48.2085  -26.2403    6.2611 H         1 UNK         0.3028 
@<TRIPOS>BOND
     1    1    2 1    
     2    1   82 1    
     3    1   83 1    
     4    1   84 1    
     5    2    3 2    
     6    2    4 am   BACKBONE|DICT|INTERRES
     7    4    5 1    
     8    4   85 1    
     9    5    6 1    
    10    5   80 1    
    11    5   86 1    
    12    6    7 1    
    13    6   87 1    
    14    6   88 1    
    15    7    8 1    
    16    8    9 1    
    17    8   89 1    
    18    8   90 1    
    19    9   10 ar   
    20    9   14 ar   
    21   10   11 ar   
    22   10   91 1    
    23   11   12 ar   
    24   11   58 1    
    25   12   13 ar   
    26   12   92 1    
    27   13   14 ar   
    28   13   15 1    
    29   14   93 1    
    30   15   16 1    
    31   15   94 1    
    32   15   95 1    
    33   16   17 1    
    34   17   18 1    
    35   17   96 1    
    36   17   97 1    
    37   18   19 1    
    38   18   22 1    
    39   18   98 1    
    40   19   20 am   BACKBONE|DICT|INTERRES
    41   19   21 2    
    42   20   99 1    
    43   20  100 1    
    44   22   23 am   BACKBONE|DICT|INTERRES
    45   22  101 1    
    46   23   24 2    
    47   23   25 1    
    48   25   26 1    
    49   25   27 1    
    50   25  102 1    
    51   26  103 1    
    52   26  104 1    
    53   26  105 1    
    54   27   28 am   BACKBONE|DICT|INTERRES
    55   27  106 1    
    56   28   29 2    
    57   28   30 1    
    58   30   31 1    
    59   30   32 1    
    60   30  107 1    
    61   31  108 1    
    62   31  109 1    
    63   31  110 1    
    64   32   33 am   BACKBONE|DICT|INTERRES
    65   32  111 1    
    66   33   34 2    
    67   33   35 1    
    68   35   36 1    
    69   35   37 1    
    70   35  112 1    
    71   36  113 1    
    72   36  114 1    
    73   36  115 1    
    74   37   38 am   BACKBONE|DICT|INTERRES
    75   37  116 1    
    76   38   39 2    
    77   38   40 1    
    78   40   41 1    
    79   40   42 1    
    80   40  117 1    
    81   41  118 1    
    82   41  119 1    
    83   41  120 1    
    84   42   43 am   BACKBONE|DICT|INTERRES
    85   42  121 1    
    86   43   44 2    
    87   43   45 1    
    88   45   46 1    
    89   45   47 1    
    90   45  122 1    
    91   46  123 1    
    92   46  124 1    
    93   46  125 1    
    94   47   48 am   BACKBONE|DICT|INTERRES
    95   47  126 1    
    96   48   49 2    
    97   48   50 1    
    98   50   51 1    
    99   50   52 1    
   100   50  127 1    
   101   51  128 1    
   102   51  129 1    
   103   51  130 1    
   104   52   53 am   BACKBONE|DICT|INTERRES
   105   52  131 1    
   106   53   54 2    
   107   53   55 1    
   108   55   56 1    
   109   55   59 1    
   110   55  132 1    
   111   56   57 1    
   112   56  133 1    
   113   56  134 1    
   114   57   58 1    
   115   58  135 1    
   116   58  136 1    
   117   59   60 am   BACKBONE|DICT|INTERRES
   118   59  137 1    
   119   60   61 2    
   120   60   62 1    
   121   62   63 1    
   122   62   64 1    
   123   62  138 1    
   124   63  139 1    
   125   63  140 1    
   126   63  141 1    
   127   64   65 am   BACKBONE|DICT|INTERRES
   128   64  142 1    
   129   65   66 2    
   130   65   67 1    
   131   67   68 1    
   132   67   69 1    
   133   67  143 1    
   134   68  144 1    
   135   68  145 1    
   136   68  146 1    
   137   69   70 am   BACKBONE|DICT|INTERRES
   138   69  147 1    
   139   70   71 2    
   140   70   72 1    
   141   72   73 1    
   142   72   74 1    
   143   72  148 1    
   144   73  149 1    
   145   73  150 1    
   146   73  151 1    
   147   74   75 am   BACKBONE|DICT|INTERRES
   148   74  152 1    
   149   75   76 2    
   150   75   77 1    
   151   77   78 1    
   152   77   79 1    
   153   77  153 1    
   154   78  154 1    
   155   78  155 1    
   156   78  156 1    
   157   79   80 am   BACKBONE|DICT|INTERRES
   158   79  157 1    
   159   80   81 2    
@<TRIPOS>SUBSTRUCTURE
     1 UNK         1 GROUP             0       ****    0 ROOT    
