@<TRIPOS>MOLECULE
3R207
157   159    1
SMALL
USER_CHARGES


@<TRIPOS>ATOM
      1 CA        -49.7477  -34.0507    5.7068 C.3       0 UNK        -0.1975 
      2 C         -49.2956  -32.6373    5.3698 C.2       0 UNK         0.4852 
      3 O         -48.1417  -32.4393    4.9860 O.2       0 UNK        -0.5216 
      4 N         -50.1969  -31.6554    5.5015 N.am      1 UNK        -0.4461 
      5 CA        -49.9176  -30.2329    5.2915 C.3       1 UNK         0.0864 
      6 C6        -51.2320  -29.4294    5.1363 C.3       14 UNK        -0.0898 
      7 S7        -50.9630  -27.7556    4.4635 S.3       14 UNK        -0.2598 
      8 C8        -52.6792  -27.1726    4.2794 C.3       14 UNK         0.0286 
      9 C9        -53.3986  -27.0667    5.6175 C.ar      14 UNK        -0.0844 
     10 C10       -53.0374  -26.0718    6.5313 C.ar      14 UNK        -0.0881 
     11 C11       -53.6883  -25.9689    7.7634 C.ar      14 UNK        -0.0643 
     12 C12       -54.7203  -26.8578    8.0721 C.ar      14 UNK        -0.0930 
     13 C13       -55.0887  -27.8587    7.1697 C.ar      14 UNK        -0.0827 
     14 C14       -54.4258  -27.9594    5.9426 C.ar      14 UNK        -0.1249 
     15 C15       -56.2009  -28.8275    7.5321 C.3       14 UNK         0.0141 
     16 S16       -55.5314  -30.2922    8.3817 S.3       14 UNK        -0.2313 
     17 C17       -56.8463  -30.6472    9.6015 C.3       14 UNK        -0.0915 
     18 CA        -56.4080  -30.4216   11.0755 C.3       13 UNK         0.0968 
     19 C         -55.5108  -31.5789   11.6098 C.2       13 UNK         0.5732 
     20 N         -54.2835  -31.3353   12.0571 N.am      13 UNK        -0.7310 
     21 O         -55.9485  -32.7270   11.6364 O.2       13 UNK        -0.5035 
     22 N         -55.8521  -29.0757   11.2838 N.am      13 UNK        -0.4233 
     23 C         -55.8599  -28.4260   12.4523 C.2       13 UNK         0.4989 
     24 O         -56.4632  -28.8109   13.4564 O.2       13 UNK        -0.4996 
     25 CA        -55.0181  -27.1415   12.5245 C.3       12 UNK         0.0216 
     26 CB        -55.8840  -25.9125   12.8437 C.3       12 UNK        -0.1964 
     27 N         -53.9687  -27.2778   13.5351 N.am      12 UNK        -0.4276 
     28 C         -52.9412  -28.1317   13.4512 C.2       12 UNK         0.5020 
     29 O         -52.7443  -28.8495   12.4680 O.2       12 UNK        -0.5489 
     30 CA        -51.9916  -28.2170   14.6636 C.3       11 UNK         0.0294 
     31 CB        -50.6652  -28.9153   14.3141 C.3       11 UNK        -0.2019 
     32 N         -51.6901  -26.9190   15.2757 N.am      11 UNK        -0.4493 
     33 C         -52.4733  -26.2610   16.1422 C.2       11 UNK         0.4932 
     34 O         -53.6246  -26.6129   16.4029 O.2       11 UNK        -0.5029 
     35 CA        -51.8828  -25.0027   16.8158 C.3       10 UNK         0.0280 
     36 CB        -52.5255  -24.7039   18.1871 C.3       10 UNK        -0.1976 
     37 N         -50.4165  -25.0299   16.9121 N.am      10 UNK        -0.4242 
     38 C         -49.6610  -25.9189   17.5778 C.2       10 UNK         0.5072 
     39 O         -50.1201  -26.7957   18.3112 O.2       10 UNK        -0.5224 
     40 CA        -48.1372  -25.8493   17.3759 C.3       9 UNK         0.0343 
     41 CB        -47.6035  -27.1769   16.8058 C.3       9 UNK        -0.2003 
     42 N         -47.7311  -24.7636   16.4762 N.am      9 UNK        -0.4272 
     43 C         -46.9106  -23.7611   16.8169 C.2       9 UNK         0.4988 
     44 O         -46.4491  -23.6043   17.9481 O.2       9 UNK        -0.5108 
     45 CA        -46.5089  -22.7714   15.7112 C.3       8 UNK         0.0248 
     46 CB        -45.2943  -23.3019   14.9319 C.3       8 UNK        -0.2001 
     47 N         -47.5828  -22.4390   14.7717 N.am      8 UNK        -0.4140 
     48 C         -48.6524  -21.6898   15.0784 C.2       8 UNK         0.5028 
     49 O         -48.9169  -21.3047   16.2172 O.2       8 UNK        -0.5428 
     50 CA        -49.5773  -21.2930   13.9192 C.3       7 UNK         0.0264 
     51 CB        -48.9067  -20.2412   13.0190 C.3       7 UNK        -0.1988 
     52 N         -49.9363  -22.4612   13.1194 N.am      7 UNK        -0.4454 
     53 C         -51.0756  -23.1553   13.2564 C.2       7 UNK         0.5027 
     54 O         -51.9913  -22.8234   14.0081 O.2       7 UNK        -0.5083 
     55 CA        -51.2262  -24.4447   12.4221 C.3       6 UNK         0.0844 
     56 C56       -52.1125  -24.1710   11.1845 C.3       14 UNK        -0.0967 
     57 S57       -52.3302  -25.6405   10.1331 S.3       14 UNK        -0.2604 
     58 C58       -53.2797  -24.9067    8.7693 C.3       14 UNK         0.0134 
     59 N         -49.9288  -25.0331   12.0742 N.am      6 UNK        -0.4116 
     60 C         -49.0648  -25.5564   12.9555 C.2       5 UNK         0.5034 
     61 O         -49.2970  -25.6526   14.1607 O.2       5 UNK        -0.5045 
     62 CA        -47.6871  -25.9901   12.4301 C.3       5 UNK         0.0224 
     63 CB        -47.6450  -27.5082   12.2039 C.3       5 UNK        -0.1978 
     64 N         -47.2917  -25.2931   11.2026 N.am      5 UNK        -0.4737 
     65 C         -47.0296  -23.9786   11.1304 C.2       4 UNK         0.5027 
     66 O         -47.0970  -23.2232   12.1008 O.2       4 UNK        -0.5211 
     67 CA        -46.6960  -23.3954    9.7450 C.3       4 UNK         0.0297 
     68 CB        -45.1790  -23.4245    9.5058 C.3       4 UNK        -0.1993 
     69 N         -47.3794  -24.0844    8.6460 N.am      4 UNK        -0.4486 
     70 C         -48.7106  -24.1589    8.5062 C.2       3 UNK         0.4961 
     71 O         -49.4995  -23.5656    9.2401 O.2       3 UNK        -0.5105 
     72 CA        -49.2668  -25.0647    7.3907 C.3       3 UNK         0.0299 
     73 CB        -49.6474  -24.2132    6.1686 C.3       3 UNK        -0.1972 
     74 N         -48.3936  -26.1627    6.9520 N.am      3 UNK        -0.4305 
     75 C         -47.8141  -27.0925    7.7275 C.2       2 UNK         0.5006 
     76 O         -47.8480  -27.0843    8.9584 O.2       2 UNK        -0.5106 
     77 CA        -47.0731  -28.2141    6.9767 C.3       2 UNK         0.0296 
     78 CB        -46.3007  -29.1671    7.9155 C.3       2 UNK        -0.2002 
     79 N         -47.9814  -28.9515    6.0880 N.am      2 UNK        -0.4032 
     80 C         -49.0505  -29.6828    6.4441 C.2       1 UNK         0.5000 
     81 O         -49.3837  -29.9170    7.6089 O.2       1 UNK        -0.5238 
     82 H82       -49.6352  -34.6980    4.8374 H         1 UNK         0.0889 
     83 H83       -50.7912  -34.0817    6.0197 H         1 UNK         0.0889 
     84 H84       -49.1394  -34.4560    6.5149 H         1 UNK         0.0889 
     85 H85       -51.1180  -31.8727    5.8540 H         1 UNK         0.3028 
     86 H86       -49.3575  -30.1497    4.3570 H         1 UNK         0.0864 
     87 H87       -51.7601  -29.3569    6.0896 H         1 UNK         0.0720 
     88 H88       -51.9063  -29.9495    4.4538 H         1 UNK         0.0720 
     89 H89       -53.2145  -27.8390    3.6011 H         1 UNK         0.0814 
     90 H90       -52.6695  -26.1933    3.7990 H         1 UNK         0.0814 
     91 H91       -52.2418  -25.3846    6.2847 H         1 UNK         0.1469 
     92 H92       -55.2260  -26.7755    9.0239 H         1 UNK         0.1381 
     93 H93       -54.7069  -28.7366    5.2449 H         1 UNK         0.1206 
     94 H94       -56.9294  -28.3152    8.1622 H         1 UNK         0.0813 
     95 H95       -56.7397  -29.1444    6.6379 H         1 UNK         0.0813 
     96 H96       -57.7200  -30.0303    9.3892 H         1 UNK         0.0638 
     97 H97       -57.1854  -31.6734    9.4494 H         1 UNK         0.0638 
     98 H98       -57.3197  -30.4870   11.6724 H         1 UNK         0.0568 
     99 H99       -53.7312  -32.1043   12.3995 H         1 UNK         0.3450 
    100 H100      -53.8885  -30.4000   12.0535 H         1 UNK         0.3450 
    101 H101      -55.2864  -28.7247   10.5252 H         1 UNK         0.2987 
    102 H102      -54.5378  -26.9759   11.5587 H         1 UNK         0.0766 
    103 H103      -56.6671  -25.7831   12.0955 H         1 UNK         0.0798 
    104 H104      -55.2878  -24.9997   12.8500 H         1 UNK         0.0798 
    105 H105      -56.3716  -26.0023   13.8154 H         1 UNK         0.0798 
    106 H106      -54.1054  -26.8010   14.4197 H         1 UNK         0.3198 
    107 H107      -52.4979  -28.8339   15.4093 H         1 UNK         0.0843 
    108 H108      -50.1455  -28.3963   13.5096 H         1 UNK         0.0831 
    109 H109      -50.8375  -29.9395   13.9806 H         1 UNK         0.0831 
    110 H110      -49.9982  -28.9646   15.1749 H         1 UNK         0.0831 
    111 H111      -50.7830  -26.5188   15.0514 H         1 UNK         0.3133 
    112 H112      -52.1278  -24.1683   16.1617 H         1 UNK         0.0566 
    113 H113      -52.0935  -23.8128   18.6422 H         1 UNK         0.0814 
    114 H114      -53.5969  -24.5267   18.0860 H         1 UNK         0.0814 
    115 H115      -52.4000  -25.5326   18.8845 H         1 UNK         0.0814 
    116 H116      -49.9320  -24.3523   16.3416 H         1 UNK         0.3091 
    117 H117      -47.7042  -25.7104   18.3684 H         1 UNK         0.0702 
    118 H118      -47.8503  -28.0147   17.4593 H         1 UNK         0.0785 
    119 H119      -48.0253  -27.3943   15.8241 H         1 UNK         0.0785 
    120 H120      -46.5183  -27.1558   16.7059 H         1 UNK         0.0785 
    121 H121      -48.0709  -24.8317   15.5229 H         1 UNK         0.2998 
    122 H122      -46.2069  -21.8439   16.2027 H         1 UNK         0.0697 
    123 H123      -45.5252  -24.2236   14.3981 H         1 UNK         0.0825 
    124 H124      -44.4611  -23.5141   15.6034 H         1 UNK         0.0825 
    125 H125      -44.9430  -22.5732   14.2010 H         1 UNK         0.0825 
    126 H126      -47.4261  -22.6992   13.7989 H         1 UNK         0.3029 
    127 H127      -50.4742  -20.8398   14.3479 H         1 UNK         0.0897 
    128 H128      -49.5833  -19.9086   12.2316 H         1 UNK         0.0792 
    129 H129      -48.0038  -20.6240   12.5416 H         1 UNK         0.0792 
    130 H130      -48.6227  -19.3594   13.5951 H         1 UNK         0.0792 
    131 H131      -49.2274  -22.8091   12.4854 H         1 UNK         0.3086 
    132 H132      -51.7506  -25.1690   13.0475 H         1 UNK         0.0583 
    133 H133      -53.1021  -23.8329   11.4992 H         1 UNK         0.1020 
    134 H134      -51.6953  -23.3649   10.5782 H         1 UNK         0.1020 
    135 H135      -54.1704  -24.4166    9.1653 H         1 UNK         0.0694 
    136 H136      -52.6801  -24.1305    8.2905 H         1 UNK         0.0694 
    137 H137      -49.6641  -24.9767   11.0992 H         1 UNK         0.2989 
    138 H138      -46.9544  -25.7451   13.2009 H         1 UNK         0.1055 
    139 H139      -47.7992  -28.0451   13.1405 H         1 UNK         0.0806 
    140 H140      -46.6805  -27.8252   11.8070 H         1 UNK         0.0806 
    141 H141      -48.4170  -27.8350   11.5057 H         1 UNK         0.0806 
    142 H142      -47.2939  -25.8473   10.3488 H         1 UNK         0.3061 
    143 H143      -47.0254  -22.3542    9.7410 H         1 UNK         0.0734 
    144 H144      -44.9144  -22.9369    8.5674 H         1 UNK         0.0832 
    145 H145      -44.6498  -22.8987   10.3021 H         1 UNK         0.0832 
    146 H146      -44.7930  -24.4444    9.4773 H         1 UNK         0.0832 
    147 H147      -46.8036  -24.6038    8.0000 H         1 UNK         0.3156 
    148 H148      -50.1746  -25.5277    7.7823 H         1 UNK         0.0589 
    149 H149      -48.7765  -23.7189    5.7363 H         1 UNK         0.0808 
    150 H150      -50.1106  -24.8150    5.3867 H         1 UNK         0.0808 
    151 H151      -50.3608  -23.4345    6.4426 H         1 UNK         0.0808 
    152 H152      -48.2991  -26.2675    5.9522 H         1 UNK         0.3098 
    153 H153      -46.3376  -27.7265    6.3350 H         1 UNK         0.0720 
    154 H154      -45.7746  -29.9380    7.3527 H         1 UNK         0.0791 
    155 H155      -46.9590  -29.6636    8.6291 H         1 UNK         0.0791 
    156 H156      -45.5552  -28.6204    8.4941 H         1 UNK         0.0791 
    157 H157      -47.8074  -28.8313    5.0995 H         1 UNK         0.3028 
@<TRIPOS>BOND
     1    1    2 1    
     2    1   82 1    
     3    1   83 1    
     4    1   84 1    
     5    2    3 2    
     6    2    4 am   BACKBONE|DICT|INTERRES
     7    4    5 1    
     8    4   85 1    
     9    5    6 1    
    10    5   80 1    
    11    5   86 1    
    12    6    7 1    
    13    6   87 1    
    14    6   88 1    
    15    7    8 1    
    16    8    9 1    
    17    8   89 1    
    18    8   90 1    
    19    9   10 ar   
    20    9   14 ar   
    21   10   11 ar   
    22   10   91 1    
    23   11   12 ar   
    24   11   58 1    
    25   12   13 ar   
    26   12   92 1    
    27   13   14 ar   
    28   13   15 1    
    29   14   93 1    
    30   15   16 1    
    31   15   94 1    
    32   15   95 1    
    33   16   17 1    
    34   17   18 1    
    35   17   96 1    
    36   17   97 1    
    37   18   19 1    
    38   18   22 1    
    39   18   98 1    
    40   19   20 am   BACKBONE|DICT|INTERRES
    41   19   21 2    
    42   20   99 1    
    43   20  100 1    
    44   22   23 am   BACKBONE|DICT|INTERRES
    45   22  101 1    
    46   23   24 2    
    47   23   25 1    
    48   25   26 1    
    49   25   27 1    
    50   25  102 1    
    51   26  103 1    
    52   26  104 1    
    53   26  105 1    
    54   27   28 am   BACKBONE|DICT|INTERRES
    55   27  106 1    
    56   28   29 2    
    57   28   30 1    
    58   30   31 1    
    59   30   32 1    
    60   30  107 1    
    61   31  108 1    
    62   31  109 1    
    63   31  110 1    
    64   32   33 am   BACKBONE|DICT|INTERRES
    65   32  111 1    
    66   33   34 2    
    67   33   35 1    
    68   35   36 1    
    69   35   37 1    
    70   35  112 1    
    71   36  113 1    
    72   36  114 1    
    73   36  115 1    
    74   37   38 am   BACKBONE|DICT|INTERRES
    75   37  116 1    
    76   38   39 2    
    77   38   40 1    
    78   40   41 1    
    79   40   42 1    
    80   40  117 1    
    81   41  118 1    
    82   41  119 1    
    83   41  120 1    
    84   42   43 am   BACKBONE|DICT|INTERRES
    85   42  121 1    
    86   43   44 2    
    87   43   45 1    
    88   45   46 1    
    89   45   47 1    
    90   45  122 1    
    91   46  123 1    
    92   46  124 1    
    93   46  125 1    
    94   47   48 am   BACKBONE|DICT|INTERRES
    95   47  126 1    
    96   48   49 2    
    97   48   50 1    
    98   50   51 1    
    99   50   52 1    
   100   50  127 1    
   101   51  128 1    
   102   51  129 1    
   103   51  130 1    
   104   52   53 am   BACKBONE|DICT|INTERRES
   105   52  131 1    
   106   53   54 2    
   107   53   55 1    
   108   55   56 1    
   109   55   59 1    
   110   55  132 1    
   111   56   57 1    
   112   56  133 1    
   113   56  134 1    
   114   57   58 1    
   115   58  135 1    
   116   58  136 1    
   117   59   60 am   BACKBONE|DICT|INTERRES
   118   59  137 1    
   119   60   61 2    
   120   60   62 1    
   121   62   63 1    
   122   62   64 1    
   123   62  138 1    
   124   63  139 1    
   125   63  140 1    
   126   63  141 1    
   127   64   65 am   BACKBONE|DICT|INTERRES
   128   64  142 1    
   129   65   66 2    
   130   65   67 1    
   131   67   68 1    
   132   67   69 1    
   133   67  143 1    
   134   68  144 1    
   135   68  145 1    
   136   68  146 1    
   137   69   70 am   BACKBONE|DICT|INTERRES
   138   69  147 1    
   139   70   71 2    
   140   70   72 1    
   141   72   73 1    
   142   72   74 1    
   143   72  148 1    
   144   73  149 1    
   145   73  150 1    
   146   73  151 1    
   147   74   75 am   BACKBONE|DICT|INTERRES
   148   74  152 1    
   149   75   76 2    
   150   75   77 1    
   151   77   78 1    
   152   77   79 1    
   153   77  153 1    
   154   78  154 1    
   155   78  155 1    
   156   78  156 1    
   157   79   80 am   BACKBONE|DICT|INTERRES
   158   79  157 1    
   159   80   81 2    
@<TRIPOS>SUBSTRUCTURE
     1 UNK         1 GROUP             0       ****    0 ROOT    
