@<TRIPOS>MOLECULE
3R207
157   159    1
SMALL
USER_CHARGES


@<TRIPOS>ATOM
      1 CA        -44.0873  -28.7651    8.6818 C.3       0 UNK        -0.1975 
      2 C         -45.0656  -28.3481    9.7779 C.2       0 UNK         0.4852 
      3 O         -44.6259  -27.9010   10.8349 O.2       0 UNK        -0.5216 
      4 N         -46.3877  -28.4827    9.5968 N.am      1 UNK        -0.4461 
      5 CA        -47.0997  -28.9521    8.4021 C.3       1 UNK         0.0864 
      6 C6        -48.5760  -29.2978    8.7348 C.3       14 UNK        -0.0898 
      7 S7        -49.5385  -27.9089    9.4248 S.3       14 UNK        -0.2598 
      8 C8        -50.9858  -27.8899    8.3178 C.3       14 UNK         0.0286 
      9 C9        -51.9271  -26.7645    8.7112 C.ar      14 UNK        -0.0844 
     10 C10       -51.6746  -25.4645    8.2761 C.ar      14 UNK        -0.0881 
     11 C11       -52.4472  -24.3945    8.7321 C.ar      14 UNK        -0.0643 
     12 C12       -53.5288  -24.6485    9.5834 C.ar      14 UNK        -0.0930 
     13 C13       -53.8263  -25.9545    9.9912 C.ar      14 UNK        -0.0827 
     14 C14       -53.0171  -27.0061    9.5490 C.ar      14 UNK        -0.1249 
     15 C15       -54.9775  -26.2076   10.9603 C.3       14 UNK         0.0141 
     16 S16       -56.1962  -27.4162   10.3541 S.3       14 UNK        -0.2313 
     17 C17       -55.5559  -28.9826   11.0455 C.3       14 UNK        -0.0915 
     18 CA        -56.4529  -29.5461   12.1805 C.3       13 UNK         0.0968 
     19 C         -56.1361  -31.0395   12.4940 C.2       13 UNK         0.5732 
     20 N         -56.0687  -31.4700   13.7486 N.am      13 UNK        -0.7310 
     21 O         -55.9670  -31.8400   11.5772 O.2       13 UNK        -0.5035 
     22 N         -56.4126  -28.6876   13.3762 N.am      13 UNK        -0.4233 
     23 C         -57.4843  -28.3261   14.0927 C.2       13 UNK         0.4989 
     24 O         -58.6441  -28.5905   13.7689 O.2       13 UNK        -0.4996 
     25 CA        -57.2128  -27.5519   15.4013 C.3       12 UNK         0.0216 
     26 CB        -58.4469  -27.4869   16.3259 C.3       12 UNK        -0.1964 
     27 N         -56.0463  -28.0424   16.1484 N.am      12 UNK        -0.4276 
     28 C         -55.8128  -29.2971   16.5696 C.2       12 UNK         0.5020 
     29 O         -56.5933  -30.2309   16.3812 O.2       12 UNK        -0.5489 
     30 CA        -54.4742  -29.5848   17.2782 C.3       11 UNK         0.0294 
     31 CB        -53.7573  -30.7811   16.6255 C.3       11 UNK        -0.2019 
     32 N         -53.5748  -28.4319   17.2380 N.am      11 UNK        -0.4493 
     33 C         -53.3506  -27.5778   18.2461 C.2       11 UNK         0.4932 
     34 O         -53.8220  -27.7096   19.3754 O.2       11 UNK        -0.5029 
     35 CA        -52.4714  -26.3495   17.9351 C.3       10 UNK         0.0280 
     36 CB        -51.0275  -26.5926   18.4011 C.3       10 UNK        -0.1976 
     37 N         -52.4699  -25.9835   16.5136 N.am      10 UNK        -0.4242 
     38 C         -53.5487  -25.5409   15.8461 C.2       10 UNK         0.5072 
     39 O         -54.6362  -25.3253   16.3808 O.2       10 UNK        -0.5224 
     40 CA        -53.4387  -25.4083   14.3176 C.3       9 UNK         0.0343 
     41 CB        -53.1033  -23.9654   13.9148 C.3       9 UNK        -0.2003 
     42 N         -52.4640  -26.3386   13.7349 N.am      9 UNK        -0.4272 
     43 C         -52.5948  -27.6761   13.7648 C.2       9 UNK         0.4988 
     44 O         -53.6272  -28.2332   14.1409 O.2       9 UNK        -0.5108 
     45 CA        -51.3840  -28.5525   13.3857 C.3       8 UNK         0.0248 
     46 CB        -51.6860  -29.4638   12.1876 C.3       8 UNK        -0.2001 
     47 N         -50.1482  -27.8073   13.1364 N.am      8 UNK        -0.4140 
     48 C         -49.4351  -27.1801   14.0822 C.2       8 UNK         0.5028 
     49 O         -49.7483  -27.1640   15.2733 O.2       8 UNK        -0.5428 
     50 CA        -48.2028  -26.3884   13.6119 C.3       7 UNK         0.0264 
     51 CB        -46.9588  -27.2906   13.5906 C.3       7 UNK        -0.1988 
     52 N         -48.3596  -25.7477   12.3004 N.am      7 UNK        -0.4454 
     53 C         -49.3111  -24.8565   11.9769 C.2       7 UNK         0.5027 
     54 O         -50.2259  -24.5458   12.7395 O.2       7 UNK        -0.5083 
     55 CA        -49.2195  -24.2212   10.5689 C.3       6 UNK         0.0844 
     56 C56       -50.1325  -22.9729   10.3986 C.3       14 UNK        -0.0967 
     57 S57       -50.3447  -22.5291    8.6396 S.3       14 UNK        -0.2604 
     58 C58       -52.0965  -22.9637    8.3324 C.3       14 UNK         0.0134 
     59 N         -47.8259  -23.9978   10.1517 N.am      6 UNK        -0.4116 
     60 C         -46.9237  -23.2230   10.7763 C.2       5 UNK         0.5034 
     61 O         -47.1797  -22.5153   11.7506 O.2       5 UNK        -0.5045 
     62 CA        -45.4767  -23.2734   10.2629 C.3       5 UNK         0.0224 
     63 CB        -44.6498  -24.2399   11.1270 C.3       5 UNK        -0.1978 
     64 N         -45.3879  -23.6952    8.8619 N.am      5 UNK        -0.4737 
     65 C         -45.1770  -22.8577    7.8380 C.2       4 UNK         0.5027 
     66 O         -45.0324  -21.6409    7.9561 O.2       4 UNK        -0.5211 
     67 CA        -45.1443  -23.4935    6.4441 C.3       4 UNK         0.0297 
     68 CB        -43.9808  -24.4910    6.3005 C.3       4 UNK        -0.1993 
     69 N         -46.4081  -24.1745    6.1833 N.am      4 UNK        -0.4486 
     70 C         -47.5056  -23.5883    5.6820 C.2       3 UNK         0.4961 
     71 O         -47.5528  -22.4066    5.3374 O.2       3 UNK        -0.5105 
     72 CA        -48.7629  -24.4749    5.5566 C.3       3 UNK         0.0299 
     73 CB        -49.7464  -23.9985    4.4675 C.3       3 UNK        -0.1972 
     74 N         -48.4436  -25.9021    5.4165 N.am      3 UNK        -0.4305 
     75 C         -47.7360  -26.4731    4.4302 C.2       2 UNK         0.5006 
     76 O         -47.4686  -25.9081    3.3688 O.2       2 UNK        -0.5106 
     77 CA        -47.1845  -27.8959    4.6727 C.3       2 UNK         0.0296 
     78 CB        -45.6877  -27.9706    4.3005 C.3       2 UNK        -0.2002 
     79 N         -47.3778  -28.4692    6.0176 N.am      2 UNK        -0.4032 
     80 C         -46.9655  -27.9861    7.2016 C.2       1 UNK         0.5000 
     81 O         -46.5053  -26.8491    7.3608 O.2       1 UNK        -0.5238 
     82 H82       -43.0810  -28.8560    9.0900 H         1 UNK         0.0889 
     83 H83       -44.0562  -28.0172    7.8902 H         1 UNK         0.0889 
     84 H84       -44.3491  -29.7290    8.2485 H         1 UNK         0.0889 
     85 H85       -46.9982  -28.1936   10.3445 H         1 UNK         0.3028 
     86 H86       -46.6253  -29.8860    8.0958 H         1 UNK         0.0864 
     87 H87       -49.0870  -29.7062    7.8613 H         1 UNK         0.0720 
     88 H88       -48.5974  -30.1012    9.4731 H         1 UNK         0.0720 
     89 H89       -51.4984  -28.8519    8.3700 H         1 UNK         0.0814 
     90 H90       -50.6617  -27.7628    7.2838 H         1 UNK         0.0814 
     91 H91       -50.8354  -25.2796    7.6273 H         1 UNK         0.1469 
     92 H92       -54.1302  -23.8247    9.9424 H         1 UNK         0.1381 
     93 H93       -53.2251  -28.0154    9.8639 H         1 UNK         0.1206 
     94 H94       -54.5739  -26.5599   11.9047 H         1 UNK         0.0813 
     95 H95       -55.5031  -25.2775   11.1809 H         1 UNK         0.0813 
     96 H96       -54.5388  -28.8540   11.4131 H         1 UNK         0.0638 
     97 H97       -55.4909  -29.6827   10.2109 H         1 UNK         0.0638 
     98 H98       -57.4717  -29.5676   11.7905 H         1 UNK         0.0568 
     99 H99       -55.8714  -32.4433   13.9149 H         1 UNK         0.3450 
    100 H100      -56.2675  -30.8600   14.5341 H         1 UNK         0.3450 
    101 H101      -55.4836  -28.4757   13.7308 H         1 UNK         0.2987 
    102 H102      -56.9729  -26.5311   15.1000 H         1 UNK         0.0766 
    103 H103      -59.2910  -27.0133   15.8231 H         1 UNK         0.0798 
    104 H104      -58.2390  -26.9040   17.2232 H         1 UNK         0.0798 
    105 H105      -58.7688  -28.4809   16.6386 H         1 UNK         0.0798 
    106 H106      -55.3488  -27.3372   16.3553 H         1 UNK         0.3198 
    107 H107      -54.7068  -29.8472   18.3124 H         1 UNK         0.0843 
    108 H108      -53.5544  -30.6040   15.5684 H         1 UNK         0.0831 
    109 H109      -54.3626  -31.6861   16.6923 H         1 UNK         0.0831 
    110 H110      -52.8086  -30.9929   17.1188 H         1 UNK         0.0831 
    111 H111      -53.1676  -28.2315   16.3337 H         1 UNK         0.3133 
    112 H112      -52.8741  -25.5046   18.4976 H         1 UNK         0.0566 
    113 H113      -50.9938  -26.8113   19.4694 H         1 UNK         0.0814 
    114 H114      -50.4008  -25.7171   18.2300 H         1 UNK         0.0814 
    115 H115      -50.5724  -27.4370   17.8817 H         1 UNK         0.0814 
    116 H116      -51.6133  -26.1628   16.0009 H         1 UNK         0.3091 
    117 H117      -54.4235  -25.6466   13.9148 H         1 UNK         0.0702 
    118 H118      -53.0453  -23.8593   12.8312 H         1 UNK         0.0785 
    119 H119      -52.1516  -23.6397   14.3363 H         1 UNK         0.0785 
    120 H120      -53.8692  -23.2743   14.2691 H         1 UNK         0.0785 
    121 H121      -51.5986  -25.9278   13.3985 H         1 UNK         0.2998 
    122 H122      -51.2068  -29.2012   14.2462 H         1 UNK         0.0697 
    123 H123      -51.7819  -28.8952   11.2663 H         1 UNK         0.0825 
    124 H124      -52.6112  -30.0224   12.3355 H         1 UNK         0.0825 
    125 H125      -50.8912  -30.1952   12.0404 H         1 UNK         0.0825 
    126 H126      -49.8393  -27.7432   12.1764 H         1 UNK         0.3029 
    127 H127      -48.0355  -25.5926   14.3410 H         1 UNK         0.0897 
    128 H128      -47.0533  -28.0967   12.8620 H         1 UNK         0.0792 
    129 H129      -46.7954  -27.7517   14.5659 H         1 UNK         0.0792 
    130 H130      -46.0588  -26.7246   13.3484 H         1 UNK         0.0792 
    131 H131      -47.6440  -25.9418   11.6168 H         1 UNK         0.3086 
    132 H132      -49.5965  -24.9946    9.9036 H         1 UNK         0.0583 
    133 H133      -51.1198  -23.1434   10.8315 H         1 UNK         0.1020 
    134 H134      -49.7223  -22.1162   10.9349 H         1 UNK         0.1020 
    135 H135      -52.7269  -22.2501    8.8651 H         1 UNK         0.0694 
    136 H136      -52.3100  -22.8320    7.2709 H         1 UNK         0.0694 
    137 H137      -47.5245  -24.5160    9.3410 H         1 UNK         0.2989 
    138 H138      -45.0566  -22.2721   10.3849 H         1 UNK         0.1055 
    139 H139      -45.0325  -25.2593   11.0756 H         1 UNK         0.0806 
    140 H140      -44.6663  -23.9395   12.1757 H         1 UNK         0.0806 
    141 H141      -43.6059  -24.2584   10.8134 H         1 UNK         0.0806 
    142 H142      -45.4673  -24.6841    8.6674 H         1 UNK         0.3061 
    143 H143      -44.9981  -22.6985    5.7092 H         1 UNK         0.0734 
    144 H144      -44.0838  -25.3476    6.9677 H         1 UNK         0.0832 
    145 H145      -43.9163  -24.8727    5.2814 H         1 UNK         0.0832 
    146 H146      -43.0272  -24.0123    6.5270 H         1 UNK         0.0832 
    147 H147      -46.4660  -25.1486    6.4701 H         1 UNK         0.3156 
    148 H148      -49.2636  -24.3695    6.5152 H         1 UNK         0.0589 
    149 H149      -49.2846  -23.9831    3.4801 H         1 UNK         0.0808 
    150 H150      -50.6255  -24.6409    4.4190 H         1 UNK         0.0808 
    151 H151      -50.0975  -22.9872    4.6763 H         1 UNK         0.0808 
    152 H152      -48.5747  -26.4581    6.2493 H         1 UNK         0.3098 
    153 H153      -47.7305  -28.5450    3.9865 H         1 UNK         0.0720 
    154 H154      -45.5207  -27.6797    3.2626 H         1 UNK         0.0791 
    155 H155      -45.3000  -28.9831    4.4133 H         1 UNK         0.0791 
    156 H156      -45.0842  -27.3097    4.9239 H         1 UNK         0.0791 
    157 H157      -47.7875  -29.3935    6.0136 H         1 UNK         0.3028 
@<TRIPOS>BOND
     1    1    2 1    
     2    1   82 1    
     3    1   83 1    
     4    1   84 1    
     5    2    3 2    
     6    2    4 am   BACKBONE|DICT|INTERRES
     7    4    5 1    
     8    4   85 1    
     9    5    6 1    
    10    5   80 1    
    11    5   86 1    
    12    6    7 1    
    13    6   87 1    
    14    6   88 1    
    15    7    8 1    
    16    8    9 1    
    17    8   89 1    
    18    8   90 1    
    19    9   10 ar   
    20    9   14 ar   
    21   10   11 ar   
    22   10   91 1    
    23   11   12 ar   
    24   11   58 1    
    25   12   13 ar   
    26   12   92 1    
    27   13   14 ar   
    28   13   15 1    
    29   14   93 1    
    30   15   16 1    
    31   15   94 1    
    32   15   95 1    
    33   16   17 1    
    34   17   18 1    
    35   17   96 1    
    36   17   97 1    
    37   18   19 1    
    38   18   22 1    
    39   18   98 1    
    40   19   20 am   BACKBONE|DICT|INTERRES
    41   19   21 2    
    42   20   99 1    
    43   20  100 1    
    44   22   23 am   BACKBONE|DICT|INTERRES
    45   22  101 1    
    46   23   24 2    
    47   23   25 1    
    48   25   26 1    
    49   25   27 1    
    50   25  102 1    
    51   26  103 1    
    52   26  104 1    
    53   26  105 1    
    54   27   28 am   BACKBONE|DICT|INTERRES
    55   27  106 1    
    56   28   29 2    
    57   28   30 1    
    58   30   31 1    
    59   30   32 1    
    60   30  107 1    
    61   31  108 1    
    62   31  109 1    
    63   31  110 1    
    64   32   33 am   BACKBONE|DICT|INTERRES
    65   32  111 1    
    66   33   34 2    
    67   33   35 1    
    68   35   36 1    
    69   35   37 1    
    70   35  112 1    
    71   36  113 1    
    72   36  114 1    
    73   36  115 1    
    74   37   38 am   BACKBONE|DICT|INTERRES
    75   37  116 1    
    76   38   39 2    
    77   38   40 1    
    78   40   41 1    
    79   40   42 1    
    80   40  117 1    
    81   41  118 1    
    82   41  119 1    
    83   41  120 1    
    84   42   43 am   BACKBONE|DICT|INTERRES
    85   42  121 1    
    86   43   44 2    
    87   43   45 1    
    88   45   46 1    
    89   45   47 1    
    90   45  122 1    
    91   46  123 1    
    92   46  124 1    
    93   46  125 1    
    94   47   48 am   BACKBONE|DICT|INTERRES
    95   47  126 1    
    96   48   49 2    
    97   48   50 1    
    98   50   51 1    
    99   50   52 1    
   100   50  127 1    
   101   51  128 1    
   102   51  129 1    
   103   51  130 1    
   104   52   53 am   BACKBONE|DICT|INTERRES
   105   52  131 1    
   106   53   54 2    
   107   53   55 1    
   108   55   56 1    
   109   55   59 1    
   110   55  132 1    
   111   56   57 1    
   112   56  133 1    
   113   56  134 1    
   114   57   58 1    
   115   58  135 1    
   116   58  136 1    
   117   59   60 am   BACKBONE|DICT|INTERRES
   118   59  137 1    
   119   60   61 2    
   120   60   62 1    
   121   62   63 1    
   122   62   64 1    
   123   62  138 1    
   124   63  139 1    
   125   63  140 1    
   126   63  141 1    
   127   64   65 am   BACKBONE|DICT|INTERRES
   128   64  142 1    
   129   65   66 2    
   130   65   67 1    
   131   67   68 1    
   132   67   69 1    
   133   67  143 1    
   134   68  144 1    
   135   68  145 1    
   136   68  146 1    
   137   69   70 am   BACKBONE|DICT|INTERRES
   138   69  147 1    
   139   70   71 2    
   140   70   72 1    
   141   72   73 1    
   142   72   74 1    
   143   72  148 1    
   144   73  149 1    
   145   73  150 1    
   146   73  151 1    
   147   74   75 am   BACKBONE|DICT|INTERRES
   148   74  152 1    
   149   75   76 2    
   150   75   77 1    
   151   77   78 1    
   152   77   79 1    
   153   77  153 1    
   154   78  154 1    
   155   78  155 1    
   156   78  156 1    
   157   79   80 am   BACKBONE|DICT|INTERRES
   158   79  157 1    
   159   80   81 2    
@<TRIPOS>SUBSTRUCTURE
     1 UNK         1 GROUP             0       ****    0 ROOT    
