@<TRIPOS>MOLECULE
3R207
157   159    1
SMALL
USER_CHARGES


@<TRIPOS>ATOM
      1 CA        -46.6210  -29.5136    3.1843 C.3       0 UNK        -0.1975 
      2 C         -47.7972  -28.6653    3.6444 C.2       0 UNK         0.4852 
      3 O         -47.6825  -27.4390    3.6957 O.2       0 UNK        -0.5216 
      4 N         -48.9273  -29.3066    3.9769 N.am      1 UNK        -0.4461 
      5 CA        -50.1288  -28.6588    4.5133 C.3       1 UNK         0.0864 
      6 C6        -51.3204  -29.6438    4.5963 C.3       14 UNK        -0.0898 
      7 S7        -52.9253  -28.7868    4.7563 S.3       14 UNK        -0.2598 
      8 C8        -53.6157  -29.5281    6.2718 C.3       14 UNK         0.0286 
      9 C9        -53.0533  -28.9066    7.5444 C.ar      14 UNK        -0.0844 
     10 C10       -52.0165  -29.5328    8.2438 C.ar      14 UNK        -0.0881 
     11 C11       -51.5357  -28.9916    9.4410 C.ar      14 UNK        -0.0643 
     12 C12       -52.1063  -27.8181    9.9419 C.ar      14 UNK        -0.0930 
     13 C13       -53.1422  -27.1821    9.2528 C.ar      14 UNK        -0.0827 
     14 C14       -53.6077  -27.7274    8.0520 C.ar      14 UNK        -0.1249 
     15 C15       -53.7675  -25.9154    9.8180 C.3       14 UNK         0.0141 
     16 S16       -54.7786  -26.2615   11.2923 S.3       14 UNK        -0.2313 
     17 C17       -56.1019  -27.2724   10.5492 C.3       14 UNK        -0.0915 
     18 CA        -57.2711  -27.5559   11.5249 C.3       13 UNK         0.0968 
     19 C         -58.4561  -28.2316   10.7739 C.2       13 UNK         0.5732 
     20 N         -58.7781  -29.4942   11.0309 N.am      13 UNK        -0.7310 
     21 O         -59.1008  -27.5923    9.9458 O.2       13 UNK        -0.5035 
     22 N         -56.8115  -28.2786   12.7213 N.am      13 UNK        -0.4233 
     23 C         -57.4950  -28.3946   13.8637 C.2       13 UNK         0.4989 
     24 O         -58.5879  -27.8624   14.0618 O.2       13 UNK        -0.4996 
     25 CA        -56.8680  -29.2434   14.9844 C.3       12 UNK         0.0216 
     26 CB        -57.1898  -30.7383   14.7899 C.3       12 UNK        -0.1964 
     27 N         -55.4303  -29.0273   15.2045 N.am      12 UNK        -0.4276 
     28 C         -54.3857  -29.3060   14.4139 C.2       12 UNK         0.5020 
     29 O         -54.4934  -29.7767   13.2797 O.2       12 UNK        -0.5489 
     30 CA        -52.9910  -28.9886   14.9960 C.3       11 UNK         0.0294 
     31 CB        -51.8556  -29.5519   14.1243 C.3       11 UNK        -0.2019 
     32 N         -52.7612  -27.5533   15.1926 N.am      11 UNK        -0.4493 
     33 C         -53.3675  -26.7772   16.1020 C.2       11 UNK         0.4932 
     34 O         -54.1939  -27.1977   16.9156 O.2       11 UNK        -0.5029 
     35 CA        -52.9735  -25.2901   16.0970 C.3       10 UNK         0.0280 
     36 CB        -53.7221  -24.4572   17.1591 C.3       10 UNK        -0.1976 
     37 N         -51.5249  -25.0992   16.2073 N.am      10 UNK        -0.4242 
     38 C         -50.7166  -25.4849   17.2085 C.2       10 UNK         0.5072 
     39 O         -51.1086  -26.0510   18.2299 O.2       10 UNK        -0.5224 
     40 CA        -49.2061  -25.2081   17.0579 C.3       9 UNK         0.0343 
     41 CB        -48.4421  -26.5284   16.8669 C.3       9 UNK        -0.2003 
     42 N         -48.8740  -24.3014   15.9555 N.am      9 UNK        -0.4272 
     43 C         -49.1177  -22.9833   15.9439 C.2       9 UNK         0.4988 
     44 O         -49.5670  -22.3606   16.9064 O.2       9 UNK        -0.5108 
     45 CA        -48.8602  -22.2432   14.6195 C.3       8 UNK         0.0248 
     46 CB        -47.3974  -21.7798   14.5333 C.3       8 UNK        -0.2001 
     47 N         -49.2058  -23.0406   13.4351 N.am      8 UNK        -0.4140 
     48 C         -50.4438  -23.4727   13.1465 C.2       8 UNK         0.5028 
     49 O         -51.4314  -23.2141   13.8331 O.2       8 UNK        -0.5428 
     50 CA        -50.6113  -24.3907   11.9255 C.3       7 UNK         0.0264 
     51 CB        -50.5632  -23.5927   10.6176 C.3       7 UNK        -0.1988 
     52 N         -49.6168  -25.4625   11.8923 N.am      7 UNK        -0.4454 
     53 C         -49.5689  -26.4660   12.7812 C.2       7 UNK         0.5027 
     54 O         -50.4373  -26.6560   13.6352 O.2       7 UNK        -0.5083 
     55 CA        -48.3135  -27.3650   12.7698 C.3       6 UNK         0.0844 
     56 C56       -48.5229  -28.7451   12.1004 C.3       14 UNK        -0.0967 
     57 S57       -48.9108  -28.6967   10.3178 S.3       14 UNK        -0.2604 
     58 C58       -50.4337  -29.6968   10.2181 C.3       14 UNK         0.0134 
     59 N         -47.1187  -26.6588   12.2909 N.am      6 UNK        -0.4116 
     60 C         -46.4874  -25.7269   13.0206 C.2       5 UNK         0.5034 
     61 O         -46.8816  -25.3446   14.1225 O.2       5 UNK        -0.5045 
     62 CA        -45.2035  -25.1169   12.4406 C.3       5 UNK         0.0224 
     63 CB        -44.0733  -26.1583   12.3877 C.3       5 UNK        -0.1978 
     64 N         -45.3632  -24.5026   11.1229 N.am      5 UNK        -0.4737 
     65 C         -46.1898  -23.4987   10.8066 C.2       4 UNK         0.5027 
     66 O         -47.0327  -23.0377   11.5740 O.2       4 UNK        -0.5211 
     67 CA        -46.0481  -22.8995    9.3940 C.3       4 UNK         0.0297 
     68 CB        -44.7248  -22.1256    9.2337 C.3       4 UNK        -0.1993 
     69 N         -46.2420  -23.8868    8.3265 N.am      4 UNK        -0.4486 
     70 C         -45.5245  -24.9855    8.0525 C.2       3 UNK         0.4961 
     71 O         -44.4236  -25.2230    8.5539 O.2       3 UNK        -0.5105 
     72 CA        -46.1547  -26.0171    7.0909 C.3       3 UNK         0.0299 
     73 CB        -45.8535  -27.4618    7.5412 C.3       3 UNK        -0.1972 
     74 N         -47.6012  -25.8774    6.8536 N.am      3 UNK        -0.4305 
     75 C         -48.5945  -25.8360    7.7603 C.2       2 UNK         0.5006 
     76 O         -48.4264  -25.7266    8.9760 O.2       2 UNK        -0.5106 
     77 CA        -50.0301  -25.8948    7.2096 C.3       2 UNK         0.0296 
     78 CB        -50.5343  -24.4789    6.8774 C.3       2 UNK        -0.2002 
     79 N         -50.2028  -26.7358    6.0215 N.am      2 UNK        -0.4032 
     80 C         -49.8275  -28.0158    5.8806 C.2       1 UNK         0.5000 
     81 O         -49.2591  -28.6862    6.7446 O.2       1 UNK        -0.5238 
     82 H82       -46.3215  -29.2248    2.1772 H         1 UNK         0.0889 
     83 H83       -46.8629  -30.5762    3.1750 H         1 UNK         0.0889 
     84 H84       -45.7706  -29.3649    3.8492 H         1 UNK         0.0889 
     85 H85       -48.9515  -30.3155    3.9419 H         1 UNK         0.3028 
     86 H86       -50.3916  -27.8694    3.8050 H         1 UNK         0.0864 
     87 H87       -51.1822  -30.3616    5.4068 H         1 UNK         0.0720 
     88 H88       -51.3739  -30.2364    3.6817 H         1 UNK         0.0720 
     89 H89       -53.4530  -30.6070    6.2633 H         1 UNK         0.0814 
     90 H90       -54.6983  -29.3929    6.2580 H         1 UNK         0.0814 
     91 H91       -51.5854  -30.4466    7.8594 H         1 UNK         0.1469 
     92 H92       -51.7495  -27.4045   10.8750 H         1 UNK         0.1381 
     93 H93       -54.4158  -27.2449    7.5194 H         1 UNK         0.1206 
     94 H94       -54.3811  -25.4152    9.0672 H         1 UNK         0.0813 
     95 H95       -52.9813  -25.2106   10.0833 H         1 UNK         0.0813 
     96 H96       -56.4617  -26.7475    9.6620 H         1 UNK         0.0638 
     97 H97       -55.6678  -28.2109   10.1993 H         1 UNK         0.0638 
     98 H98       -57.6521  -26.5909   11.8642 H         1 UNK         0.0568 
     99 H99       -59.5505  -29.9162   10.5403 H         1 UNK         0.3450 
    100 H100      -58.2526  -30.0281   11.7035 H         1 UNK         0.3450 
    101 H101      -55.9178  -28.7606   12.6541 H         1 UNK         0.2987 
    102 H102      -57.3491  -28.9277   15.9117 H         1 UNK         0.0766 
    103 H103      -56.8323  -31.3323   15.6310 H         1 UNK         0.0798 
    104 H104      -56.7394  -31.1399   13.8818 H         1 UNK         0.0798 
    105 H105      -58.2664  -30.8984   14.7157 H         1 UNK         0.0798 
    106 H106      -55.1982  -28.5299   16.0630 H         1 UNK         0.3198 
    107 H107      -52.9315  -29.4777   15.9707 H         1 UNK         0.0843 
    108 H108      -51.8371  -29.0722   13.1453 H         1 UNK         0.0831 
    109 H109      -51.9756  -30.6240   13.9635 H         1 UNK         0.0831 
    110 H110      -50.8838  -29.3995   14.5937 H         1 UNK         0.0831 
    111 H111      -52.0611  -27.1294   14.5873 H         1 UNK         0.3133 
    112 H112      -53.2582  -24.9027   15.1177 H         1 UNK         0.0566 
    113 H113      -53.4463  -23.4042   17.1012 H         1 UNK         0.0814 
    114 H114      -54.8010  -24.5185   17.0121 H         1 UNK         0.0814 
    115 H115      -53.5127  -24.8039   18.1715 H         1 UNK         0.0814 
    116 H116      -51.1014  -24.6369   15.4112 H         1 UNK         0.3091 
    117 H117      -48.8646  -24.7479   17.9873 H         1 UNK         0.0702 
    118 H118      -47.3705  -26.3592   16.7581 H         1 UNK         0.0785 
    119 H119      -48.7912  -27.0667   15.9862 H         1 UNK         0.0785 
    120 H120      -48.5811  -27.1872   17.7250 H         1 UNK         0.0785 
    121 H121      -48.4095  -24.7126   15.1502 H         1 UNK         0.2998 
    122 H122      -49.4964  -21.3558   14.6125 H         1 UNK         0.0697 
    123 H123      -46.7080  -22.6236   14.4898 H         1 UNK         0.0825 
    124 H124      -47.1249  -21.1785   15.4017 H         1 UNK         0.0825 
    125 H125      -47.2286  -21.1657   13.6486 H         1 UNK         0.0825 
    126 H126      -48.4434  -23.2511   12.7934 H         1 UNK         0.3029 
    127 H127      -51.5973  -24.8539   12.0032 H         1 UNK         0.0897 
    128 H128      -50.8113  -24.2376    9.7777 H         1 UNK         0.0792 
    129 H129      -49.5774  -23.1635   10.4349 H         1 UNK         0.0792 
    130 H130      -51.2855  -22.7754   10.6268 H         1 UNK         0.0792 
    131 H131      -48.9008  -25.4086   11.1766 H         1 UNK         0.3086 
    132 H132      -48.1230  -27.5957   13.8196 H         1 UNK         0.0583 
    133 H133      -47.6189  -29.3438   12.2220 H         1 UNK         0.1020 
    134 H134      -49.2933  -29.2933   12.6420 H         1 UNK         0.1020 
    135 H135      -50.1828  -30.6502    9.7508 H         1 UNK         0.0694 
    136 H136      -50.8172  -29.9417   11.2072 H         1 UNK         0.0694 
    137 H137      -46.7794  -26.8963   11.3697 H         1 UNK         0.2989 
    138 H138      -44.8951  -24.3234   13.1249 H         1 UNK         0.1055 
    139 H139      -43.9354  -26.6372   13.3583 H         1 UNK         0.0806 
    140 H140      -43.1231  -25.6960   12.1195 H         1 UNK         0.0806 
    141 H141      -44.2777  -26.9447   11.6600 H         1 UNK         0.0806 
    142 H142      -44.7574  -24.8382   10.3777 H         1 UNK         0.3061 
    143 H143      -46.8603  -22.1797    9.2794 H         1 UNK         0.0734 
    144 H144      -44.6646  -21.6443    8.2577 H         1 UNK         0.0832 
    145 H145      -44.6428  -21.3413    9.9873 H         1 UNK         0.0832 
    146 H146      -43.8515  -22.7688    9.3431 H         1 UNK         0.0832 
    147 H147      -47.1433  -23.8375    7.8733 H         1 UNK         0.3156 
    148 H148      -45.6731  -25.8621    6.1246 H         1 UNK         0.0589 
    149 H149      -46.2801  -27.6714    8.5231 H         1 UNK         0.0808 
    150 H150      -46.2656  -28.1880    6.8400 H         1 UNK         0.0808 
    151 H151      -44.7803  -27.6462    7.6024 H         1 UNK         0.0808 
    152 H152      -47.8759  -25.9429    5.8820 H         1 UNK         0.3098 
    153 H153      -50.6542  -26.3135    7.9999 H         1 UNK         0.0720 
    154 H154      -51.6168  -24.4679    6.7479 H         1 UNK         0.0791 
    155 H155      -50.0829  -24.0949    5.9618 H         1 UNK         0.0791 
    156 H156      -50.2955  -23.7653    7.6652 H         1 UNK         0.0791 
    157 H157      -50.6741  -26.2984    5.2432 H         1 UNK         0.3028 
@<TRIPOS>BOND
     1    1    2 1    
     2    1   82 1    
     3    1   83 1    
     4    1   84 1    
     5    2    3 2    
     6    2    4 am   BACKBONE|DICT|INTERRES
     7    4    5 1    
     8    4   85 1    
     9    5    6 1    
    10    5   80 1    
    11    5   86 1    
    12    6    7 1    
    13    6   87 1    
    14    6   88 1    
    15    7    8 1    
    16    8    9 1    
    17    8   89 1    
    18    8   90 1    
    19    9   10 ar   
    20    9   14 ar   
    21   10   11 ar   
    22   10   91 1    
    23   11   12 ar   
    24   11   58 1    
    25   12   13 ar   
    26   12   92 1    
    27   13   14 ar   
    28   13   15 1    
    29   14   93 1    
    30   15   16 1    
    31   15   94 1    
    32   15   95 1    
    33   16   17 1    
    34   17   18 1    
    35   17   96 1    
    36   17   97 1    
    37   18   19 1    
    38   18   22 1    
    39   18   98 1    
    40   19   20 am   BACKBONE|DICT|INTERRES
    41   19   21 2    
    42   20   99 1    
    43   20  100 1    
    44   22   23 am   BACKBONE|DICT|INTERRES
    45   22  101 1    
    46   23   24 2    
    47   23   25 1    
    48   25   26 1    
    49   25   27 1    
    50   25  102 1    
    51   26  103 1    
    52   26  104 1    
    53   26  105 1    
    54   27   28 am   BACKBONE|DICT|INTERRES
    55   27  106 1    
    56   28   29 2    
    57   28   30 1    
    58   30   31 1    
    59   30   32 1    
    60   30  107 1    
    61   31  108 1    
    62   31  109 1    
    63   31  110 1    
    64   32   33 am   BACKBONE|DICT|INTERRES
    65   32  111 1    
    66   33   34 2    
    67   33   35 1    
    68   35   36 1    
    69   35   37 1    
    70   35  112 1    
    71   36  113 1    
    72   36  114 1    
    73   36  115 1    
    74   37   38 am   BACKBONE|DICT|INTERRES
    75   37  116 1    
    76   38   39 2    
    77   38   40 1    
    78   40   41 1    
    79   40   42 1    
    80   40  117 1    
    81   41  118 1    
    82   41  119 1    
    83   41  120 1    
    84   42   43 am   BACKBONE|DICT|INTERRES
    85   42  121 1    
    86   43   44 2    
    87   43   45 1    
    88   45   46 1    
    89   45   47 1    
    90   45  122 1    
    91   46  123 1    
    92   46  124 1    
    93   46  125 1    
    94   47   48 am   BACKBONE|DICT|INTERRES
    95   47  126 1    
    96   48   49 2    
    97   48   50 1    
    98   50   51 1    
    99   50   52 1    
   100   50  127 1    
   101   51  128 1    
   102   51  129 1    
   103   51  130 1    
   104   52   53 am   BACKBONE|DICT|INTERRES
   105   52  131 1    
   106   53   54 2    
   107   53   55 1    
   108   55   56 1    
   109   55   59 1    
   110   55  132 1    
   111   56   57 1    
   112   56  133 1    
   113   56  134 1    
   114   57   58 1    
   115   58  135 1    
   116   58  136 1    
   117   59   60 am   BACKBONE|DICT|INTERRES
   118   59  137 1    
   119   60   61 2    
   120   60   62 1    
   121   62   63 1    
   122   62   64 1    
   123   62  138 1    
   124   63  139 1    
   125   63  140 1    
   126   63  141 1    
   127   64   65 am   BACKBONE|DICT|INTERRES
   128   64  142 1    
   129   65   66 2    
   130   65   67 1    
   131   67   68 1    
   132   67   69 1    
   133   67  143 1    
   134   68  144 1    
   135   68  145 1    
   136   68  146 1    
   137   69   70 am   BACKBONE|DICT|INTERRES
   138   69  147 1    
   139   70   71 2    
   140   70   72 1    
   141   72   73 1    
   142   72   74 1    
   143   72  148 1    
   144   73  149 1    
   145   73  150 1    
   146   73  151 1    
   147   74   75 am   BACKBONE|DICT|INTERRES
   148   74  152 1    
   149   75   76 2    
   150   75   77 1    
   151   77   78 1    
   152   77   79 1    
   153   77  153 1    
   154   78  154 1    
   155   78  155 1    
   156   78  156 1    
   157   79   80 am   BACKBONE|DICT|INTERRES
   158   79  157 1    
   159   80   81 2    
@<TRIPOS>SUBSTRUCTURE
     1 UNK         1 GROUP             0       ****    0 ROOT    
