@<TRIPOS>MOLECULE
3R207
157   159    1
SMALL
USER_CHARGES


@<TRIPOS>ATOM
      1 CA        -52.5755  -30.2845    3.8990 C.3       0 UNK        -0.1975 
      2 C         -51.8220  -29.5230    4.9796 C.2       0 UNK         0.4852 
      3 O         -51.7927  -28.2922    4.9492 O.2       0 UNK        -0.5216 
      4 N         -51.2219  -30.2473    5.9332 N.am      1 UNK        -0.4461 
      5 CA        -50.4385  -29.6895    7.0392 C.3       1 UNK         0.0864 
      6 C6        -50.2521  -30.7382    8.1682 C.3       14 UNK        -0.0898 
      7 S7        -49.9477  -29.9787    9.7995 S.3       14 UNK        -0.2598 
      8 C8        -51.6246  -29.9048   10.5119 C.3       14 UNK         0.0286 
      9 C9        -52.5425  -29.0169    9.6884 C.ar      14 UNK        -0.0844 
     10 C10       -52.4032  -27.6283    9.7473 C.ar      14 UNK        -0.0881 
     11 C11       -53.1923  -26.8008    8.9430 C.ar      14 UNK        -0.0643 
     12 C12       -54.1448  -27.3710    8.0945 C.ar      14 UNK        -0.0930 
     13 C13       -54.3178  -28.7581    8.0554 C.ar      14 UNK        -0.0827 
     14 C14       -53.5088  -29.5778    8.8484 C.ar      14 UNK        -0.1249 
     15 C15       -55.3987  -29.3656    7.1755 C.3       14 UNK         0.0141 
     16 S16       -57.0595  -29.0728    7.8674 S.3       14 UNK        -0.2313 
     17 C17       -56.9926  -30.0161    9.4297 C.3       14 UNK        -0.0915 
     18 CA        -56.5825  -29.1537   10.6558 C.3       13 UNK         0.0968 
     19 C         -57.7248  -28.2122   11.1257 C.2       13 UNK         0.5732 
     20 N         -57.7343  -26.9659   10.6733 N.am      13 UNK        -0.7310 
     21 O         -58.6163  -28.6129   11.8734 O.2       13 UNK        -0.5035 
     22 N         -56.1068  -30.0140   11.7459 N.am      13 UNK        -0.4233 
     23 C         -55.3666  -29.6046   12.7836 C.2       13 UNK         0.4989 
     24 O         -54.9116  -28.4656   12.8936 O.2       13 UNK        -0.4996 
     25 CA        -55.0868  -30.6295   13.8954 C.3       12 UNK         0.0216 
     26 CB        -55.6103  -32.0576   13.6021 C.3       12 UNK        -0.1964 
     27 N         -53.6506  -30.6635   14.1705 N.am      12 UNK        -0.4276 
     28 C         -53.0965  -31.0818   15.3146 C.2       12 UNK         0.5020 
     29 O         -53.7454  -31.4137   16.3114 O.2       12 UNK        -0.5489 
     30 CA        -51.5613  -31.1872   15.3606 C.3       11 UNK         0.0294 
     31 CB        -50.9370  -31.7030   14.0438 C.3       11 UNK        -0.2019 
     32 N         -50.9152  -29.9534   15.8188 N.am      11 UNK        -0.4493 
     33 C         -50.9068  -28.7552   15.2185 C.2       11 UNK         0.4932 
     34 O         -51.4619  -28.5073   14.1459 O.2       11 UNK        -0.5029 
     35 CA        -50.0688  -27.6790   15.9244 C.3       10 UNK         0.0280 
     36 CB        -48.5810  -27.8433   15.5698 C.3       10 UNK        -0.1976 
     37 N         -50.4873  -26.3338   15.5426 N.am      10 UNK        -0.4242 
     38 C         -51.4369  -25.6129   16.1499 C.2       10 UNK         0.5072 
     39 O         -52.1054  -26.0200   17.1029 O.2       10 UNK        -0.5224 
     40 CA        -51.6324  -24.1788   15.6133 C.3       9 UNK         0.0343 
     41 CB        -52.5419  -23.3072   16.5050 C.3       9 UNK        -0.2003 
     42 N         -50.3487  -23.5134   15.3525 N.am      9 UNK        -0.4272 
     43 C         -49.3680  -23.2490   16.2307 C.2       9 UNK         0.4988 
     44 O         -49.4716  -23.4037   17.4480 O.2       9 UNK        -0.5108 
     45 CA        -48.0178  -22.7701   15.6619 C.3       8 UNK         0.0248 
     46 CB        -46.9950  -23.9176   15.7080 C.3       8 UNK        -0.2001 
     47 N         -48.0953  -22.2602   14.2896 N.am      8 UNK        -0.4140 
     48 C         -48.6282  -21.0793   13.9462 C.2       8 UNK         0.5028 
     49 O         -49.0619  -20.2606   14.7578 O.2       8 UNK        -0.5428 
     50 CA        -48.7201  -20.7702   12.4413 C.3       7 UNK         0.0264 
     51 CB        -47.3831  -20.2255   11.9139 C.3       7 UNK        -0.1988 
     52 N         -49.1346  -21.9260   11.6390 N.am      7 UNK        -0.4454 
     53 C         -50.3229  -22.5410   11.7469 C.2       7 UNK         0.5027 
     54 O         -51.2123  -22.1792   12.5174 O.2       7 UNK        -0.5083 
     55 CA        -50.5485  -23.7952   10.8809 C.3       6 UNK         0.0844 
     56 C56       -50.9789  -23.3932    9.4467 C.3       14 UNK        -0.0967 
     57 S57       -51.3649  -24.8206    8.3838 S.3       14 UNK        -0.2604 
     58 C58       -53.0098  -25.2935    9.0015 C.3       14 UNK         0.0134 
     59 N         -49.3935  -24.6978   10.9227 N.am      6 UNK        -0.4116 
     60 C         -48.9526  -25.3139   12.0301 C.2       5 UNK         0.5034 
     61 O         -49.5156  -25.2516   13.1217 O.2       5 UNK        -0.5045 
     62 CA        -47.6274  -26.0809   11.9297 C.3       5 UNK         0.0224 
     63 CB        -47.8497  -27.5123   11.4190 C.3       5 UNK        -0.1978 
     64 N         -46.6548  -25.3838   11.0874 N.am      5 UNK        -0.4737 
     65 C         -46.0529  -24.2366   11.4315 C.2       4 UNK         0.5027 
     66 O         -46.2233  -23.6745   12.5127 O.2       4 UNK        -0.5211 
     67 CA        -45.1408  -23.5871   10.3776 C.3       4 UNK         0.0297 
     68 CB        -43.7331  -24.2009   10.4300 C.3       4 UNK        -0.1993 
     69 N         -45.6775  -23.6989    9.0189 N.am      4 UNK        -0.4486 
     70 C         -46.8013  -23.1008    8.5994 C.2       3 UNK         0.4961 
     71 O         -47.4856  -22.3557    9.3008 O.2       3 UNK        -0.5105 
     72 CA        -47.2689  -23.4328    7.1713 C.3       3 UNK         0.0299 
     73 CB        -46.5609  -22.5306    6.1482 C.3       3 UNK        -0.1972 
     74 N         -47.0994  -24.8426    6.7909 N.am      3 UNK        -0.4305 
     75 C         -47.6318  -25.8772    7.4555 C.2       2 UNK         0.5006 
     76 O         -48.2336  -25.7681    8.5246 O.2       2 UNK        -0.5106 
     77 CA        -47.4429  -27.2728    6.8589 C.3       2 UNK         0.0296 
     78 CB        -46.1879  -27.9513    7.4368 C.3       2 UNK        -0.2002 
     79 N         -48.6345  -28.0441    7.1949 N.am      2 UNK        -0.4032 
     80 C         -49.0940  -29.1154    6.5421 C.2       1 UNK         0.5000 
     81 O         -48.5045  -29.6511    5.5980 O.2       1 UNK        -0.5238 
     82 H82       -52.1551  -30.0591    2.9191 H         1 UNK         0.0889 
     83 H83       -53.6247  -29.9901    3.8964 H         1 UNK         0.0889 
     84 H84       -52.5267  -31.3629    4.0495 H         1 UNK         0.0889 
     85 H85       -51.2475  -31.2551    5.8798 H         1 UNK         0.3028 
     86 H86       -51.0215  -28.8536    7.4309 H         1 UNK         0.0864 
     87 H87       -49.4342  -31.4240    7.9383 H         1 UNK         0.0720 
     88 H88       -51.1413  -31.3642    8.2567 H         1 UNK         0.0720 
     89 H89       -52.0314  -30.9129   10.6042 H         1 UNK         0.0814 
     90 H90       -51.5589  -29.5013   11.5227 H         1 UNK         0.0814 
     91 H91       -51.6565  -27.1907   10.3966 H         1 UNK         0.1469 
     92 H92       -54.7660  -26.7376    7.4763 H         1 UNK         0.1381 
     93 H93       -53.6298  -30.6516    8.8103 H         1 UNK         0.1206 
     94 H94       -55.3445  -28.9237    6.1796 H         1 UNK         0.0813 
     95 H95       -55.2408  -30.4370    7.0433 H         1 UNK         0.0813 
     96 H96       -57.9627  -30.4885    9.5941 H         1 UNK         0.0638 
     97 H97       -56.2861  -30.8362    9.2929 H         1 UNK         0.0638 
     98 H98       -55.7382  -28.5261   10.3688 H         1 UNK         0.0568 
     99 H99       -58.4749  -26.3446   10.9580 H         1 UNK         0.3450 
    100 H100      -57.0202  -26.6420   10.0396 H         1 UNK         0.3450 
    101 H101      -56.4659  -30.9564   11.7537 H         1 UNK         0.2987 
    102 H102      -55.5999  -30.2535   14.7842 H         1 UNK         0.0766 
    103 H103      -56.6897  -32.0634   13.4417 H         1 UNK         0.0798 
    104 H104      -55.4219  -32.7277   14.4418 H         1 UNK         0.0798 
    105 H105      -55.1320  -32.4942   12.7230 H         1 UNK         0.0798 
    106 H106      -53.0485  -30.2590   13.4609 H         1 UNK         0.3198 
    107 H107      -51.3400  -31.9380   16.1218 H         1 UNK         0.0843 
    108 H108      -50.9902  -30.9734   13.2376 H         1 UNK         0.0831 
    109 H109      -51.4401  -32.6087   13.7002 H         1 UNK         0.0831 
    110 H110      -49.8856  -31.9544   14.1843 H         1 UNK         0.0831 
    111 H111      -50.4393  -30.0313   16.7075 H         1 UNK         0.3133 
    112 H112      -50.1827  -27.7957   17.0045 H         1 UNK         0.0566 
    113 H113      -48.4116  -27.7501   14.4971 H         1 UNK         0.0814 
    114 H114      -48.2077  -28.8220   15.8740 H         1 UNK         0.0814 
    115 H115      -47.9686  -27.0943   16.0723 H         1 UNK         0.0814 
    116 H116      -50.0607  -25.9465   14.7022 H         1 UNK         0.3091 
    117 H117      -52.1213  -24.2815   14.6432 H         1 UNK         0.0702 
    118 H118      -52.6650  -22.3085   16.0861 H         1 UNK         0.0785 
    119 H119      -52.1428  -23.2020   17.5142 H         1 UNK         0.0785 
    120 H120      -53.5359  -23.7469   16.5937 H         1 UNK         0.0785 
    121 H121      -50.1364  -23.3758   14.3729 H         1 UNK         0.2998 
    122 H122      -47.6579  -21.9656   16.3066 H         1 UNK         0.0697 
    123 H123      -46.0100  -23.5851   15.3801 H         1 UNK         0.0825 
    124 H124      -47.2966  -24.7487   15.0696 H         1 UNK         0.0825 
    125 H125      -46.8851  -24.3068   16.7211 H         1 UNK         0.0825 
    126 H126      -47.6815  -22.8398   13.5639 H         1 UNK         0.3029 
    127 H127      -49.4769  -19.9933   12.3127 H         1 UNK         0.0897 
    128 H128      -47.0684  -19.3476   12.4797 H         1 UNK         0.0792 
    129 H129      -47.4618  -19.9267   10.8683 H         1 UNK         0.0792 
    130 H130      -46.5867  -20.9662   11.9899 H         1 UNK         0.0792 
    131 H131      -48.4772  -22.2492   10.9322 H         1 UNK         0.3086 
    132 H132      -51.3768  -24.3388   11.3388 H         1 UNK         0.0583 
    133 H133      -51.8529  -22.7390    9.4743 H         1 UNK         0.1020 
    134 H134      -50.1889  -22.8197    8.9584 H         1 UNK         0.1020 
    135 H135      -53.1471  -24.9671   10.0323 H         1 UNK         0.0694 
    136 H136      -53.7706  -24.7796    8.4121 H         1 UNK         0.0694 
    137 H137      -48.9110  -24.8698   10.0438 H         1 UNK         0.2989 
    138 H138      -47.2116  -26.1454   12.9375 H         1 UNK         0.1055 
    139 H139      -48.5678  -28.0435   12.0453 H         1 UNK         0.0806 
    140 H140      -46.9237  -28.0868   11.4295 H         1 UNK         0.0806 
    141 H141      -48.2410  -27.5276   10.4028 H         1 UNK         0.0806 
    142 H142      -46.5318  -25.7346   10.1482 H         1 UNK         0.3061 
    143 H143      -45.0592  -22.5255   10.6201 H         1 UNK         0.0734 
    144 H144      -43.7418  -25.2611   10.1741 H         1 UNK         0.0832 
    145 H145      -43.0531  -23.6944    9.7449 H         1 UNK         0.0832 
    146 H146      -43.3077  -24.1113   11.4307 H         1 UNK         0.0832 
    147 H147      -45.1827  -24.2968    8.3732 H         1 UNK         0.3156 
    148 H148      -48.3386  -23.2175    7.1265 H         1 UNK         0.0589 
    149 H149      -46.9682  -22.6697    5.1466 H         1 UNK         0.0808 
    150 H150      -45.4890  -22.7278    6.1063 H         1 UNK         0.0808 
    151 H151      -46.6888  -21.4774    6.4031 H         1 UNK         0.0808 
    152 H152      -46.6026  -25.0221    5.9298 H         1 UNK         0.3098 
    153 H153      -47.3585  -27.1903    5.7732 H         1 UNK         0.0720 
    154 H154      -45.2906  -27.3723    7.2150 H         1 UNK         0.0791 
    155 H155      -46.0436  -28.9453    7.0129 H         1 UNK         0.0791 
    156 H156      -46.2516  -28.0580    8.5206 H         1 UNK         0.0791 
    157 H157      -49.1753  -27.6452    7.9540 H         1 UNK         0.3028 
@<TRIPOS>BOND
     1    1    2 1    
     2    1   82 1    
     3    1   83 1    
     4    1   84 1    
     5    2    3 2    
     6    2    4 am   BACKBONE|DICT|INTERRES
     7    4    5 1    
     8    4   85 1    
     9    5    6 1    
    10    5   80 1    
    11    5   86 1    
    12    6    7 1    
    13    6   87 1    
    14    6   88 1    
    15    7    8 1    
    16    8    9 1    
    17    8   89 1    
    18    8   90 1    
    19    9   10 ar   
    20    9   14 ar   
    21   10   11 ar   
    22   10   91 1    
    23   11   12 ar   
    24   11   58 1    
    25   12   13 ar   
    26   12   92 1    
    27   13   14 ar   
    28   13   15 1    
    29   14   93 1    
    30   15   16 1    
    31   15   94 1    
    32   15   95 1    
    33   16   17 1    
    34   17   18 1    
    35   17   96 1    
    36   17   97 1    
    37   18   19 1    
    38   18   22 1    
    39   18   98 1    
    40   19   20 am   BACKBONE|DICT|INTERRES
    41   19   21 2    
    42   20   99 1    
    43   20  100 1    
    44   22   23 am   BACKBONE|DICT|INTERRES
    45   22  101 1    
    46   23   24 2    
    47   23   25 1    
    48   25   26 1    
    49   25   27 1    
    50   25  102 1    
    51   26  103 1    
    52   26  104 1    
    53   26  105 1    
    54   27   28 am   BACKBONE|DICT|INTERRES
    55   27  106 1    
    56   28   29 2    
    57   28   30 1    
    58   30   31 1    
    59   30   32 1    
    60   30  107 1    
    61   31  108 1    
    62   31  109 1    
    63   31  110 1    
    64   32   33 am   BACKBONE|DICT|INTERRES
    65   32  111 1    
    66   33   34 2    
    67   33   35 1    
    68   35   36 1    
    69   35   37 1    
    70   35  112 1    
    71   36  113 1    
    72   36  114 1    
    73   36  115 1    
    74   37   38 am   BACKBONE|DICT|INTERRES
    75   37  116 1    
    76   38   39 2    
    77   38   40 1    
    78   40   41 1    
    79   40   42 1    
    80   40  117 1    
    81   41  118 1    
    82   41  119 1    
    83   41  120 1    
    84   42   43 am   BACKBONE|DICT|INTERRES
    85   42  121 1    
    86   43   44 2    
    87   43   45 1    
    88   45   46 1    
    89   45   47 1    
    90   45  122 1    
    91   46  123 1    
    92   46  124 1    
    93   46  125 1    
    94   47   48 am   BACKBONE|DICT|INTERRES
    95   47  126 1    
    96   48   49 2    
    97   48   50 1    
    98   50   51 1    
    99   50   52 1    
   100   50  127 1    
   101   51  128 1    
   102   51  129 1    
   103   51  130 1    
   104   52   53 am   BACKBONE|DICT|INTERRES
   105   52  131 1    
   106   53   54 2    
   107   53   55 1    
   108   55   56 1    
   109   55   59 1    
   110   55  132 1    
   111   56   57 1    
   112   56  133 1    
   113   56  134 1    
   114   57   58 1    
   115   58  135 1    
   116   58  136 1    
   117   59   60 am   BACKBONE|DICT|INTERRES
   118   59  137 1    
   119   60   61 2    
   120   60   62 1    
   121   62   63 1    
   122   62   64 1    
   123   62  138 1    
   124   63  139 1    
   125   63  140 1    
   126   63  141 1    
   127   64   65 am   BACKBONE|DICT|INTERRES
   128   64  142 1    
   129   65   66 2    
   130   65   67 1    
   131   67   68 1    
   132   67   69 1    
   133   67  143 1    
   134   68  144 1    
   135   68  145 1    
   136   68  146 1    
   137   69   70 am   BACKBONE|DICT|INTERRES
   138   69  147 1    
   139   70   71 2    
   140   70   72 1    
   141   72   73 1    
   142   72   74 1    
   143   72  148 1    
   144   73  149 1    
   145   73  150 1    
   146   73  151 1    
   147   74   75 am   BACKBONE|DICT|INTERRES
   148   74  152 1    
   149   75   76 2    
   150   75   77 1    
   151   77   78 1    
   152   77   79 1    
   153   77  153 1    
   154   78  154 1    
   155   78  155 1    
   156   78  156 1    
   157   79   80 am   BACKBONE|DICT|INTERRES
   158   79  157 1    
   159   80   81 2    
@<TRIPOS>SUBSTRUCTURE
     1 UNK         1 GROUP             0       ****    0 ROOT    
