@<TRIPOS>MOLECULE
3R207
157   159    1
SMALL
USER_CHARGES


@<TRIPOS>ATOM
      1 CA        -48.0233  -32.1868    4.3144 C.3       0 UNK        -0.1975 
      2 C         -48.2970  -30.8139    3.7185 C.2       0 UNK         0.4852 
      3 O         -47.6753  -30.4447    2.7215 O.2       0 UNK        -0.5216 
      4 N         -49.2228  -30.0561    4.3218 N.am      1 UNK        -0.4461 
      5 CA        -49.6277  -28.7127    3.8850 C.3       1 UNK         0.0864 
      6 C6        -50.9218  -28.2437    4.5904 C.3       14 UNK        -0.0898 
      7 S7        -52.3425  -29.3655    4.3684 S.3       14 UNK        -0.2598 
      8 C8        -53.7135  -28.3001    4.9296 C.3       14 UNK         0.0286 
      9 C9        -53.5166  -27.8370    6.3671 C.ar      14 UNK        -0.0844 
     10 C10       -52.9287  -26.5956    6.6309 C.ar      14 UNK        -0.0881 
     11 C11       -52.6847  -26.1877    7.9445 C.ar      14 UNK        -0.0643 
     12 C12       -53.0555  -27.0278    9.0017 C.ar      14 UNK        -0.0930 
     13 C13       -53.6754  -28.2563    8.7524 C.ar      14 UNK        -0.0827 
     14 C14       -53.8994  -28.6575    7.4319 C.ar      14 UNK        -0.1249 
     15 C15       -54.0971  -29.1531    9.9065 C.3       14 UNK         0.0141 
     16 S16       -55.6528  -28.5701   10.6474 S.3       14 UNK        -0.2313 
     17 C17       -56.1632  -30.0110   11.6441 C.3       14 UNK        -0.0915 
     18 CA        -55.8563  -29.8386   13.1611 C.3       13 UNK         0.0968 
     19 C         -56.6058  -30.8672   14.0654 C.2       13 UNK         0.5732 
     20 N         -56.0526  -31.2843   15.2002 N.am      13 UNK        -0.7310 
     21 O         -57.7243  -31.2726   13.7569 O.2       13 UNK        -0.5035 
     22 N         -54.4190  -29.7237   13.4553 N.am      13 UNK        -0.4233 
     23 C         -53.4955  -30.6828   13.2831 C.2       13 UNK         0.4989 
     24 O         -53.7130  -31.7572   12.7227 O.2       13 UNK        -0.4996 
     25 CA        -52.0874  -30.4216   13.8524 C.3       12 UNK         0.0216 
     26 CB        -51.1158  -30.0423   12.7283 C.3       12 UNK        -0.1964 
     27 N         -52.0521  -29.3834   14.8859 N.am      12 UNK        -0.4276 
     28 C         -52.6458  -29.4781   16.0837 C.2       12 UNK         0.5020 
     29 O         -53.2438  -30.4826   16.4732 O.2       12 UNK        -0.5489 
     30 CA        -52.6184  -28.2247   16.9726 C.3       11 UNK         0.0294 
     31 CB        -51.4439  -28.2945   17.9605 C.3       11 UNK        -0.2019 
     32 N         -52.5651  -26.9599   16.2266 N.am      11 UNK        -0.4493 
     33 C         -53.5233  -26.5210   15.3918 C.2       11 UNK         0.4932 
     34 O         -54.5004  -27.2036   15.0784 O.2       11 UNK        -0.5029 
     35 CA        -53.3725  -25.1066   14.7873 C.3       10 UNK         0.0280 
     36 CB        -54.7329  -24.4322   14.5154 C.3       10 UNK        -0.1976 
     37 N         -52.4918  -24.2071   15.5427 N.am      10 UNK        -0.4242 
     38 C         -52.6030  -23.8398   16.8286 C.2       10 UNK         0.5072 
     39 O         -53.5615  -24.1366   17.5443 O.2       10 UNK        -0.5224 
     40 CA        -51.4250  -23.0363   17.4251 C.3       9 UNK         0.0343 
     41 CB        -51.3346  -23.1880   18.9581 C.3       9 UNK        -0.2003 
     42 N         -50.1144  -23.3294   16.8231 N.am      9 UNK        -0.4272 
     43 C         -49.5226  -24.5232   16.6623 C.2       9 UNK         0.4988 
     44 O         -50.0584  -25.5907   16.9625 O.2       9 UNK        -0.5108 
     45 CA        -48.1112  -24.5226   16.0334 C.3       8 UNK         0.0248 
     46 CB        -47.5718  -25.9479   15.8085 C.3       8 UNK        -0.2001 
     47 N         -48.0643  -23.7920   14.7624 N.am      8 UNK        -0.4140 
     48 C         -48.0982  -22.4574   14.6337 C.2       8 UNK         0.5028 
     49 O         -48.0863  -21.6829   15.5920 O.2       8 UNK        -0.5428 
     50 CA        -48.2455  -21.8850   13.2138 C.3       7 UNK         0.0264 
     51 CB        -46.8670  -21.6707   12.5724 C.3       7 UNK        -0.1988 
     52 N         -49.0885  -22.6992   12.3302 N.am      7 UNK        -0.4454 
     53 C         -50.3771  -23.0010   12.5616 C.2       7 UNK         0.5027 
     54 O         -50.9895  -22.6570   13.5735 O.2       7 UNK        -0.5083 
     55 CA        -51.1035  -23.8523   11.5078 C.3       6 UNK         0.0844 
     56 C56       -51.5748  -22.9947   10.3066 C.3       14 UNK        -0.0967 
     57 S57       -52.9124  -23.8237    9.3860 S.3       14 UNK        -0.2604 
     58 C58       -51.9831  -24.8615    8.2114 C.3       14 UNK         0.0134 
     59 N         -50.2445  -24.9583   11.0913 N.am      6 UNK        -0.4116 
     60 C         -50.2190  -26.1738   11.6509 C.2       5 UNK         0.5034 
     61 O         -50.9570  -26.5298   12.5695 O.2       5 UNK        -0.5045 
     62 CA        -49.1769  -27.1615   11.0938 C.3       5 UNK         0.0224 
     63 CB        -49.7757  -27.9928    9.9458 C.3       5 UNK        -0.1978 
     64 N         -47.9564  -26.5122   10.6079 N.am      5 UNK        -0.4737 
     65 C         -47.1071  -25.7970   11.3603 C.2       4 UNK         0.5027 
     66 O         -47.2441  -25.6170   12.5695 O.2       4 UNK        -0.5211 
     67 CA        -45.9389  -25.1176   10.6242 C.3       4 UNK         0.0297 
     68 CB        -44.7333  -26.0676   10.5513 C.3       4 UNK        -0.1993 
     69 N         -46.2737  -24.6552    9.2733 N.am      4 UNK        -0.4486 
     70 C         -47.2952  -23.8519    8.9377 C.2       3 UNK         0.4961 
     71 O         -48.0849  -23.3682    9.7502 O.2       3 UNK        -0.5105 
     72 CA        -47.5034  -23.5816    7.4366 C.3       3 UNK         0.0299 
     73 CB        -46.8778  -22.2336    7.0468 C.3       3 UNK        -0.1972 
     74 N         -46.9776  -24.6392    6.5621 N.am      3 UNK        -0.4305 
     75 C         -47.4227  -25.9035    6.5457 C.2       2 UNK         0.5006 
     76 O         -48.3144  -26.3257    7.2859 O.2       2 UNK        -0.5106 
     77 CA        -46.7068  -26.8742    5.5940 C.3       2 UNK         0.0296 
     78 CB        -45.5635  -27.5936    6.3290 C.3       2 UNK        -0.2002 
     79 N         -47.6520  -27.8694    5.0912 N.am      2 UNK        -0.4032 
     80 C         -48.5316  -27.6469    4.1046 C.2       1 UNK         0.5000 
     81 O         -48.5252  -26.6346    3.4006 O.2       1 UNK        -0.5238 
     82 H82       -48.2222  -32.9624    3.5753 H         1 UNK         0.0889 
     83 H83       -46.9792  -32.2633    4.6166 H         1 UNK         0.0889 
     84 H84       -48.6447  -32.3840    5.1878 H         1 UNK         0.0889 
     85 H85       -49.7275  -30.4236    5.1164 H         1 UNK         0.3028 
     86 H86       -49.8214  -28.7571    2.8109 H         1 UNK         0.0864 
     87 H87       -51.2131  -27.2592    4.2184 H         1 UNK         0.0720 
     88 H88       -50.7448  -28.1301    5.6624 H         1 UNK         0.0720 
     89 H89       -54.6505  -28.8524    4.8445 H         1 UNK         0.0814 
     90 H90       -53.8044  -27.4432    4.2602 H         1 UNK         0.0814 
     91 H91       -52.6325  -25.9587    5.8088 H         1 UNK         0.1469 
     92 H92       -52.8703  -26.7198   10.0219 H         1 UNK         0.1381 
     93 H93       -54.3617  -29.6142    7.2300 H         1 UNK         0.1206 
     94 H94       -53.3168  -29.1689   10.6671 H         1 UNK         0.0813 
     95 H95       -54.2150  -30.1812    9.5610 H         1 UNK         0.0813 
     96 H96       -57.2373  -30.1187   11.4852 H         1 UNK         0.0638 
     97 H97       -55.7162  -30.9236   11.2492 H         1 UNK         0.0638 
     98 H98       -56.2791  -28.8793   13.4610 H         1 UNK         0.0568 
     99 H99       -55.1386  -30.9588   15.4886 H         1 UNK         0.3450 
    100 H100      -56.5560  -31.9386   15.7776 H         1 UNK         0.3450 
    101 H101      -54.1627  -28.8803   13.9563 H         1 UNK         0.2987 
    102 H102      -51.7427  -31.3542   14.3042 H         1 UNK         0.0766 
    103 H103      -51.0986  -30.8026   11.9460 H         1 UNK         0.0798 
    104 H104      -50.0964  -29.9322   13.0986 H         1 UNK         0.0798 
    105 H105      -51.4127  -29.1026   12.2676 H         1 UNK         0.0798 
    106 H106      -51.6046  -28.5093   14.6450 H         1 UNK         0.3198 
    107 H107      -53.5458  -28.2197   17.5493 H         1 UNK         0.0843 
    108 H108      -51.4573  -27.4525   18.6529 H         1 UNK         0.0831 
    109 H109      -50.4826  -28.2879   17.4448 H         1 UNK         0.0831 
    110 H110      -51.4883  -29.2062   18.5578 H         1 UNK         0.0831 
    111 H111      -51.7707  -26.3555   16.4253 H         1 UNK         0.3133 
    112 H112      -52.8891  -25.2566   13.8243 H         1 UNK         0.0566 
    113 H113      -55.3085  -24.3013   15.4322 H         1 UNK         0.0814 
    114 H114      -55.3388  -25.0297   13.8330 H         1 UNK         0.0814 
    115 H115      -54.6038  -23.4524   14.0557 H         1 UNK         0.0814 
    116 H116      -51.7008  -23.8394   15.0221 H         1 UNK         0.3091 
    117 H117      -51.6337  -21.9886   17.2043 H         1 UNK         0.0702 
    118 H118      -50.5182  -22.5937   19.3685 H         1 UNK         0.0785 
    119 H119      -51.1724  -24.2269   19.2486 H         1 UNK         0.0785 
    120 H120      -52.2516  -22.8520   19.4436 H         1 UNK         0.0785 
    121 H121      -49.5844  -22.5222   16.5038 H         1 UNK         0.2998 
    122 H122      -47.4468  -24.0253   16.7428 H         1 UNK         0.0697 
    123 H123      -46.5590  -25.9301   15.4058 H         1 UNK         0.0825 
    124 H124      -47.5388  -26.5086   16.7436 H         1 UNK         0.0825 
    125 H125      -48.1974  -26.5082   15.1120 H         1 UNK         0.0825 
    126 H126      -48.0333  -24.3601   13.9202 H         1 UNK         0.3029 
    127 H127      -48.7309  -20.9109   13.3046 H         1 UNK         0.0897 
    128 H128      -46.9505  -21.2946   11.5524 H         1 UNK         0.0792 
    129 H129      -46.2854  -20.9437   13.1408 H         1 UNK         0.0792 
    130 H130      -46.2908  -22.5939   12.5485 H         1 UNK         0.0792 
    131 H131      -48.6691  -22.9958   11.4510 H         1 UNK         0.3086 
    132 H132      -51.9938  -24.2555   11.9925 H         1 UNK         0.0583 
    133 H133      -51.9796  -22.0403   10.6502 H         1 UNK         0.1020 
    134 H134      -50.7499  -22.7464    9.6361 H         1 UNK         0.1020 
    135 H135      -50.9807  -25.0728    8.5799 H         1 UNK         0.0694 
    136 H136      -51.8495  -24.2965    7.2877 H         1 UNK         0.0694 
    137 H137      -49.5507  -24.7420   10.3868 H         1 UNK         0.2989 
    138 H138      -48.8995  -27.8339   11.9084 H         1 UNK         0.1055 
    139 H139      -50.7074  -28.4753   10.2364 H         1 UNK         0.0806 
    140 H140      -50.0003  -27.3758    9.0754 H         1 UNK         0.0806 
    141 H141      -49.0915  -28.7792    9.6272 H         1 UNK         0.0806 
    142 H142      -47.7828  -26.5694    9.6121 H         1 UNK         0.3061 
    143 H143      -45.6432  -24.2434   11.2028 H         1 UNK         0.0734 
    144 H144      -43.8609  -25.5725   10.1244 H         1 UNK         0.0832 
    145 H145      -44.4503  -26.4144   11.5464 H         1 UNK         0.0832 
    146 H146      -44.9489  -26.9507    9.9483 H         1 UNK         0.0832 
    147 H147      -45.6848  -24.9915    8.5262 H         1 UNK         0.3156 
    148 H148      -48.5806  -23.5191    7.2678 H         1 UNK         0.0589 
    149 H149      -47.0983  -21.9777    6.0103 H         1 UNK         0.0808 
    150 H150      -47.2718  -21.4272    7.6674 H         1 UNK         0.0808 
    151 H151      -45.7940  -22.2388    7.1700 H         1 UNK         0.0808 
    152 H152      -46.2356  -24.3758    5.9287 H         1 UNK         0.3098 
    153 H153      -46.2901  -26.3166    4.7522 H         1 UNK         0.0720 
    154 H154      -44.8164  -26.8829    6.6845 H         1 UNK         0.0791 
    155 H155      -45.9246  -28.1487    7.1962 H         1 UNK         0.0791 
    156 H156      -45.0513  -28.2966    5.6715 H         1 UNK         0.0791 
    157 H157      -47.7619  -28.7075    5.6423 H         1 UNK         0.3028 
@<TRIPOS>BOND
     1    1    2 1    
     2    1   82 1    
     3    1   83 1    
     4    1   84 1    
     5    2    3 2    
     6    2    4 am   BACKBONE|DICT|INTERRES
     7    4    5 1    
     8    4   85 1    
     9    5    6 1    
    10    5   80 1    
    11    5   86 1    
    12    6    7 1    
    13    6   87 1    
    14    6   88 1    
    15    7    8 1    
    16    8    9 1    
    17    8   89 1    
    18    8   90 1    
    19    9   10 ar   
    20    9   14 ar   
    21   10   11 ar   
    22   10   91 1    
    23   11   12 ar   
    24   11   58 1    
    25   12   13 ar   
    26   12   92 1    
    27   13   14 ar   
    28   13   15 1    
    29   14   93 1    
    30   15   16 1    
    31   15   94 1    
    32   15   95 1    
    33   16   17 1    
    34   17   18 1    
    35   17   96 1    
    36   17   97 1    
    37   18   19 1    
    38   18   22 1    
    39   18   98 1    
    40   19   20 am   BACKBONE|DICT|INTERRES
    41   19   21 2    
    42   20   99 1    
    43   20  100 1    
    44   22   23 am   BACKBONE|DICT|INTERRES
    45   22  101 1    
    46   23   24 2    
    47   23   25 1    
    48   25   26 1    
    49   25   27 1    
    50   25  102 1    
    51   26  103 1    
    52   26  104 1    
    53   26  105 1    
    54   27   28 am   BACKBONE|DICT|INTERRES
    55   27  106 1    
    56   28   29 2    
    57   28   30 1    
    58   30   31 1    
    59   30   32 1    
    60   30  107 1    
    61   31  108 1    
    62   31  109 1    
    63   31  110 1    
    64   32   33 am   BACKBONE|DICT|INTERRES
    65   32  111 1    
    66   33   34 2    
    67   33   35 1    
    68   35   36 1    
    69   35   37 1    
    70   35  112 1    
    71   36  113 1    
    72   36  114 1    
    73   36  115 1    
    74   37   38 am   BACKBONE|DICT|INTERRES
    75   37  116 1    
    76   38   39 2    
    77   38   40 1    
    78   40   41 1    
    79   40   42 1    
    80   40  117 1    
    81   41  118 1    
    82   41  119 1    
    83   41  120 1    
    84   42   43 am   BACKBONE|DICT|INTERRES
    85   42  121 1    
    86   43   44 2    
    87   43   45 1    
    88   45   46 1    
    89   45   47 1    
    90   45  122 1    
    91   46  123 1    
    92   46  124 1    
    93   46  125 1    
    94   47   48 am   BACKBONE|DICT|INTERRES
    95   47  126 1    
    96   48   49 2    
    97   48   50 1    
    98   50   51 1    
    99   50   52 1    
   100   50  127 1    
   101   51  128 1    
   102   51  129 1    
   103   51  130 1    
   104   52   53 am   BACKBONE|DICT|INTERRES
   105   52  131 1    
   106   53   54 2    
   107   53   55 1    
   108   55   56 1    
   109   55   59 1    
   110   55  132 1    
   111   56   57 1    
   112   56  133 1    
   113   56  134 1    
   114   57   58 1    
   115   58  135 1    
   116   58  136 1    
   117   59   60 am   BACKBONE|DICT|INTERRES
   118   59  137 1    
   119   60   61 2    
   120   60   62 1    
   121   62   63 1    
   122   62   64 1    
   123   62  138 1    
   124   63  139 1    
   125   63  140 1    
   126   63  141 1    
   127   64   65 am   BACKBONE|DICT|INTERRES
   128   64  142 1    
   129   65   66 2    
   130   65   67 1    
   131   67   68 1    
   132   67   69 1    
   133   67  143 1    
   134   68  144 1    
   135   68  145 1    
   136   68  146 1    
   137   69   70 am   BACKBONE|DICT|INTERRES
   138   69  147 1    
   139   70   71 2    
   140   70   72 1    
   141   72   73 1    
   142   72   74 1    
   143   72  148 1    
   144   73  149 1    
   145   73  150 1    
   146   73  151 1    
   147   74   75 am   BACKBONE|DICT|INTERRES
   148   74  152 1    
   149   75   76 2    
   150   75   77 1    
   151   77   78 1    
   152   77   79 1    
   153   77  153 1    
   154   78  154 1    
   155   78  155 1    
   156   78  156 1    
   157   79   80 am   BACKBONE|DICT|INTERRES
   158   79  157 1    
   159   80   81 2    
@<TRIPOS>SUBSTRUCTURE
     1 UNK         1 GROUP             0       ****    0 ROOT    
