@<TRIPOS>MOLECULE
3R207
157   159    1
SMALL
USER_CHARGES


@<TRIPOS>ATOM
      1 CA        -51.4183  -24.1774    1.7244 C.3       0 UNK        -0.1975 
      2 C         -50.6114  -24.6142    2.9378 C.2       0 UNK         0.4852 
      3 O         -49.7599  -25.4965    2.8173 O.2       0 UNK        -0.5216 
      4 N         -50.8602  -23.9897    4.0984 N.am      1 UNK        -0.4461 
      5 CA        -50.2610  -24.2410    5.4215 C.3       1 UNK         0.0864 
      6 C6        -50.4891  -25.6805    5.9566 C.3       14 UNK        -0.0898 
      7 S7        -52.2609  -26.0561    6.1932 S.3       14 UNK        -0.2598 
      8 C8        -52.4194  -25.9858    8.0090 C.3       14 UNK         0.0286 
      9 C9        -52.2855  -27.3549    8.6714 C.ar      14 UNK        -0.0844 
     10 C10       -51.1291  -28.1272    8.5100 C.ar      14 UNK        -0.0881 
     11 C11       -51.0247  -29.3898    9.1009 C.ar      14 UNK        -0.0643 
     12 C12       -52.0805  -29.8741    9.8781 C.ar      14 UNK        -0.0930 
     13 C13       -53.2363  -29.1100   10.0610 C.ar      14 UNK        -0.0827 
     14 C14       -53.3320  -27.8532    9.4556 C.ar      14 UNK        -0.1249 
     15 C15       -54.4005  -29.6682   10.8673 C.3       14 UNK         0.0141 
     16 S16       -54.0309  -29.7559   12.6462 S.3       14 UNK        -0.2313 
     17 C17       -55.5925  -30.4932   13.2325 C.3       14 UNK        -0.0915 
     18 CA        -55.6816  -30.7169   14.7649 C.3       13 UNK         0.0968 
     19 C         -54.6099  -31.7135   15.2970 C.2       13 UNK         0.5732 
     20 N         -53.7184  -31.3132   16.1967 N.am      13 UNK        -0.7310 
     21 O         -54.6025  -32.8769   14.9009 O.2       13 UNK        -0.5035 
     22 N         -55.7658  -29.4493   15.5089 N.am      13 UNK        -0.4233 
     23 C         -56.3899  -29.3189   16.6890 C.2       13 UNK         0.4989 
     24 O         -57.0036  -30.2329   17.2417 O.2       13 UNK        -0.4996 
     25 CA        -56.3336  -27.9497   17.3822 C.3       12 UNK         0.0216 
     26 CB        -55.1088  -27.8673   18.3092 C.3       12 UNK        -0.1964 
     27 N         -56.2913  -26.8455   16.4227 N.am      12 UNK        -0.4276 
     28 C         -57.3554  -26.1346   16.0255 C.2       12 UNK         0.5020 
     29 O         -58.5018  -26.3412   16.4268 O.2       12 UNK        -0.5489 
     30 CA        -57.1149  -24.9769   15.0369 C.3       11 UNK         0.0294 
     31 CB        -57.1445  -23.6293   15.7769 C.3       11 UNK        -0.2019 
     32 N         -55.8521  -25.0868   14.3036 N.am      11 UNK        -0.4493 
     33 C         -55.6481  -25.9067   13.2641 C.2       11 UNK         0.4932 
     34 O         -56.5227  -26.6190   12.7710 O.2       11 UNK        -0.5029 
     35 CA        -54.2208  -25.9522   12.6887 C.3       10 UNK         0.0280 
     36 CB        -54.0786  -24.9213   11.5581 C.3       10 UNK        -0.1976 
     37 N         -53.1390  -25.7769   13.6732 N.am      10 UNK        -0.4242 
     38 C         -52.9792  -26.5127   14.7889 C.2       10 UNK         0.5072 
     39 O         -53.7971  -27.3557   15.1597 O.2       10 UNK        -0.5224 
     40 CA        -51.7356  -26.2741   15.6659 C.3       9 UNK         0.0343 
     41 CB        -51.1313  -27.6055   16.1496 C.3       9 UNK        -0.2003 
     42 N         -50.7009  -25.5261   14.9570 N.am      9 UNK        -0.4272 
     43 C         -50.2607  -24.3006   15.2752 C.2       9 UNK         0.4988 
     44 O         -50.6666  -23.6603   16.2457 O.2       9 UNK        -0.5108 
     45 CA        -49.1909  -23.6638   14.3613 C.3       8 UNK         0.0248 
     46 CB        -47.8089  -23.7359   15.0311 C.3       8 UNK        -0.2001 
     47 N         -49.1020  -24.2568   13.0226 N.am      8 UNK        -0.4140 
     48 C         -50.1060  -24.3067   12.1354 C.2       8 UNK         0.5028 
     49 O         -51.1977  -23.7679   12.3152 O.2       8 UNK        -0.5428 
     50 CA        -49.8931  -25.1720   10.8822 C.3       7 UNK         0.0264 
     51 CB        -49.3302  -24.3204    9.7368 C.3       7 UNK        -0.1988 
     52 N         -49.0403  -26.3450   11.1142 N.am      7 UNK        -0.4454 
     53 C         -49.3323  -27.3274   11.9853 C.2       7 UNK         0.5027 
     54 O         -50.3520  -27.3342   12.6741 O.2       7 UNK        -0.5083 
     55 CA        -48.2999  -28.4497   12.1982 C.3       6 UNK         0.0844 
     56 C56       -48.6010  -29.7228   11.3709 C.3       14 UNK        -0.0967 
     57 S57       -48.2813  -29.5553    9.5845 S.3       14 UNK        -0.2604 
     58 C58       -49.7944  -30.2525    8.8541 C.3       14 UNK         0.0134 
     59 N         -46.9320  -27.9541   12.0245 N.am      6 UNK        -0.4116 
     60 C         -46.1756  -27.4859   13.0270 C.2       5 UNK         0.5034 
     61 O         -46.5251  -27.4731   14.2078 O.2       5 UNK        -0.5045 
     62 CA        -44.7941  -26.9211   12.6568 C.3       5 UNK         0.0224 
     63 CB        -43.7694  -28.0564   12.5002 C.3       5 UNK        -0.1978 
     64 N         -44.7936  -26.0929   11.4485 N.am      5 UNK        -0.4737 
     65 C         -45.4991  -24.9648   11.2869 C.2       4 UNK         0.5027 
     66 O         -46.2694  -24.5065   12.1303 O.2       4 UNK        -0.5211 
     67 CA        -45.3318  -24.2337    9.9435 C.3       4 UNK         0.0297 
     68 CB        -44.1286  -23.2797   10.0059 C.3       4 UNK        -0.1993 
     69 N         -45.1984  -25.1042    8.7692 N.am      4 UNK        -0.4486 
     70 C         -46.0049  -26.1183    8.4280 C.2       3 UNK         0.4961 
     71 O         -46.9399  -26.5199    9.1226 O.2       3 UNK        -0.5105 
     72 CA        -45.7260  -26.7602    7.0568 C.3       3 UNK         0.0299 
     73 CB        -46.3291  -28.1693    6.9310 C.3       3 UNK        -0.1972 
     74 N         -46.2606  -25.9231    5.9839 N.am      3 UNK        -0.4305 
     75 C         -45.7156  -24.7821    5.5392 C.2       2 UNK         0.5006 
     76 O         -44.6338  -24.3438    5.9347 O.2       2 UNK        -0.5106 
     77 CA        -46.5101  -23.9909    4.4835 C.3       2 UNK         0.0296 
     78 CB        -45.9975  -24.3123    3.0705 C.3       2 UNK        -0.2002 
     79 N         -47.9554  -24.2331    4.5376 N.am      2 UNK        -0.4032 
     80 C         -48.7720  -23.8427    5.5251 C.2       1 UNK         0.5000 
     81 O         -48.3929  -23.1906    6.4987 O.2       1 UNK        -0.5238 
     82 H82       -52.1281  -23.3872    1.9683 H         1 UNK         0.0889 
     83 H83       -51.9769  -25.0227    1.3235 H         1 UNK         0.0889 
     84 H84       -50.7529  -23.8076    0.9449 H         1 UNK         0.0889 
     85 H85       -51.5572  -23.2576    4.0984 H         1 UNK         0.3028 
     86 H86       -50.7846  -23.5638    6.0990 H         1 UNK         0.0864 
     87 H87       -49.9646  -25.8184    6.9016 H         1 UNK         0.0720 
     88 H88       -50.0695  -26.4240    5.2775 H         1 UNK         0.0720 
     89 H89       -53.3939  -25.5523    8.2389 H         1 UNK         0.0814 
     90 H90       -51.6860  -25.2951    8.4211 H         1 UNK         0.0814 
     91 H91       -50.3087  -27.7632    7.9105 H         1 UNK         0.1469 
     92 H92       -52.0129  -30.8531   10.3324 H         1 UNK         0.1381 
     93 H93       -54.2312  -27.2671    9.5864 H         1 UNK         0.1206 
     94 H94       -54.6446  -30.6659   10.4995 H         1 UNK         0.0813 
     95 H95       -55.2938  -29.0584   10.7223 H         1 UNK         0.0813 
     96 H96       -55.7372  -31.4415   12.7116 H         1 UNK         0.0638 
     97 H97       -56.4141  -29.8504   12.9118 H         1 UNK         0.0638 
     98 H98       -56.6309  -31.2329   14.9215 H         1 UNK         0.0568 
     99 H99       -53.0344  -31.9682   16.5400 H         1 UNK         0.3450 
    100 H100      -53.7091  -30.3567   16.5100 H         1 UNK         0.3450 
    101 H101      -55.2006  -28.6829   15.1548 H         1 UNK         0.2987 
    102 H102      -57.2259  -27.8609   18.0058 H         1 UNK         0.0766 
    103 H103      -55.0874  -26.9222   18.8520 H         1 UNK         0.0798 
    104 H104      -54.1722  -27.9572   17.7589 H         1 UNK         0.0798 
    105 H105      -55.1279  -28.6660   19.0520 H         1 UNK         0.0798 
    106 H106      -55.3942  -26.6793   15.9765 H         1 UNK         0.3198 
    107 H107      -57.9368  -24.9876   14.3173 H         1 UNK         0.0843 
    108 H108      -56.3436  -23.5539   16.5136 H         1 UNK         0.0831 
    109 H109      -58.0881  -23.4971   16.3084 H         1 UNK         0.0831 
    110 H110      -57.0461  -22.7930   15.0846 H         1 UNK         0.0831 
    111 H111      -55.0775  -24.5286   14.6327 H         1 UNK         0.3133 
    112 H112      -54.0861  -26.9391   12.2482 H         1 UNK         0.0566 
    113 H113      -53.1571  -25.0747   10.9990 H         1 UNK         0.0814 
    114 H114      -54.8993  -25.0029   10.8439 H         1 UNK         0.0814 
    115 H115      -54.0759  -23.8996   11.9395 H         1 UNK         0.0814 
    116 H116      -52.4255  -25.0971   13.4333 H         1 UNK         0.3091 
    117 H117      -52.0763  -25.7191   16.5419 H         1 UNK         0.0702 
    118 H118      -50.2499  -27.4388   16.7688 H         1 UNK         0.0785 
    119 H119      -50.8380  -28.2395   15.3117 H         1 UNK         0.0785 
    120 H120      -51.8447  -28.1696   16.7510 H         1 UNK         0.0785 
    121 H121      -50.3442  -25.9817   14.1217 H         1 UNK         0.2998 
    122 H122      -49.4586  -22.6128   14.2364 H         1 UNK         0.0697 
    123 H123      -47.4644  -24.7663   15.1317 H         1 UNK         0.0825 
    124 H124      -47.8317  -23.2984   16.0302 H         1 UNK         0.0825 
    125 H125      -47.0611  -23.1884   14.4570 H         1 UNK         0.0825 
    126 H126      -48.2062  -24.6594   12.7628 H         1 UNK         0.3029 
    127 H127      -50.8694  -25.5550   10.5844 H         1 UNK         0.0897 
    128 H128      -49.1160  -24.9203    8.8540 H         1 UNK         0.0792 
    129 H129      -48.4110  -23.8182   10.0307 H         1 UNK         0.0792 
    130 H130      -50.0391  -23.5458    9.4420 H         1 UNK         0.0792 
    131 H131      -48.2067  -26.4253   10.5356 H         1 UNK         0.3086 
    132 H132      -48.4225  -28.7546   13.2400 H         1 UNK         0.0583 
    133 H133      -47.9815  -30.5425   11.7376 H         1 UNK         0.1020 
    134 H134      -49.6308  -30.0430   11.5403 H         1 UNK         0.1020 
    135 H135      -49.6456  -30.3522    7.7781 H         1 UNK         0.0694 
    136 H136      -49.9412  -31.2641    9.2358 H         1 UNK         0.0694 
    137 H137      -46.5933  -27.8916   11.0732 H         1 UNK         0.2989 
    138 H138      -44.4749  -26.2853   13.4859 H         1 UNK         0.1055 
    139 H139      -43.7378  -28.6796   13.3952 H         1 UNK         0.0806 
    140 H140      -42.7635  -27.6652   12.3460 H         1 UNK         0.0806 
    141 H141      -44.0101  -28.7071   11.6585 H         1 UNK         0.0806 
    142 H142      -44.2005  -26.3911   10.6877 H         1 UNK         0.3061 
    143 H143      -46.2224  -23.6263    9.7866 H         1 UNK         0.0734 
    144 H144      -44.0632  -22.6630    9.1092 H         1 UNK         0.0832 
    145 H145      -44.2113  -22.6018   10.8568 H         1 UNK         0.0832 
    146 H146      -43.1878  -23.8215   10.1110 H         1 UNK         0.0832 
    147 H147      -44.5149  -24.8192    8.0775 H         1 UNK         0.3156 
    148 H148      -44.6442  -26.8487    6.9359 H         1 UNK         0.0589 
    149 H149      -47.4170  -28.1538    7.0099 H         1 UNK         0.0808 
    150 H150      -46.0689  -28.6297    5.9779 H         1 UNK         0.0808 
    151 H151      -45.9535  -28.8234    7.7187 H         1 UNK         0.0808 
    152 H152      -47.1555  -26.1959    5.6068 H         1 UNK         0.3098 
    153 H153      -46.3401  -22.9296    4.6764 H         1 UNK         0.0720 
    154 H154      -46.4939  -23.6974    2.3195 H         1 UNK         0.0791 
    155 H155      -46.1621  -25.3586    2.8096 H         1 UNK         0.0791 
    156 H156      -44.9267  -24.1195    2.9897 H         1 UNK         0.0791 
    157 H157      -48.3759  -24.7610    3.7746 H         1 UNK         0.3028 
@<TRIPOS>BOND
     1    1    2 1    
     2    1   82 1    
     3    1   83 1    
     4    1   84 1    
     5    2    3 2    
     6    2    4 am   BACKBONE|DICT|INTERRES
     7    4    5 1    
     8    4   85 1    
     9    5    6 1    
    10    5   80 1    
    11    5   86 1    
    12    6    7 1    
    13    6   87 1    
    14    6   88 1    
    15    7    8 1    
    16    8    9 1    
    17    8   89 1    
    18    8   90 1    
    19    9   10 ar   
    20    9   14 ar   
    21   10   11 ar   
    22   10   91 1    
    23   11   12 ar   
    24   11   58 1    
    25   12   13 ar   
    26   12   92 1    
    27   13   14 ar   
    28   13   15 1    
    29   14   93 1    
    30   15   16 1    
    31   15   94 1    
    32   15   95 1    
    33   16   17 1    
    34   17   18 1    
    35   17   96 1    
    36   17   97 1    
    37   18   19 1    
    38   18   22 1    
    39   18   98 1    
    40   19   20 am   BACKBONE|DICT|INTERRES
    41   19   21 2    
    42   20   99 1    
    43   20  100 1    
    44   22   23 am   BACKBONE|DICT|INTERRES
    45   22  101 1    
    46   23   24 2    
    47   23   25 1    
    48   25   26 1    
    49   25   27 1    
    50   25  102 1    
    51   26  103 1    
    52   26  104 1    
    53   26  105 1    
    54   27   28 am   BACKBONE|DICT|INTERRES
    55   27  106 1    
    56   28   29 2    
    57   28   30 1    
    58   30   31 1    
    59   30   32 1    
    60   30  107 1    
    61   31  108 1    
    62   31  109 1    
    63   31  110 1    
    64   32   33 am   BACKBONE|DICT|INTERRES
    65   32  111 1    
    66   33   34 2    
    67   33   35 1    
    68   35   36 1    
    69   35   37 1    
    70   35  112 1    
    71   36  113 1    
    72   36  114 1    
    73   36  115 1    
    74   37   38 am   BACKBONE|DICT|INTERRES
    75   37  116 1    
    76   38   39 2    
    77   38   40 1    
    78   40   41 1    
    79   40   42 1    
    80   40  117 1    
    81   41  118 1    
    82   41  119 1    
    83   41  120 1    
    84   42   43 am   BACKBONE|DICT|INTERRES
    85   42  121 1    
    86   43   44 2    
    87   43   45 1    
    88   45   46 1    
    89   45   47 1    
    90   45  122 1    
    91   46  123 1    
    92   46  124 1    
    93   46  125 1    
    94   47   48 am   BACKBONE|DICT|INTERRES
    95   47  126 1    
    96   48   49 2    
    97   48   50 1    
    98   50   51 1    
    99   50   52 1    
   100   50  127 1    
   101   51  128 1    
   102   51  129 1    
   103   51  130 1    
   104   52   53 am   BACKBONE|DICT|INTERRES
   105   52  131 1    
   106   53   54 2    
   107   53   55 1    
   108   55   56 1    
   109   55   59 1    
   110   55  132 1    
   111   56   57 1    
   112   56  133 1    
   113   56  134 1    
   114   57   58 1    
   115   58  135 1    
   116   58  136 1    
   117   59   60 am   BACKBONE|DICT|INTERRES
   118   59  137 1    
   119   60   61 2    
   120   60   62 1    
   121   62   63 1    
   122   62   64 1    
   123   62  138 1    
   124   63  139 1    
   125   63  140 1    
   126   63  141 1    
   127   64   65 am   BACKBONE|DICT|INTERRES
   128   64  142 1    
   129   65   66 2    
   130   65   67 1    
   131   67   68 1    
   132   67   69 1    
   133   67  143 1    
   134   68  144 1    
   135   68  145 1    
   136   68  146 1    
   137   69   70 am   BACKBONE|DICT|INTERRES
   138   69  147 1    
   139   70   71 2    
   140   70   72 1    
   141   72   73 1    
   142   72   74 1    
   143   72  148 1    
   144   73  149 1    
   145   73  150 1    
   146   73  151 1    
   147   74   75 am   BACKBONE|DICT|INTERRES
   148   74  152 1    
   149   75   76 2    
   150   75   77 1    
   151   77   78 1    
   152   77   79 1    
   153   77  153 1    
   154   78  154 1    
   155   78  155 1    
   156   78  156 1    
   157   79   80 am   BACKBONE|DICT|INTERRES
   158   79  157 1    
   159   80   81 2    
@<TRIPOS>SUBSTRUCTURE
     1 UNK         1 GROUP             0       ****    0 ROOT    
