@<TRIPOS>MOLECULE
3R207
157   159    1
SMALL
USER_CHARGES


@<TRIPOS>ATOM
      1 CA        -52.2672  -27.5084    9.1672 C.3       0 UNK        -0.1975 
      2 C         -53.4327  -27.2465    8.2192 C.2       0 UNK         0.4852 
      3 O         -54.5356  -26.9801    8.6944 O.2       0 UNK        -0.5216 
      4 N         -53.2512  -27.3234    6.8923 N.am      1 UNK        -0.4461 
      5 CA        -51.9945  -27.5962    6.1799 C.3       1 UNK         0.0864 
      6 C6        -52.2339  -28.0359    4.7125 C.3       14 UNK        -0.0898 
      7 S7        -53.3512  -29.4678    4.5465 S.3       14 UNK        -0.2598 
      8 C8        -52.1929  -30.8708    4.6665 C.3       14 UNK         0.0286 
      9 C9        -51.7130  -31.0908    6.0947 C.ar      14 UNK        -0.0844 
     10 C10       -50.3630  -30.9376    6.4281 C.ar      14 UNK        -0.0881 
     11 C11       -49.9318  -31.1303    7.7450 C.ar      14 UNK        -0.0643 
     12 C12       -50.8582  -31.5003    8.7259 C.ar      14 UNK        -0.0930 
     13 C13       -52.2096  -31.6547    8.4041 C.ar      14 UNK        -0.0827 
     14 C14       -52.6287  -31.4512    7.0873 C.ar      14 UNK        -0.1249 
     15 C15       -53.2194  -32.0452    9.4725 C.3       14 UNK         0.0141 
     16 S16       -53.5000  -30.6820   10.6456 S.3       14 UNK        -0.2313 
     17 C17       -55.2740  -30.8739   11.0394 C.3       14 UNK        -0.0915 
     18 CA        -56.1299  -29.7250   10.4269 C.3       13 UNK         0.0968 
     19 C         -57.6648  -29.9841   10.5205 C.2       13 UNK         0.5732 
     20 N         -58.5008  -28.9591   10.6364 N.am      13 UNK        -0.7310 
     21 O         -58.1137  -31.1261   10.4491 O.2       13 UNK        -0.5035 
     22 N         -55.6895  -28.3943   10.8847 N.am      13 UNK        -0.4233 
     23 C         -55.7511  -27.9305   12.1394 C.2       13 UNK         0.4989 
     24 O         -56.3313  -28.5034   13.0656 O.2       13 UNK        -0.4996 
     25 CA        -55.0632  -26.5749   12.3835 C.3       12 UNK         0.0216 
     26 CB        -55.9761  -25.4152   11.9536 C.3       12 UNK        -0.1964 
     27 N         -54.6636  -26.3726   13.7796 N.am      12 UNK        -0.4276 
     28 C         -53.7786  -27.1139   14.4598 C.2       12 UNK         0.5020 
     29 O         -53.1702  -28.0698   13.9769 O.2       12 UNK        -0.5489 
     30 CA        -53.4882  -26.6638   15.9061 C.3       11 UNK         0.0294 
     31 CB        -52.5948  -27.6583   16.6707 C.3       11 UNK        -0.2019 
     32 N         -52.8557  -25.3406   15.9216 N.am      11 UNK        -0.4493 
     33 C         -53.5174  -24.1807   15.7908 C.2       11 UNK         0.4932 
     34 O         -54.7454  -24.1220   15.6995 O.2       11 UNK        -0.5029 
     35 CA        -52.6892  -22.8835   15.6752 C.3       10 UNK         0.0280 
     36 CB        -53.4619  -21.6414   16.1690 C.3       10 UNK        -0.1976 
     37 N         -51.3565  -22.9507   16.2868 N.am      10 UNK        -0.4242 
     38 C         -51.0536  -23.1124   17.5844 C.2       10 UNK         0.5072 
     39 O         -51.8929  -23.2501   18.4758 O.2       10 UNK        -0.5224 
     40 CA        -49.5523  -23.1378   17.9272 C.3       9 UNK         0.0343 
     41 CB        -49.2678  -23.7767   19.2996 C.3       9 UNK        -0.2003 
     42 N         -48.8265  -23.8806   16.8986 N.am      9 UNK        -0.4272 
     43 C         -47.8992  -23.4046   16.0638 C.2       9 UNK         0.4988 
     44 O         -47.4767  -22.2487   16.0908 O.2       9 UNK        -0.5108 
     45 CA        -47.3628  -24.3855   15.0044 C.3       8 UNK         0.0248 
     46 CB        -46.5557  -25.5272   15.6527 C.3       8 UNK        -0.2001 
     47 N         -48.3756  -24.9203   14.0818 N.am      8 UNK        -0.4140 
     48 C         -49.4619  -25.6660   14.3406 C.2       8 UNK         0.5028 
     49 O         -49.8663  -25.9449   15.4699 O.2       8 UNK        -0.5428 
     50 CA        -50.2322  -26.2018   13.1283 C.3       7 UNK         0.0264 
     51 CB        -51.2140  -25.1522   12.5789 C.3       7 UNK        -0.1988 
     52 N         -49.3248  -26.6578   12.0710 N.am      7 UNK        -0.4454 
     53 C         -48.8226  -27.9008   12.0139 C.2       7 UNK         0.5027 
     54 O         -49.0394  -28.7677   12.8613 O.2       7 UNK        -0.5083 
     55 CA        -47.9673  -28.2581   10.7845 C.3       6 UNK         0.0844 
     56 C56       -48.8821  -28.5541    9.5725 C.3       14 UNK        -0.0967 
     57 S57       -47.9767  -29.1905    8.1226 S.3       14 UNK        -0.2604 
     58 C58       -48.4638  -30.9459    8.1058 C.3       14 UNK         0.0134 
     59 N         -46.9655  -27.2359   10.4816 N.am      6 UNK        -0.4116 
     60 C         -45.8336  -27.0446   11.1710 C.2       5 UNK         0.5034 
     61 O         -45.5550  -27.6340   12.2152 O.2       5 UNK        -0.5045 
     62 CA        -44.8268  -26.0481   10.5801 C.3       5 UNK         0.0224 
     63 CB        -44.1165  -26.6618    9.3612 C.3       5 UNK        -0.1978 
     64 N         -45.4848  -24.8057   10.1765 N.am      5 UNK        -0.4737 
     65 C         -45.3022  -23.6177   10.7674 C.2       4 UNK         0.5027 
     66 O         -44.5097  -23.4243   11.6897 O.2       4 UNK        -0.5211 
     67 CA        -46.1476  -22.4350   10.2525 C.3       4 UNK         0.0297 
     68 CB        -45.3447  -21.6099    9.2340 C.3       4 UNK        -0.1993 
     69 N         -47.4307  -22.8200    9.6544 N.am      4 UNK        -0.4486 
     70 C         -48.4040  -23.4807   10.2939 C.2       3 UNK         0.4961 
     71 O         -48.3313  -23.8430   11.4675 O.2       3 UNK        -0.5105 
     72 CA        -49.6495  -23.8671    9.4798 C.3       3 UNK         0.0299 
     73 CB        -50.6921  -22.7398    9.5229 C.3       3 UNK        -0.1972 
     74 N         -49.4181  -24.2661    8.0876 N.am      3 UNK        -0.4305 
     75 C         -48.5047  -25.1368    7.6367 C.2       2 UNK         0.5006 
     76 O         -47.6021  -25.6134    8.3266 O.2       2 UNK        -0.5106 
     77 CA        -48.6877  -25.6081    6.1858 C.3       2 UNK         0.0296 
     78 CB        -47.3888  -26.1852    5.5936 C.3       2 UNK        -0.2002 
     79 N         -49.7408  -26.6251    6.1213 N.am      2 UNK        -0.4032 
     80 C         -51.0554  -26.3741    6.2073 C.2       1 UNK         0.5000 
     81 O         -51.5270  -25.2359    6.2873 O.2       1 UNK        -0.5238 
     82 H82       -52.6158  -27.5701   10.1976 H         1 UNK         0.0889 
     83 H83       -51.5399  -26.7004    9.1102 H         1 UNK         0.0889 
     84 H84       -51.7847  -28.4571    8.9373 H         1 UNK         0.0889 
     85 H85       -54.0420  -27.1391    6.2929 H         1 UNK         0.3028 
     86 H86       -51.4874  -28.4111    6.6946 H         1 UNK         0.0864 
     87 H87       -52.6708  -27.2160    4.1386 H         1 UNK         0.0720 
     88 H88       -51.2893  -28.2752    4.2199 H         1 UNK         0.0720 
     89 H89       -51.3552  -30.7168    3.9846 H         1 UNK         0.0814 
     90 H90       -52.7010  -31.7737    4.3248 H         1 UNK         0.0814 
     91 H91       -49.6455  -30.6589    5.6682 H         1 UNK         0.1469 
     92 H92       -50.5332  -31.6570    9.7455 H         1 UNK         0.1381 
     93 H93       -53.6732  -31.5652    6.8302 H         1 UNK         0.1206 
     94 H94       -52.8642  -32.9213   10.0166 H         1 UNK         0.0813 
     95 H95       -54.1602  -32.3355    9.0027 H         1 UNK         0.0813 
     96 H96       -55.3840  -30.8974   12.1245 H         1 UNK         0.0638 
     97 H97       -55.6150  -31.8484   10.6875 H         1 UNK         0.0638 
     98 H98       -55.9347  -29.7277    9.3540 H         1 UNK         0.0568 
     99 H99       -59.4921  -29.1330   10.6843 H         1 UNK         0.3450 
    100 H100      -58.1478  -28.0175   10.6892 H         1 UNK         0.3450 
    101 H101      -55.2538  -27.8211   10.1648 H         1 UNK         0.2987 
    102 H102      -54.1543  -26.5436   11.7800 H         1 UNK         0.0766 
    103 H103      -55.4803  -24.4521   12.0783 H         1 UNK         0.0798 
    104 H104      -56.9008  -25.3949   12.5320 H         1 UNK         0.0798 
    105 H105      -56.2498  -25.5003   10.9009 H         1 UNK         0.0798 
    106 H106      -55.0901  -25.5956   14.2726 H         1 UNK         0.3198 
    107 H107      -54.4442  -26.6117   16.4323 H         1 UNK         0.0843 
    108 H108      -51.6258  -27.7894   16.1881 H         1 UNK         0.0831 
    109 H109      -53.0653  -28.6409   16.7226 H         1 UNK         0.0831 
    110 H110      -52.4177  -27.3283   17.6943 H         1 UNK         0.0831 
    111 H111      -51.8418  -25.3341   15.9444 H         1 UNK         0.3133 
    112 H112      -52.5133  -22.7465   14.6074 H         1 UNK         0.0566 
    113 H113      -52.8691  -20.7336   16.0573 H         1 UNK         0.0814 
    114 H114      -54.3800  -21.4968   15.5981 H         1 UNK         0.0814 
    115 H115      -53.7449  -21.7309   17.2182 H         1 UNK         0.0814 
    116 H116      -50.5800  -22.8534   15.6479 H         1 UNK         0.3091 
    117 H117      -49.2159  -22.0995   17.9560 H         1 UNK         0.0702 
    118 H118      -48.1995  -23.7868   19.5165 H         1 UNK         0.0785 
    119 H119      -49.6290  -24.8048   19.3470 H         1 UNK         0.0785 
    120 H120      -49.7544  -23.2196   20.1013 H         1 UNK         0.0785 
    121 H121      -49.1699  -24.8194   16.6969 H         1 UNK         0.2998 
    122 H122      -46.6724  -23.8184   14.3773 H         1 UNK         0.0697 
    123 H123      -47.1821  -26.1780   16.2636 H         1 UNK         0.0825 
    124 H124      -45.7691  -25.1328   16.2973 H         1 UNK         0.0825 
    125 H125      -46.0738  -26.1460   14.8951 H         1 UNK         0.0825 
    126 H126      -48.2299  -24.6580   13.1082 H         1 UNK         0.3029 
    127 H127      -50.8231  -27.0535   13.4704 H         1 UNK         0.0897 
    128 H128      -51.7206  -25.5106   11.6832 H         1 UNK         0.0792 
    129 H129      -51.9889  -24.9274   13.3086 H         1 UNK         0.0792 
    130 H130      -50.7253  -24.2089   12.3409 H         1 UNK         0.0792 
    131 H131      -49.0212  -25.9700   11.3961 H         1 UNK         0.3086 
    132 H132      -47.4332  -29.1805   11.0246 H         1 UNK         0.0583 
    133 H133      -49.6621  -29.2632    9.8517 H         1 UNK         0.1020 
    134 H134      -49.3956  -27.6453    9.2608 H         1 UNK         0.1020 
    135 H135      -47.8466  -31.4747    7.3782 H         1 UNK         0.0694 
    136 H136      -48.2400  -31.3912    9.0765 H         1 UNK         0.0694 
    137 H137      -47.1149  -26.7093    9.6230 H         1 UNK         0.2989 
    138 H138      -44.0735  -25.8539   11.3472 H         1 UNK         0.1055 
    139 H139      -43.6285  -27.6013    9.6246 H         1 UNK         0.0806 
    140 H140      -43.3459  -25.9933    8.9771 H         1 UNK         0.0806 
    141 H141      -44.8122  -26.8712    8.5470 H         1 UNK         0.0806 
    142 H142      -46.1846  -24.8792    9.4436 H         1 UNK         0.3061 
    143 H143      -46.3672  -21.7986   11.1125 H         1 UNK         0.0734 
    144 H144      -45.8861  -20.7132    8.9318 H         1 UNK         0.0832 
    145 H145      -44.3945  -21.2834    9.6592 H         1 UNK         0.0832 
    146 H146      -45.1181  -22.1869    8.3366 H         1 UNK         0.0832 
    147 H147      -47.5716  -22.5881    8.6819 H         1 UNK         0.3156 
    148 H148      -50.0862  -24.7392    9.9660 H         1 UNK         0.0589 
    149 H149      -50.8961  -22.4292   10.5487 H         1 UNK         0.0808 
    150 H150      -50.3544  -21.8579    8.9772 H         1 UNK         0.0808 
    151 H151      -51.6404  -23.0597    9.0902 H         1 UNK         0.0808 
    152 H152      -50.1483  -24.0086    7.4329 H         1 UNK         0.3098 
    153 H153      -48.9797  -24.7478    5.5795 H         1 UNK         0.0720 
    154 H154      -47.0485  -27.0684    6.1356 H         1 UNK         0.0791 
    155 H155      -46.5833  -25.4508    5.6341 H         1 UNK         0.0791 
    156 H156      -47.5198  -26.4646    4.5482 H         1 UNK         0.0791 
    157 H157      -49.4235  -27.5836    6.0830 H         1 UNK         0.3028 
@<TRIPOS>BOND
     1    1    2 1    
     2    1   82 1    
     3    1   83 1    
     4    1   84 1    
     5    2    3 2    
     6    2    4 am   BACKBONE|DICT|INTERRES
     7    4    5 1    
     8    4   85 1    
     9    5    6 1    
    10    5   80 1    
    11    5   86 1    
    12    6    7 1    
    13    6   87 1    
    14    6   88 1    
    15    7    8 1    
    16    8    9 1    
    17    8   89 1    
    18    8   90 1    
    19    9   10 ar   
    20    9   14 ar   
    21   10   11 ar   
    22   10   91 1    
    23   11   12 ar   
    24   11   58 1    
    25   12   13 ar   
    26   12   92 1    
    27   13   14 ar   
    28   13   15 1    
    29   14   93 1    
    30   15   16 1    
    31   15   94 1    
    32   15   95 1    
    33   16   17 1    
    34   17   18 1    
    35   17   96 1    
    36   17   97 1    
    37   18   19 1    
    38   18   22 1    
    39   18   98 1    
    40   19   20 am   BACKBONE|DICT|INTERRES
    41   19   21 2    
    42   20   99 1    
    43   20  100 1    
    44   22   23 am   BACKBONE|DICT|INTERRES
    45   22  101 1    
    46   23   24 2    
    47   23   25 1    
    48   25   26 1    
    49   25   27 1    
    50   25  102 1    
    51   26  103 1    
    52   26  104 1    
    53   26  105 1    
    54   27   28 am   BACKBONE|DICT|INTERRES
    55   27  106 1    
    56   28   29 2    
    57   28   30 1    
    58   30   31 1    
    59   30   32 1    
    60   30  107 1    
    61   31  108 1    
    62   31  109 1    
    63   31  110 1    
    64   32   33 am   BACKBONE|DICT|INTERRES
    65   32  111 1    
    66   33   34 2    
    67   33   35 1    
    68   35   36 1    
    69   35   37 1    
    70   35  112 1    
    71   36  113 1    
    72   36  114 1    
    73   36  115 1    
    74   37   38 am   BACKBONE|DICT|INTERRES
    75   37  116 1    
    76   38   39 2    
    77   38   40 1    
    78   40   41 1    
    79   40   42 1    
    80   40  117 1    
    81   41  118 1    
    82   41  119 1    
    83   41  120 1    
    84   42   43 am   BACKBONE|DICT|INTERRES
    85   42  121 1    
    86   43   44 2    
    87   43   45 1    
    88   45   46 1    
    89   45   47 1    
    90   45  122 1    
    91   46  123 1    
    92   46  124 1    
    93   46  125 1    
    94   47   48 am   BACKBONE|DICT|INTERRES
    95   47  126 1    
    96   48   49 2    
    97   48   50 1    
    98   50   51 1    
    99   50   52 1    
   100   50  127 1    
   101   51  128 1    
   102   51  129 1    
   103   51  130 1    
   104   52   53 am   BACKBONE|DICT|INTERRES
   105   52  131 1    
   106   53   54 2    
   107   53   55 1    
   108   55   56 1    
   109   55   59 1    
   110   55  132 1    
   111   56   57 1    
   112   56  133 1    
   113   56  134 1    
   114   57   58 1    
   115   58  135 1    
   116   58  136 1    
   117   59   60 am   BACKBONE|DICT|INTERRES
   118   59  137 1    
   119   60   61 2    
   120   60   62 1    
   121   62   63 1    
   122   62   64 1    
   123   62  138 1    
   124   63  139 1    
   125   63  140 1    
   126   63  141 1    
   127   64   65 am   BACKBONE|DICT|INTERRES
   128   64  142 1    
   129   65   66 2    
   130   65   67 1    
   131   67   68 1    
   132   67   69 1    
   133   67  143 1    
   134   68  144 1    
   135   68  145 1    
   136   68  146 1    
   137   69   70 am   BACKBONE|DICT|INTERRES
   138   69  147 1    
   139   70   71 2    
   140   70   72 1    
   141   72   73 1    
   142   72   74 1    
   143   72  148 1    
   144   73  149 1    
   145   73  150 1    
   146   73  151 1    
   147   74   75 am   BACKBONE|DICT|INTERRES
   148   74  152 1    
   149   75   76 2    
   150   75   77 1    
   151   77   78 1    
   152   77   79 1    
   153   77  153 1    
   154   78  154 1    
   155   78  155 1    
   156   78  156 1    
   157   79   80 am   BACKBONE|DICT|INTERRES
   158   79  157 1    
   159   80   81 2    
@<TRIPOS>SUBSTRUCTURE
     1 UNK         1 GROUP             0       ****    0 ROOT    
