@<TRIPOS>MOLECULE
3R207
157   159    1
SMALL
USER_CHARGES


@<TRIPOS>ATOM
      1 CA        -47.0582  -26.8057    3.0061 C.3       0 UNK        -0.1975 
      2 C         -47.6739  -25.6996    3.8488 C.2       0 UNK         0.4852 
      3 O         -47.2383  -24.5503    3.7616 O.2       0 UNK        -0.5216 
      4 N         -48.6752  -26.0365    4.6734 N.am      1 UNK        -0.4461 
      5 CA        -49.3874  -25.1203    5.5721 C.3       1 UNK         0.0864 
      6 C6        -50.5589  -25.8134    6.3091 C.3       14 UNK        -0.0898 
      7 S7        -51.7167  -26.6772    5.1950 S.3       14 UNK        -0.2598 
      8 C8        -53.1690  -26.8992    6.2844 C.3       14 UNK         0.0286 
      9 C9        -52.8498  -27.5348    7.6376 C.ar      14 UNK        -0.0844 
     10 C10       -51.9308  -28.5840    7.7504 C.ar      14 UNK        -0.0881 
     11 C11       -51.6146  -29.1262    8.9983 C.ar      14 UNK        -0.0643 
     12 C12       -52.2594  -28.6451   10.1408 C.ar      14 UNK        -0.0930 
     13 C13       -53.1987  -27.6143   10.0426 C.ar      14 UNK        -0.0827 
     14 C14       -53.4858  -27.0624    8.7901 C.ar      14 UNK        -0.1249 
     15 C15       -53.8869  -27.0748   11.2884 C.3       14 UNK         0.0141 
     16 S16       -55.3321  -28.0833   11.7415 S.3       14 UNK        -0.2313 
     17 C17       -54.5528  -29.3430   12.8073 C.3       14 UNK        -0.0915 
     18 CA        -55.5600  -30.1101   13.7049 C.3       13 UNK         0.0968 
     19 C         -54.8343  -31.1470   14.6131 C.2       13 UNK         0.5732 
     20 N         -55.0094  -31.1349   15.9304 N.am      13 UNK        -0.7310 
     21 O         -54.1023  -31.9950   14.1080 O.2       13 UNK        -0.5035 
     22 N         -56.4707  -29.2108   14.4338 N.am      13 UNK        -0.4233 
     23 C         -57.7159  -29.5494   14.7930 C.2       13 UNK         0.4989 
     24 O         -58.2303  -30.6348   14.5136 O.2       13 UNK        -0.4996 
     25 CA        -58.5275  -28.5071   15.5906 C.3       12 UNK         0.0216 
     26 CB        -59.7789  -29.1174   16.2577 C.3       12 UNK        -0.1964 
     27 N         -57.7523  -27.7589   16.5878 N.am      12 UNK        -0.4276 
     28 C         -56.9868  -28.2414   17.5761 C.2       12 UNK         0.5020 
     29 O         -56.7167  -29.4362   17.7160 O.2       12 UNK        -0.5489 
     30 CA        -56.4207  -27.1974   18.5627 C.3       11 UNK         0.0294 
     31 CB        -55.6544  -27.8455   19.7311 C.3       11 UNK        -0.2019 
     32 N         -55.5400  -26.2330   17.9010 N.am      11 UNK        -0.4493 
     33 C         -55.9188  -25.2524   17.0694 C.2       11 UNK         0.4932 
     34 O         -57.0974  -24.9887   16.8258 O.2       11 UNK        -0.5029 
     35 CA        -54.8083  -24.4489   16.3658 C.3       10 UNK         0.0280 
     36 CB        -54.6579  -23.0620   17.0107 C.3       10 UNK        -0.1976 
     37 N         -53.4988  -25.1100   16.3437 N.am      10 UNK        -0.4242 
     38 C         -53.2152  -26.2794   15.7548 C.2       10 UNK         0.5072 
     39 O         -54.0479  -26.9613   15.1555 O.2       10 UNK        -0.5224 
     40 CA        -51.7547  -26.7532   15.8783 C.3       9 UNK         0.0343 
     41 CB        -51.5703  -28.2263   15.4708 C.3       9 UNK        -0.2003 
     42 N         -50.8526  -25.9067   15.0919 N.am      9 UNK        -0.4272 
     43 C         -50.4413  -24.6814   15.4587 C.2       9 UNK         0.4988 
     44 O         -50.7564  -24.1624   16.5316 O.2       9 UNK        -0.5108 
     45 CA        -49.5378  -23.8857   14.4952 C.3       8 UNK         0.0248 
     46 CB        -48.0813  -23.9140   14.9857 C.3       8 UNK        -0.2001 
     47 N         -49.5827  -24.3505   13.1081 N.am      8 UNK        -0.4140 
     48 C         -50.6490  -24.2566   12.2980 C.2       8 UNK         0.5028 
     49 O         -51.6899  -23.6756   12.6058 O.2       8 UNK        -0.5428 
     50 CA        -50.5551  -24.9439   10.9199 C.3       7 UNK         0.0264 
     51 CB        -50.2047  -23.9064    9.8437 C.3       7 UNK        -0.1988 
     52 N         -49.5898  -26.0485   10.8521 N.am      7 UNK        -0.4454 
     53 C         -49.5633  -27.1137   11.6696 C.2       7 UNK         0.5027 
     54 O         -50.4255  -27.3329   12.5194 O.2       7 UNK        -0.5083 
     55 CA        -48.3306  -28.0408   11.6162 C.3       6 UNK         0.0844 
     56 C56       -48.6665  -29.4471   11.0626 C.3       14 UNK        -0.0967 
     57 S57       -48.8898  -29.5276    9.2502 S.3       14 UNK        -0.2604 
     58 C58       -50.5675  -30.2231    9.0975 C.3       14 UNK         0.0134 
     59 N         -47.1496  -27.4455   10.9807 N.am      6 UNK        -0.4116 
     60 C         -46.5063  -26.3426   11.3874 C.2       5 UNK         0.5034 
     61 O         -46.8638  -25.6726   12.3577 O.2       5 UNK        -0.5045 
     62 CA        -45.2924  -25.8662   10.5683 C.3       5 UNK         0.0224 
     63 CB        -43.9722  -26.2638   11.2563 C.3       5 UNK        -0.1978 
     64 N         -45.2961  -26.2553    9.1492 N.am      5 UNK        -0.4737 
     65 C         -45.1708  -27.4721    8.5966 C.2       4 UNK         0.5027 
     66 O         -45.0638  -28.5086    9.2508 O.2       4 UNK        -0.5211 
     67 CA        -45.2051  -27.5610    7.0600 C.3       4 UNK         0.0297 
     68 CB        -46.4799  -28.2813    6.5882 C.3       4 UNK        -0.1993 
     69 N         -45.1303  -26.2425    6.4246 N.am      4 UNK        -0.4486 
     70 C         -43.9873  -25.6056    6.1286 C.2       3 UNK         0.4961 
     71 O         -42.8713  -26.1010    6.2859 O.2       3 UNK        -0.5105 
     72 CA        -44.0924  -24.1723    5.5747 C.3       3 UNK         0.0299 
     73 CB        -43.8523  -24.1600    4.0563 C.3       3 UNK        -0.1972 
     74 N         -45.3769  -23.5317    5.8744 N.am      3 UNK        -0.4305 
     75 C         -45.7037  -23.0266    7.0749 C.2       2 UNK         0.5006 
     76 O         -44.9423  -23.0223    8.0421 O.2       2 UNK        -0.5106 
     77 CA        -47.1336  -22.4787    7.2497 C.3       2 UNK         0.0296 
     78 CB        -47.1839  -20.9810    6.9092 C.3       2 UNK        -0.2002 
     79 N         -48.1371  -23.1958    6.4568 N.am      2 UNK        -0.4032 
     80 C         -48.4071  -24.5016    6.5878 C.2       1 UNK         0.5000 
     81 O         -47.8715  -25.2251    7.4314 O.2       1 UNK        -0.5238 
     82 H82       -47.0835  -26.5312    1.9519 H         1 UNK         0.0889 
     83 H83       -47.5891  -27.7503    3.1227 H         1 UNK         0.0889 
     84 H84       -46.0187  -26.9611    3.2935 H         1 UNK         0.0889 
     85 H85       -48.9984  -26.9929    4.7000 H         1 UNK         0.3028 
     86 H86       -49.8051  -24.3218    4.9552 H         1 UNK         0.0864 
     87 H87       -50.1805  -26.5378    7.0334 H         1 UNK         0.0720 
     88 H88       -51.1311  -25.0775    6.8758 H         1 UNK         0.0720 
     89 H89       -53.9024  -27.5211    5.7699 H         1 UNK         0.0814 
     90 H90       -53.6376  -25.9241    6.4263 H         1 UNK         0.0814 
     91 H91       -51.4334  -28.9612    6.8676 H         1 UNK         0.1469 
     92 H92       -52.0192  -29.0600   11.1097 H         1 UNK         0.1381 
     93 H93       -54.2051  -26.2583    8.7147 H         1 UNK         0.1206 
     94 H94       -54.2198  -26.0504   11.1157 H         1 UNK         0.0813 
     95 H95       -53.1827  -27.0205   12.1205 H         1 UNK         0.0813 
     96 H96       -53.7987  -28.8595   13.4254 H         1 UNK         0.0638 
     97 H97       -54.0167  -30.0407   12.1619 H         1 UNK         0.0638 
     98 H98       -56.1682  -30.7090   13.0246 H         1 UNK         0.0568 
     99 H99       -54.5329  -31.8217   16.4917 H         1 UNK         0.3450 
    100 H100      -55.6298  -30.4671   16.3765 H         1 UNK         0.3450 
    101 H101      -56.0846  -28.3183   14.7116 H         1 UNK         0.2987 
    102 H102      -58.8689  -27.7736   14.8587 H         1 UNK         0.0766 
    103 H103      -60.3616  -28.3579   16.7790 H         1 UNK         0.0798 
    104 H104      -59.5118  -29.8896   16.9803 H         1 UNK         0.0798 
    105 H105      -60.4377  -29.5750   15.5184 H         1 UNK         0.0798 
    106 H106      -57.8269  -26.7450   16.5381 H         1 UNK         0.3198 
    107 H107      -57.2719  -26.6568   18.9826 H         1 UNK         0.0843 
    108 H108      -54.7800  -28.3981   19.3847 H         1 UNK         0.0831 
    109 H109      -56.2900  -28.5483   20.2717 H         1 UNK         0.0831 
    110 H110      -55.3179  -27.0982   20.4499 H         1 UNK         0.0831 
    111 H111      -54.5489  -26.3843   18.0147 H         1 UNK         0.3133 
    112 H112      -55.1201  -24.3120   15.3284 H         1 UNK         0.0566 
    113 H113      -54.3219  -23.1327   18.0460 H         1 UNK         0.0814 
    114 H114      -53.9417  -22.4462   16.4660 H         1 UNK         0.0814 
    115 H115      -55.6080  -22.5255   17.0119 H         1 UNK         0.0814 
    116 H116      -52.7209  -24.6042   16.7565 H         1 UNK         0.3091 
    117 H117      -51.4768  -26.6760   16.9317 H         1 UNK         0.0702 
    118 H118      -50.5460  -28.5585   15.6395 H         1 UNK         0.0785 
    119 H119      -51.8023  -28.3884   14.4196 H         1 UNK         0.0785 
    120 H120      -52.2245  -28.8782   16.0515 H         1 UNK         0.0785 
    121 H121      -50.5988  -26.2626   14.1748 H         1 UNK         0.2998 
    122 H122      -49.8828  -22.8498   14.5103 H         1 UNK         0.0697 
    123 H123      -47.6768  -24.9271   14.9876 H         1 UNK         0.0825 
    124 H124      -48.0027  -23.5290   16.0035 H         1 UNK         0.0825 
    125 H125      -47.4376  -23.2988   14.3567 H         1 UNK         0.0825 
    126 H126      -48.7566  -24.8326   12.7691 H         1 UNK         0.3029 
    127 H127      -51.5398  -25.3561   10.6956 H         1 UNK         0.0897 
    128 H128      -49.2040  -23.4967    9.9860 H         1 UNK         0.0792 
    129 H129      -50.9072  -23.0717    9.8575 H         1 UNK         0.0792 
    130 H130      -50.2496  -24.3461    8.8511 H         1 UNK         0.0792 
    131 H131      -48.8502  -25.9611   10.1694 H         1 UNK         0.3086 
    132 H132      -48.0505  -28.1862   12.6619 H         1 UNK         0.0583 
    133 H133      -47.8526  -30.1289   11.3141 H         1 UNK         0.1020 
    134 H134      -49.5415  -29.8539   11.5729 H         1 UNK         0.1020 
    135 H135      -50.6030  -30.8417    8.1994 H         1 UNK         0.0694 
    136 H136      -50.7858  -30.8947    9.9288 H         1 UNK         0.0694 
    137 H137      -46.7552  -27.9543   10.1970 H         1 UNK         0.2989 
    138 H138      -45.3432  -24.7757   10.5673 H         1 UNK         0.1055 
    139 H139      -43.9304  -25.8702   12.2729 H         1 UNK         0.0806 
    140 H140      -43.1106  -25.8662   10.7199 H         1 UNK         0.0806 
    141 H141      -43.8557  -27.3457   11.3249 H         1 UNK         0.0806 
    142 H142      -45.4322  -25.4854    8.5074 H         1 UNK         0.3061 
    143 H143      -44.3472  -28.1618    6.7507 H         1 UNK         0.0734 
    144 H144      -46.5385  -29.2845    7.0127 H         1 UNK         0.0832 
    145 H145      -46.4970  -28.3919    5.5048 H         1 UNK         0.0832 
    146 H146      -47.3843  -27.7533    6.8911 H         1 UNK         0.0832 
    147 H147      -46.0073  -25.7482    6.3211 H         1 UNK         0.3156 
    148 H148      -43.2991  -23.5841    6.0411 H         1 UNK         0.0589 
    149 H149      -44.5862  -24.7632    3.5220 H         1 UNK         0.0808 
    150 H150      -43.8940  -23.1472    3.6552 H         1 UNK         0.0808 
    151 H151      -42.8673  -24.5622    3.8156 H         1 UNK         0.0808 
    152 H152      -46.0733  -23.5475    5.1349 H         1 UNK         0.3098 
    153 H153      -47.4006  -22.5978    8.3019 H         1 UNK         0.0720 
    154 H154      -48.1673  -20.5591    7.1176 H         1 UNK         0.0791 
    155 H155      -46.9534  -20.7966    5.8591 H         1 UNK         0.0791 
    156 H156      -46.4610  -20.4214    7.5047 H         1 UNK         0.0791 
    157 H157      -48.5892  -22.6747    5.7188 H         1 UNK         0.3028 
@<TRIPOS>BOND
     1    1    2 1    
     2    1   82 1    
     3    1   83 1    
     4    1   84 1    
     5    2    3 2    
     6    2    4 am   BACKBONE|DICT|INTERRES
     7    4    5 1    
     8    4   85 1    
     9    5    6 1    
    10    5   80 1    
    11    5   86 1    
    12    6    7 1    
    13    6   87 1    
    14    6   88 1    
    15    7    8 1    
    16    8    9 1    
    17    8   89 1    
    18    8   90 1    
    19    9   10 ar   
    20    9   14 ar   
    21   10   11 ar   
    22   10   91 1    
    23   11   12 ar   
    24   11   58 1    
    25   12   13 ar   
    26   12   92 1    
    27   13   14 ar   
    28   13   15 1    
    29   14   93 1    
    30   15   16 1    
    31   15   94 1    
    32   15   95 1    
    33   16   17 1    
    34   17   18 1    
    35   17   96 1    
    36   17   97 1    
    37   18   19 1    
    38   18   22 1    
    39   18   98 1    
    40   19   20 am   BACKBONE|DICT|INTERRES
    41   19   21 2    
    42   20   99 1    
    43   20  100 1    
    44   22   23 am   BACKBONE|DICT|INTERRES
    45   22  101 1    
    46   23   24 2    
    47   23   25 1    
    48   25   26 1    
    49   25   27 1    
    50   25  102 1    
    51   26  103 1    
    52   26  104 1    
    53   26  105 1    
    54   27   28 am   BACKBONE|DICT|INTERRES
    55   27  106 1    
    56   28   29 2    
    57   28   30 1    
    58   30   31 1    
    59   30   32 1    
    60   30  107 1    
    61   31  108 1    
    62   31  109 1    
    63   31  110 1    
    64   32   33 am   BACKBONE|DICT|INTERRES
    65   32  111 1    
    66   33   34 2    
    67   33   35 1    
    68   35   36 1    
    69   35   37 1    
    70   35  112 1    
    71   36  113 1    
    72   36  114 1    
    73   36  115 1    
    74   37   38 am   BACKBONE|DICT|INTERRES
    75   37  116 1    
    76   38   39 2    
    77   38   40 1    
    78   40   41 1    
    79   40   42 1    
    80   40  117 1    
    81   41  118 1    
    82   41  119 1    
    83   41  120 1    
    84   42   43 am   BACKBONE|DICT|INTERRES
    85   42  121 1    
    86   43   44 2    
    87   43   45 1    
    88   45   46 1    
    89   45   47 1    
    90   45  122 1    
    91   46  123 1    
    92   46  124 1    
    93   46  125 1    
    94   47   48 am   BACKBONE|DICT|INTERRES
    95   47  126 1    
    96   48   49 2    
    97   48   50 1    
    98   50   51 1    
    99   50   52 1    
   100   50  127 1    
   101   51  128 1    
   102   51  129 1    
   103   51  130 1    
   104   52   53 am   BACKBONE|DICT|INTERRES
   105   52  131 1    
   106   53   54 2    
   107   53   55 1    
   108   55   56 1    
   109   55   59 1    
   110   55  132 1    
   111   56   57 1    
   112   56  133 1    
   113   56  134 1    
   114   57   58 1    
   115   58  135 1    
   116   58  136 1    
   117   59   60 am   BACKBONE|DICT|INTERRES
   118   59  137 1    
   119   60   61 2    
   120   60   62 1    
   121   62   63 1    
   122   62   64 1    
   123   62  138 1    
   124   63  139 1    
   125   63  140 1    
   126   63  141 1    
   127   64   65 am   BACKBONE|DICT|INTERRES
   128   64  142 1    
   129   65   66 2    
   130   65   67 1    
   131   67   68 1    
   132   67   69 1    
   133   67  143 1    
   134   68  144 1    
   135   68  145 1    
   136   68  146 1    
   137   69   70 am   BACKBONE|DICT|INTERRES
   138   69  147 1    
   139   70   71 2    
   140   70   72 1    
   141   72   73 1    
   142   72   74 1    
   143   72  148 1    
   144   73  149 1    
   145   73  150 1    
   146   73  151 1    
   147   74   75 am   BACKBONE|DICT|INTERRES
   148   74  152 1    
   149   75   76 2    
   150   75   77 1    
   151   77   78 1    
   152   77   79 1    
   153   77  153 1    
   154   78  154 1    
   155   78  155 1    
   156   78  156 1    
   157   79   80 am   BACKBONE|DICT|INTERRES
   158   79  157 1    
   159   80   81 2    
@<TRIPOS>SUBSTRUCTURE
     1 UNK         1 GROUP             0       ****    0 ROOT    
