@<TRIPOS>MOLECULE
3R207
157   159    1
SMALL
USER_CHARGES


@<TRIPOS>ATOM
      1 CA        -51.8062  -29.8147    1.0959 C.3       0 UNK        -0.1975 
      2 C         -51.4548  -29.5856    2.5587 C.2       0 UNK         0.4852 
      3 O         -51.9739  -28.6528    3.1726 O.2       0 UNK        -0.5216 
      4 N         -50.5839  -30.4334    3.1214 N.am      1 UNK        -0.4461 
      5 CA        -50.0832  -30.3309    4.4942 C.3       1 UNK         0.0864 
      6 C6        -49.4564  -31.6792    4.9484 C.3       14 UNK        -0.0898 
      7 S7        -48.5903  -31.6655    6.5603 S.3       14 UNK        -0.2598 
      8 C8        -49.9204  -32.1089    7.7206 C.3       14 UNK         0.0286 
      9 C9        -50.9077  -30.9669    7.9072 C.ar      14 UNK        -0.0844 
     10 C10       -50.5260  -29.8164    8.6062 C.ar      14 UNK        -0.0881 
     11 C11       -51.4270  -28.7619    8.7771 C.ar      14 UNK        -0.0643 
     12 C12       -52.7144  -28.8634    8.2460 C.ar      14 UNK        -0.0930 
     13 C13       -53.1157  -30.0183    7.5706 C.ar      14 UNK        -0.0827 
     14 C14       -52.2060  -31.0651    7.3964 C.ar      14 UNK        -0.1249 
     15 C15       -54.5367  -30.1336    7.0400 C.3       14 UNK         0.0141 
     16 S16       -55.5814  -31.2080    8.0797 S.3       14 UNK        -0.2313 
     17 C17       -55.6265  -30.3173    9.6757 C.3       14 UNK        -0.0915 
     18 CA        -56.7187  -29.2067    9.7393 C.3       13 UNK         0.0968 
     19 C         -58.1429  -29.7422   10.0938 C.2       13 UNK         0.5732 
     20 N         -58.9869  -28.9686   10.7671 N.am      13 UNK        -0.7310 
     21 O         -58.5075  -30.8590    9.7343 O.2       13 UNK        -0.5035 
     22 N         -56.2858  -28.0410   10.5338 N.am      13 UNK        -0.4233 
     23 C         -55.9957  -28.0511   11.8418 C.2       13 UNK         0.4989 
     24 O         -56.0197  -29.0598   12.5531 O.2       13 UNK        -0.4996 
     25 CA        -55.6507  -26.6945   12.4704 C.3       12 UNK         0.0216 
     26 CB        -56.9091  -25.8179   12.6281 C.3       12 UNK        -0.1964 
     27 N         -55.0362  -26.9326   13.7738 N.am      12 UNK        -0.4276 
     28 C         -54.2632  -26.0757   14.4475 C.2       12 UNK         0.5020 
     29 O         -54.0305  -24.9248   14.0686 O.2       12 UNK        -0.5489 
     30 CA        -53.6436  -26.6029   15.7528 C.3       11 UNK         0.0294 
     31 CB        -52.8011  -27.8689   15.5026 C.3       11 UNK        -0.2019 
     32 N         -52.7706  -25.5874   16.3371 N.am      11 UNK        -0.4493 
     33 C         -52.8958  -25.0259   17.5440 C.2       11 UNK         0.4932 
     34 O         -53.7974  -25.2920   18.3413 O.2       11 UNK        -0.5029 
     35 CA        -51.7922  -24.0144   17.9157 C.3       10 UNK         0.0280 
     36 CB        -51.8948  -23.4880   19.3633 C.3       10 UNK        -0.1976 
     37 N         -50.4590  -24.5588   17.6275 N.am      10 UNK        -0.4242 
     38 C         -49.8786  -25.6337   18.1832 C.2       10 UNK         0.5072 
     39 O         -50.3255  -26.2334   19.1620 O.2       10 UNK        -0.5224 
     40 CA        -48.5986  -26.1701   17.5145 C.3       9 UNK         0.0343 
     41 CB        -48.9272  -27.4293   16.6951 C.3       9 UNK        -0.2003 
     42 N         -47.9190  -25.2021   16.6474 N.am      9 UNK        -0.4272 
     43 C         -47.2126  -24.1518   17.0898 C.2       9 UNK         0.4988 
     44 O         -47.0494  -23.8900   18.2821 O.2       9 UNK        -0.5108 
     45 CA        -46.5853  -23.2339   16.0259 C.3       8 UNK         0.0248 
     46 CB        -45.2818  -23.8430   15.4844 C.3       8 UNK        -0.2001 
     47 N         -47.4924  -22.9424   14.9131 N.am      8 UNK        -0.4140 
     48 C         -48.6248  -22.2313   15.0188 C.2       8 UNK         0.5028 
     49 O         -49.0053  -21.6957   16.0602 O.2       8 UNK        -0.5428 
     50 CA        -49.5089  -22.1388   13.7621 C.3       7 UNK         0.0264 
     51 CB        -48.9816  -21.0692   12.7930 C.3       7 UNK        -0.1988 
     52 N         -49.6412  -23.4218   13.0662 N.am      7 UNK        -0.4454 
     53 C         -50.1842  -24.5205   13.6115 C.2       7 UNK         0.5027 
     54 O         -50.6696  -24.5533   14.7412 O.2       7 UNK        -0.5083 
     55 CA        -50.1437  -25.8176   12.7876 C.3       6 UNK         0.0844 
     56 C56       -51.3431  -25.8959   11.8177 C.3       14 UNK        -0.0967 
     57 S57       -51.6371  -27.6014   11.2553 S.3       14 UNK        -0.2604 
     58 C58       -51.0306  -27.5147    9.5472 C.3       14 UNK         0.0134 
     59 N         -48.8576  -25.9781   12.1078 N.am      6 UNK        -0.4116 
     60 C         -47.6955  -26.2186   12.7296 C.2       5 UNK         0.5034 
     61 O         -47.5810  -26.3621   13.9463 O.2       5 UNK        -0.5045 
     62 CA        -46.4411  -26.2514   11.8419 C.3       5 UNK         0.0224 
     63 CB        -46.3255  -27.6011   11.1146 C.3       5 UNK        -0.1978 
     64 N         -46.4169  -25.1601   10.8633 N.am      5 UNK        -0.4737 
     65 C         -46.3675  -23.8588   11.1821 C.2       4 UNK         0.5027 
     66 O         -46.2938  -23.4396   12.3361 O.2       4 UNK        -0.5211 
     67 CA        -46.4652  -22.8550   10.0207 C.3       4 UNK         0.0297 
     68 CB        -45.0715  -22.5768    9.4363 C.3       4 UNK        -0.1993 
     69 N         -47.3776  -23.2652    8.9452 N.am      4 UNK        -0.4486 
     70 C         -48.6836  -23.5346    9.1037 C.2       3 UNK         0.4961 
     71 O         -49.2585  -23.5291   10.1925 O.2       3 UNK        -0.5105 
     72 CA        -49.4671  -23.9216    7.8454 C.3       3 UNK         0.0299 
     73 CB        -49.6714  -22.7167    6.9109 C.3       3 UNK        -0.1972 
     74 N         -48.7911  -25.0116    7.1387 N.am      3 UNK        -0.4305 
     75 C         -49.4102  -26.0653    6.5951 C.2       2 UNK         0.5006 
     76 O         -50.6358  -26.1939    6.5519 O.2       2 UNK        -0.5106 
     77 CA        -48.5050  -27.1647    6.0179 C.3       2 UNK         0.0296 
     78 CB        -47.4237  -27.6211    7.0201 C.3       2 UNK        -0.2002 
     79 N         -49.3251  -28.3157    5.6536 N.am      2 UNK        -0.4032 
     80 C         -49.1152  -29.1348    4.6189 C.2       1 UNK         0.5000 
     81 O         -48.1992  -29.0007    3.8016 O.2       1 UNK        -0.5238 
     82 H82       -52.8777  -29.9817    0.9892 H         1 UNK         0.0889 
     83 H83       -51.2858  -30.6779    0.6813 H         1 UNK         0.0889 
     84 H84       -51.5367  -28.9402    0.5044 H         1 UNK         0.0889 
     85 H85       -50.1672  -31.1598    2.5568 H         1 UNK         0.3028 
     86 H86       -50.9436  -30.1324    5.1351 H         1 UNK         0.0864 
     87 H87       -48.7257  -32.0094    4.2079 H         1 UNK         0.0720 
     88 H88       -50.2248  -32.4536    4.9684 H         1 UNK         0.0720 
     89 H89       -49.4767  -32.3572    8.6859 H         1 UNK         0.0814 
     90 H90       -50.4230  -33.0139    7.3757 H         1 UNK         0.0814 
     91 H91       -49.5278  -29.7452    9.0163 H         1 UNK         0.1469 
     92 H92       -53.4137  -28.0506    8.3870 H         1 UNK         0.1381 
     93 H93       -52.5143  -31.9578    6.8693 H         1 UNK         0.1206 
     94 H94       -54.5107  -30.5406    6.0281 H         1 UNK         0.0813 
     95 H95       -55.0005  -29.1495    6.9579 H         1 UNK         0.0813 
     96 H96       -55.7725  -31.0463   10.4747 H         1 UNK         0.0638 
     97 H97       -54.6387  -29.8973    9.8615 H         1 UNK         0.0638 
     98 H98       -56.8314  -28.8033    8.7328 H         1 UNK         0.0568 
     99 H99       -58.7159  -28.0448   11.0610 H         1 UNK         0.3450 
    100 H100      -59.9069  -29.3182   10.9835 H         1 UNK         0.3450 
    101 H101      -56.2617  -27.1625   10.0366 H         1 UNK         0.2987 
    102 H102      -54.9267  -26.1926   11.8244 H         1 UNK         0.0766 
    103 H103      -56.6671  -24.8487   13.0646 H         1 UNK         0.0798 
    104 H104      -57.6525  -26.2944   13.2686 H         1 UNK         0.0798 
    105 H105      -57.3816  -25.6231   11.6648 H         1 UNK         0.0798 
    106 H106      -55.1618  -27.8809   14.1096 H         1 UNK         0.3198 
    107 H107      -54.4601  -26.8438   16.4366 H         1 UNK         0.0843 
    108 H108      -52.2943  -28.1916   16.4125 H         1 UNK         0.0831 
    109 H109      -52.0398  -27.7024   14.7399 H         1 UNK         0.0831 
    110 H110      -53.4189  -28.7036   15.1701 H         1 UNK         0.0831 
    111 H111      -52.0438  -25.2276   15.7189 H         1 UNK         0.3133 
    112 H112      -51.9194  -23.1616   17.2471 H         1 UNK         0.0566 
    113 H113      -51.0970  -22.7789   19.5838 H         1 UNK         0.0814 
    114 H114      -52.8419  -22.9708   19.5206 H         1 UNK         0.0814 
    115 H115      -51.8417  -24.2926   20.0971 H         1 UNK         0.0814 
    116 H116      -50.0288  -24.1967   16.7845 H         1 UNK         0.3091 
    117 H117      -47.9095  -26.4546   18.3124 H         1 UNK         0.0702 
    118 H118      -48.0257  -27.8777   16.2772 H         1 UNK         0.0785 
    119 H119      -49.6038  -27.2048   15.8698 H         1 UNK         0.0785 
    120 H120      -49.4085  -28.1876   17.3144 H         1 UNK         0.0785 
    121 H121      -47.9474  -25.3900   15.6494 H         1 UNK         0.2998 
    122 H122      -46.3398  -22.2863   16.5099 H         1 UNK         0.0697 
    123 H123      -44.7829  -23.1608   14.7957 H         1 UNK         0.0825 
    124 H124      -44.5827  -24.0558   16.2943 H         1 UNK         0.0825 
    125 H125      -45.4625  -24.7782   14.9529 H         1 UNK         0.0825 
    126 H126      -47.2176  -23.2902   13.9969 H         1 UNK         0.3029 
    127 H127      -50.5088  -21.8401   14.0846 H         1 UNK         0.0897 
    128 H128      -49.6143  -20.9860   11.9090 H         1 UNK         0.0792 
    129 H129      -48.9602  -20.0893   13.2716 H         1 UNK         0.0792 
    130 H130      -47.9678  -21.2892   12.4603 H         1 UNK         0.0792 
    131 H131      -49.3132  -23.4644   12.1041 H         1 UNK         0.3086 
    132 H132      -50.2357  -26.6374   13.5031 H         1 UNK         0.0583 
    133 H133      -52.2602  -25.5680   12.3066 H         1 UNK         0.1020 
    134 H134      -51.2105  -25.2231   10.9690 H         1 UNK         0.1020 
    135 H135      -51.4529  -26.6364    9.0574 H         1 UNK         0.0694 
    136 H136      -49.9475  -27.3860    9.5475 H         1 UNK         0.0694 
    137 H137      -48.8468  -25.8014   11.1152 H         1 UNK         0.2989 
    138 H138      -45.5735  -26.1357   12.4957 H         1 UNK         0.1055 
    139 H139      -46.3164  -28.4268   11.8277 H         1 UNK         0.0806 
    140 H140      -45.4021  -27.6642   10.5386 H         1 UNK         0.0806 
    141 H141      -47.1594  -27.7708   10.4326 H         1 UNK         0.0806 
    142 H142      -46.4596  -25.4120    9.8874 H         1 UNK         0.3061 
    143 H143      -46.8508  -21.9200   10.4312 H         1 UNK         0.0734 
    144 H144      -45.1040  -21.7850    8.6877 H         1 UNK         0.0832 
    145 H145      -44.3805  -22.2520   10.2159 H         1 UNK         0.0832 
    146 H146      -44.6414  -23.4644    8.9706 H         1 UNK         0.0832 
    147 H147      -46.9963  -23.2425    8.0112 H         1 UNK         0.3156 
    148 H148      -50.4506  -24.2563    8.1836 H         1 UNK         0.0589 
    149 H149      -48.7293  -22.3492    6.5029 H         1 UNK         0.0808 
    150 H150      -50.3176  -22.9769    6.0723 H         1 UNK         0.0808 
    151 H151      -50.1460  -21.8885    7.4391 H         1 UNK         0.0808 
    152 H152      -47.7821  -24.9979    7.1362 H         1 UNK         0.3098 
    153 H153      -48.0266  -26.7571    5.1250 H         1 UNK         0.0720 
    154 H154      -46.7183  -26.8223    7.2494 H         1 UNK         0.0791 
    155 H155      -46.8398  -28.4494    6.6177 H         1 UNK         0.0791 
    156 H156      -47.8635  -27.9569    7.9598 H         1 UNK         0.0791 
    157 H157      -50.1513  -28.4405    6.2258 H         1 UNK         0.3028 
@<TRIPOS>BOND
     1    1    2 1    
     2    1   82 1    
     3    1   83 1    
     4    1   84 1    
     5    2    3 2    
     6    2    4 am   BACKBONE|DICT|INTERRES
     7    4    5 1    
     8    4   85 1    
     9    5    6 1    
    10    5   80 1    
    11    5   86 1    
    12    6    7 1    
    13    6   87 1    
    14    6   88 1    
    15    7    8 1    
    16    8    9 1    
    17    8   89 1    
    18    8   90 1    
    19    9   10 ar   
    20    9   14 ar   
    21   10   11 ar   
    22   10   91 1    
    23   11   12 ar   
    24   11   58 1    
    25   12   13 ar   
    26   12   92 1    
    27   13   14 ar   
    28   13   15 1    
    29   14   93 1    
    30   15   16 1    
    31   15   94 1    
    32   15   95 1    
    33   16   17 1    
    34   17   18 1    
    35   17   96 1    
    36   17   97 1    
    37   18   19 1    
    38   18   22 1    
    39   18   98 1    
    40   19   20 am   BACKBONE|DICT|INTERRES
    41   19   21 2    
    42   20   99 1    
    43   20  100 1    
    44   22   23 am   BACKBONE|DICT|INTERRES
    45   22  101 1    
    46   23   24 2    
    47   23   25 1    
    48   25   26 1    
    49   25   27 1    
    50   25  102 1    
    51   26  103 1    
    52   26  104 1    
    53   26  105 1    
    54   27   28 am   BACKBONE|DICT|INTERRES
    55   27  106 1    
    56   28   29 2    
    57   28   30 1    
    58   30   31 1    
    59   30   32 1    
    60   30  107 1    
    61   31  108 1    
    62   31  109 1    
    63   31  110 1    
    64   32   33 am   BACKBONE|DICT|INTERRES
    65   32  111 1    
    66   33   34 2    
    67   33   35 1    
    68   35   36 1    
    69   35   37 1    
    70   35  112 1    
    71   36  113 1    
    72   36  114 1    
    73   36  115 1    
    74   37   38 am   BACKBONE|DICT|INTERRES
    75   37  116 1    
    76   38   39 2    
    77   38   40 1    
    78   40   41 1    
    79   40   42 1    
    80   40  117 1    
    81   41  118 1    
    82   41  119 1    
    83   41  120 1    
    84   42   43 am   BACKBONE|DICT|INTERRES
    85   42  121 1    
    86   43   44 2    
    87   43   45 1    
    88   45   46 1    
    89   45   47 1    
    90   45  122 1    
    91   46  123 1    
    92   46  124 1    
    93   46  125 1    
    94   47   48 am   BACKBONE|DICT|INTERRES
    95   47  126 1    
    96   48   49 2    
    97   48   50 1    
    98   50   51 1    
    99   50   52 1    
   100   50  127 1    
   101   51  128 1    
   102   51  129 1    
   103   51  130 1    
   104   52   53 am   BACKBONE|DICT|INTERRES
   105   52  131 1    
   106   53   54 2    
   107   53   55 1    
   108   55   56 1    
   109   55   59 1    
   110   55  132 1    
   111   56   57 1    
   112   56  133 1    
   113   56  134 1    
   114   57   58 1    
   115   58  135 1    
   116   58  136 1    
   117   59   60 am   BACKBONE|DICT|INTERRES
   118   59  137 1    
   119   60   61 2    
   120   60   62 1    
   121   62   63 1    
   122   62   64 1    
   123   62  138 1    
   124   63  139 1    
   125   63  140 1    
   126   63  141 1    
   127   64   65 am   BACKBONE|DICT|INTERRES
   128   64  142 1    
   129   65   66 2    
   130   65   67 1    
   131   67   68 1    
   132   67   69 1    
   133   67  143 1    
   134   68  144 1    
   135   68  145 1    
   136   68  146 1    
   137   69   70 am   BACKBONE|DICT|INTERRES
   138   69  147 1    
   139   70   71 2    
   140   70   72 1    
   141   72   73 1    
   142   72   74 1    
   143   72  148 1    
   144   73  149 1    
   145   73  150 1    
   146   73  151 1    
   147   74   75 am   BACKBONE|DICT|INTERRES
   148   74  152 1    
   149   75   76 2    
   150   75   77 1    
   151   77   78 1    
   152   77   79 1    
   153   77  153 1    
   154   78  154 1    
   155   78  155 1    
   156   78  156 1    
   157   79   80 am   BACKBONE|DICT|INTERRES
   158   79  157 1    
   159   80   81 2    
@<TRIPOS>SUBSTRUCTURE
     1 UNK         1 GROUP             0       ****    0 ROOT    
