@<TRIPOS>MOLECULE
3R207
157   159    1
SMALL
USER_CHARGES


@<TRIPOS>ATOM
      1 CA        -50.5580  -29.2241    9.4083 C.3       0 UNK        -0.1975 
      2 C         -49.9965  -28.9948    8.0142 C.2       0 UNK         0.4852 
      3 O         -48.8809  -29.4280    7.7194 O.2       0 UNK        -0.5216 
      4 N         -50.7594  -28.3149    7.1487 N.am      1 UNK        -0.4461 
      5 CA        -50.3570  -27.9518    5.7864 C.3       1 UNK         0.0864 
      6 C6        -51.5207  -27.3597    4.9530 C.3       14 UNK        -0.0898 
      7 S7        -52.8683  -28.5614    4.6820 S.3       14 UNK        -0.2598 
      8 C8        -54.2671  -27.7841    5.5523 C.3       14 UNK         0.0286 
      9 C9        -54.0941  -27.8464    7.0617 C.ar      14 UNK        -0.0844 
     10 C10       -53.5789  -26.7510    7.7583 C.ar      14 UNK        -0.0881 
     11 C11       -53.3753  -26.8154    9.1409 C.ar      14 UNK        -0.0643 
     12 C12       -53.7532  -27.9714    9.8341 C.ar      14 UNK        -0.0930 
     13 C13       -54.2947  -29.0651    9.1500 C.ar      14 UNK        -0.0827 
     14 C14       -54.4498  -29.0011    7.7627 C.ar      14 UNK        -0.1249 
     15 C15       -54.7130  -30.3196    9.9011 C.3       14 UNK         0.0141 
     16 S16       -56.5025  -30.3113   10.2208 S.3       14 UNK        -0.2313 
     17 C17       -56.7359  -31.9162   11.0527 C.3       14 UNK        -0.0915 
     18 CA        -57.0157  -31.7767   12.5750 C.3       13 UNK         0.0968 
     19 C         -57.6275  -33.0806   13.1480 C.2       13 UNK         0.5732 
     20 N         -58.9279  -33.2793   12.9835 N.am      13 UNK        -0.7310 
     21 O         -56.9344  -33.9242   13.7167 O.2       13 UNK        -0.5035 
     22 N         -55.8059  -31.4311   13.3306 N.am      13 UNK        -0.4233 
     23 C         -55.4453  -30.2083   13.7282 C.2       13 UNK         0.4989 
     24 O         -56.0649  -29.1797   13.4483 O.2       13 UNK        -0.4996 
     25 CA        -54.1547  -30.1407   14.5659 C.3       12 UNK         0.0216 
     26 CB        -52.9243  -30.4803   13.7048 C.3       12 UNK        -0.1964 
     27 N         -53.9664  -28.8235   15.1811 N.am      12 UNK        -0.4276 
     28 C         -54.6445  -28.3855   16.2539 C.2       12 UNK         0.5020 
     29 O         -55.4429  -29.0864   16.8791 O.2       12 UNK        -0.5489 
     30 CA        -54.3929  -26.9435   16.7445 C.3       11 UNK         0.0294 
     31 CB        -53.5927  -26.9570   18.0575 C.3       11 UNK        -0.2019 
     32 N         -53.6955  -26.0974   15.7739 N.am      11 UNK        -0.4493 
     33 C         -54.2461  -25.6085   14.6518 C.2       11 UNK         0.4932 
     34 O         -55.4415  -25.7166   14.3801 O.2       11 UNK        -0.5029 
     35 CA        -53.3164  -24.8915   13.6491 C.3       10 UNK         0.0280 
     36 CB        -53.4888  -23.3685   13.7692 C.3       10 UNK        -0.1976 
     37 N         -51.8935  -25.2336   13.7865 N.am      10 UNK        -0.4242 
     38 C         -51.3841  -26.4742   13.7276 C.2       10 UNK         0.5072 
     39 O         -52.0429  -27.4476   13.3677 O.2       10 UNK        -0.5224 
     40 CA        -49.9464  -26.7051   14.2380 C.3       9 UNK         0.0343 
     41 CB        -48.9841  -27.0843   13.1005 C.3       9 UNK        -0.2003 
     42 N         -49.3754  -25.6013   15.0168 N.am      9 UNK        -0.4272 
     43 C         -49.8495  -25.1089   16.1696 C.2       9 UNK         0.4988 
     44 O         -50.8529  -25.5510   16.7300 O.2       9 UNK        -0.5108 
     45 CA        -49.1282  -23.8856   16.7730 C.3       8 UNK         0.0248 
     46 CB        -47.9490  -24.3167   17.6669 C.3       8 UNK        -0.2001 
     47 N         -48.7305  -22.8732   15.7783 N.am      8 UNK        -0.4140 
     48 C         -47.8199  -22.9822   14.8002 C.2       8 UNK         0.5028 
     49 O         -47.0824  -23.9584   14.6498 O.2       8 UNK        -0.5428 
     50 CA        -47.8077  -21.8671   13.7416 C.3       7 UNK         0.0264 
     51 CB        -46.4382  -21.1733   13.6813 C.3       7 UNK        -0.1988 
     52 N         -48.1534  -22.4324   12.4302 N.am      7 UNK        -0.4454 
     53 C         -49.3683  -22.9359   12.1482 C.2       7 UNK         0.5027 
     54 O         -50.3097  -22.8491   12.9390 O.2       7 UNK        -0.5083 
     55 CA        -49.5837  -23.7264   10.8358 C.3       6 UNK         0.0844 
     56 C56       -50.9879  -23.4963   10.2117 C.3       14 UNK        -0.0967 
     57 S57       -51.4153  -24.8047    9.0157 S.3       14 UNK        -0.2604 
     58 C58       -52.7753  -25.6388    9.9027 C.3       14 UNK         0.0134 
     59 N         -48.4721  -23.6223    9.8862 N.am      6 UNK        -0.4116 
     60 C         -48.1323  -22.5589    9.1420 C.2       5 UNK         0.5034 
     61 O         -48.7614  -21.4996    9.1327 O.2       5 UNK        -0.5045 
     62 CA        -46.8466  -22.6954    8.2914 C.3       5 UNK         0.0224 
     63 CB        -46.2495  -21.3307    7.8880 C.3       5 UNK        -0.1978 
     64 N         -45.8186  -23.5366    8.9229 N.am      5 UNK        -0.4737 
     65 C         -45.3151  -23.3930   10.1601 C.2       4 UNK         0.5027 
     66 O         -45.5647  -22.4271   10.8799 O.2       4 UNK        -0.5211 
     67 CA        -44.4500  -24.5466   10.7129 C.3       4 UNK         0.0297 
     68 CB        -44.5718  -24.6777   12.2453 C.3       4 UNK        -0.1993 
     69 N         -44.7136  -25.8456   10.0780 N.am      4 UNK        -0.4486 
     70 C         -45.8916  -26.4792    9.9707 C.2       3 UNK         0.4961 
     71 O         -46.9591  -26.0533   10.4163 O.2       3 UNK        -0.5105 
     72 CA        -45.8751  -27.7788    9.1517 C.3       3 UNK         0.0299 
     73 CB        -46.5969  -28.9055    9.9087 C.3       3 UNK        -0.1972 
     74 N         -46.4661  -27.6104    7.8165 N.am      3 UNK        -0.4305 
     75 C         -46.0657  -26.7197    6.8900 C.2       2 UNK         0.5006 
     76 O         -45.1893  -25.8759    7.0865 O.2       2 UNK        -0.5106 
     77 CA        -46.7084  -26.7742    5.4919 C.3       2 UNK         0.0296 
     78 CB        -45.7366  -27.4124    4.4850 C.3       2 UNK        -0.2002 
     79 N         -47.9749  -27.5032    5.4549 N.am      2 UNK        -0.4032 
     80 C         -49.1534  -26.9886    5.8262 C.2       1 UNK         0.5000 
     81 O         -49.3071  -25.8248    6.2028 O.2       1 UNK        -0.5238 
     82 H82       -49.8533  -29.7827   10.0235 H         1 UNK         0.0889 
     83 H83       -51.4834  -29.7960    9.3562 H         1 UNK         0.0889 
     84 H84       -50.7585  -28.2730    9.9015 H         1 UNK         0.0889 
     85 H85       -51.6710  -27.9839    7.4378 H         1 UNK         0.3028 
     86 H86       -50.0393  -28.8718    5.2903 H         1 UNK         0.0864 
     87 H87       -51.1609  -27.0586    3.9672 H         1 UNK         0.0720 
     88 H88       -51.9088  -26.4517    5.4161 H         1 UNK         0.0720 
     89 H89       -55.1864  -28.2994    5.2703 H         1 UNK         0.0814 
     90 H90       -54.3840  -26.7527    5.2155 H         1 UNK         0.0814 
     91 H91       -53.3176  -25.8505    7.2197 H         1 UNK         0.1469 
     92 H92       -53.6249  -28.0211   10.9078 H         1 UNK         0.1381 
     93 H93       -54.8577  -29.8486    7.2285 H         1 UNK         0.1206 
     94 H94       -54.4497  -31.2037    9.3184 H         1 UNK         0.0813 
     95 H95       -54.1751  -30.3984   10.8461 H         1 UNK         0.0813 
     96 H96       -55.8742  -32.5620   10.8747 H         1 UNK         0.0638 
     97 H97       -57.5774  -32.3975   10.5507 H         1 UNK         0.0638 
     98 H98       -57.7619  -30.9942   12.7274 H         1 UNK         0.0568 
     99 H99       -59.5041  -32.6004   12.5104 H         1 UNK         0.3450 
    100 H100      -59.3424  -34.1260   13.3405 H         1 UNK         0.3450 
    101 H101      -55.2754  -32.2324   13.6447 H         1 UNK         0.2987 
    102 H102      -54.2291  -30.8824   15.3643 H         1 UNK         0.0766 
    103 H103      -52.8574  -29.8394   12.8255 H         1 UNK         0.0798 
    104 H104      -51.9988  -30.3681   14.2698 H         1 UNK         0.0798 
    105 H105      -52.9610  -31.5107   13.3499 H         1 UNK         0.0798 
    106 H106      -53.3627  -28.1803   14.6778 H         1 UNK         0.3198 
    107 H107      -55.3689  -26.4967   16.9459 H         1 UNK         0.0843 
    108 H108      -54.1106  -27.5327   18.8259 H         1 UNK         0.0831 
    109 H109      -53.4518  -25.9491   18.4483 H         1 UNK         0.0831 
    110 H110      -52.6071  -27.4048   17.9234 H         1 UNK         0.0831 
    111 H111      -52.7099  -25.9271   15.9519 H         1 UNK         0.3133 
    112 H112      -53.6382  -25.1939   12.6526 H         1 UNK         0.0566 
    113 H113      -54.5403  -23.0854   13.7015 H         1 UNK         0.0814 
    114 H114      -52.9677  -22.8414   12.9712 H         1 UNK         0.0814 
    115 H115      -53.1109  -22.9943   14.7214 H         1 UNK         0.0814 
    116 H116      -51.2696  -24.4678   14.0113 H         1 UNK         0.3091 
    117 H117      -50.0107  -27.5641   14.9090 H         1 UNK         0.0702 
    118 H118      -48.6632  -26.2151   12.5310 H         1 UNK         0.0785 
    119 H119      -49.4404  -27.7888   12.4033 H         1 UNK         0.0785 
    120 H120      -48.0852  -27.5595   13.4933 H         1 UNK         0.0785 
    121 H121      -48.5230  -25.1752   14.6599 H         1 UNK         0.2998 
    122 H122      -49.8554  -23.3881   17.4169 H         1 UNK         0.0697 
    123 H123      -47.1873  -24.8626   17.1096 H         1 UNK         0.0825 
    124 H124      -48.2915  -24.9723   18.4685 H         1 UNK         0.0825 
    125 H125      -47.4704  -23.4561   18.1341 H         1 UNK         0.0825 
    126 H126      -49.3131  -22.0467   15.7706 H         1 UNK         0.3029 
    127 H127      -48.5567  -21.1137   13.9956 H         1 UNK         0.0897 
    128 H128      -46.4089  -20.4172   12.8966 H         1 UNK         0.0792 
    129 H129      -46.2138  -20.6744   14.6248 H         1 UNK         0.0792 
    130 H130      -45.6331  -21.8834   13.4917 H         1 UNK         0.0792 
    131 H131      -47.3893  -22.5459   11.7708 H         1 UNK         0.3086 
    132 H132      -49.5655  -24.7669   11.1540 H         1 UNK         0.0583 
    133 H133      -51.7615  -23.4754   10.9800 H         1 UNK         0.1020 
    134 H134      -51.0488  -22.5269    9.7167 H         1 UNK         0.1020 
    135 H135      -52.3843  -25.9821   10.8608 H         1 UNK         0.0694 
    136 H136      -53.5670  -24.9191   10.1151 H         1 UNK         0.0694 
    137 H137      -47.8688  -24.4409    9.8612 H         1 UNK         0.2989 
    138 H138      -47.1475  -23.2114    7.3778 H         1 UNK         0.1055 
    139 H139      -46.9637  -20.7460    7.3068 H         1 UNK         0.0806 
    140 H140      -45.3583  -21.4540    7.2729 H         1 UNK         0.0806 
    141 H141      -45.9758  -20.7362    8.7604 H         1 UNK         0.0806 
    142 H142      -45.5498  -24.3668    8.4008 H         1 UNK         0.3061 
    143 H143      -43.4160  -24.2899   10.4786 H         1 UNK         0.0734 
    144 H144      -44.2439  -23.7669   12.7470 H         1 UNK         0.0832 
    145 H145      -45.6021  -24.8640   12.5513 H         1 UNK         0.0832 
    146 H146      -43.9571  -25.4927   12.6264 H         1 UNK         0.0832 
    147 H147      -43.9198  -26.2612    9.6091 H         1 UNK         0.3156 
    148 H148      -44.8386  -28.0903    9.0075 H         1 UNK         0.0589 
    149 H149      -47.6409  -28.6560   10.0992 H         1 UNK         0.0808 
    150 H150      -46.5705  -29.8429    9.3529 H         1 UNK         0.0808 
    151 H151      -46.1276  -29.0874   10.8763 H         1 UNK         0.0808 
    152 H152      -47.2318  -28.2383    7.5915 H         1 UNK         0.3098 
    153 H153      -46.8880  -25.7434    5.1781 H         1 UNK         0.0720 
    154 H154      -46.1443  -27.3952    3.4740 H         1 UNK         0.0791 
    155 H155      -45.5119  -28.4489    4.7402 H         1 UNK         0.0791 
    156 H156      -44.7896  -26.8712    4.4588 H         1 UNK         0.0791 
    157 H157      -47.9300  -28.4783    5.1936 H         1 UNK         0.3028 
@<TRIPOS>BOND
     1    1    2 1    
     2    1   82 1    
     3    1   83 1    
     4    1   84 1    
     5    2    3 2    
     6    2    4 am   BACKBONE|DICT|INTERRES
     7    4    5 1    
     8    4   85 1    
     9    5    6 1    
    10    5   80 1    
    11    5   86 1    
    12    6    7 1    
    13    6   87 1    
    14    6   88 1    
    15    7    8 1    
    16    8    9 1    
    17    8   89 1    
    18    8   90 1    
    19    9   10 ar   
    20    9   14 ar   
    21   10   11 ar   
    22   10   91 1    
    23   11   12 ar   
    24   11   58 1    
    25   12   13 ar   
    26   12   92 1    
    27   13   14 ar   
    28   13   15 1    
    29   14   93 1    
    30   15   16 1    
    31   15   94 1    
    32   15   95 1    
    33   16   17 1    
    34   17   18 1    
    35   17   96 1    
    36   17   97 1    
    37   18   19 1    
    38   18   22 1    
    39   18   98 1    
    40   19   20 am   BACKBONE|DICT|INTERRES
    41   19   21 2    
    42   20   99 1    
    43   20  100 1    
    44   22   23 am   BACKBONE|DICT|INTERRES
    45   22  101 1    
    46   23   24 2    
    47   23   25 1    
    48   25   26 1    
    49   25   27 1    
    50   25  102 1    
    51   26  103 1    
    52   26  104 1    
    53   26  105 1    
    54   27   28 am   BACKBONE|DICT|INTERRES
    55   27  106 1    
    56   28   29 2    
    57   28   30 1    
    58   30   31 1    
    59   30   32 1    
    60   30  107 1    
    61   31  108 1    
    62   31  109 1    
    63   31  110 1    
    64   32   33 am   BACKBONE|DICT|INTERRES
    65   32  111 1    
    66   33   34 2    
    67   33   35 1    
    68   35   36 1    
    69   35   37 1    
    70   35  112 1    
    71   36  113 1    
    72   36  114 1    
    73   36  115 1    
    74   37   38 am   BACKBONE|DICT|INTERRES
    75   37  116 1    
    76   38   39 2    
    77   38   40 1    
    78   40   41 1    
    79   40   42 1    
    80   40  117 1    
    81   41  118 1    
    82   41  119 1    
    83   41  120 1    
    84   42   43 am   BACKBONE|DICT|INTERRES
    85   42  121 1    
    86   43   44 2    
    87   43   45 1    
    88   45   46 1    
    89   45   47 1    
    90   45  122 1    
    91   46  123 1    
    92   46  124 1    
    93   46  125 1    
    94   47   48 am   BACKBONE|DICT|INTERRES
    95   47  126 1    
    96   48   49 2    
    97   48   50 1    
    98   50   51 1    
    99   50   52 1    
   100   50  127 1    
   101   51  128 1    
   102   51  129 1    
   103   51  130 1    
   104   52   53 am   BACKBONE|DICT|INTERRES
   105   52  131 1    
   106   53   54 2    
   107   53   55 1    
   108   55   56 1    
   109   55   59 1    
   110   55  132 1    
   111   56   57 1    
   112   56  133 1    
   113   56  134 1    
   114   57   58 1    
   115   58  135 1    
   116   58  136 1    
   117   59   60 am   BACKBONE|DICT|INTERRES
   118   59  137 1    
   119   60   61 2    
   120   60   62 1    
   121   62   63 1    
   122   62   64 1    
   123   62  138 1    
   124   63  139 1    
   125   63  140 1    
   126   63  141 1    
   127   64   65 am   BACKBONE|DICT|INTERRES
   128   64  142 1    
   129   65   66 2    
   130   65   67 1    
   131   67   68 1    
   132   67   69 1    
   133   67  143 1    
   134   68  144 1    
   135   68  145 1    
   136   68  146 1    
   137   69   70 am   BACKBONE|DICT|INTERRES
   138   69  147 1    
   139   70   71 2    
   140   70   72 1    
   141   72   73 1    
   142   72   74 1    
   143   72  148 1    
   144   73  149 1    
   145   73  150 1    
   146   73  151 1    
   147   74   75 am   BACKBONE|DICT|INTERRES
   148   74  152 1    
   149   75   76 2    
   150   75   77 1    
   151   77   78 1    
   152   77   79 1    
   153   77  153 1    
   154   78  154 1    
   155   78  155 1    
   156   78  156 1    
   157   79   80 am   BACKBONE|DICT|INTERRES
   158   79  157 1    
   159   80   81 2    
@<TRIPOS>SUBSTRUCTURE
     1 UNK         1 GROUP             0       ****    0 ROOT    
