@<TRIPOS>MOLECULE
3R207
157   159    1
SMALL
USER_CHARGES


@<TRIPOS>ATOM
      1 CA        -51.3932  -23.2572    2.2400 C.3       0 UNK        -0.1975 
      2 C         -50.8048  -24.1237    3.3435 C.2       0 UNK         0.4852 
      3 O         -50.4339  -25.2676    3.0819 O.2       0 UNK        -0.5216 
      4 N         -50.6977  -23.5730    4.5619 N.am      1 UNK        -0.4461 
      5 CA        -50.2174  -24.1745    5.8187 C.3       1 UNK         0.0864 
      6 C6        -51.1376  -25.3143    6.3570 C.3       14 UNK        -0.0898 
      7 S7        -50.7010  -27.0337    5.9102 S.3       14 UNK        -0.2598 
      8 C8        -52.1905  -27.9237    6.4532 C.3       14 UNK         0.0286 
      9 C9        -52.2507  -28.0630    7.9675 C.ar      14 UNK        -0.0844 
     10 C10       -51.5249  -29.0725    8.6050 C.ar      14 UNK        -0.0881 
     11 C11       -51.6004  -29.2383    9.9908 C.ar      14 UNK        -0.0643 
     12 C12       -52.4186  -28.3884   10.7409 C.ar      14 UNK        -0.0930 
     13 C13       -53.1429  -27.3672   10.1157 C.ar      14 UNK        -0.0827 
     14 C14       -53.0498  -27.2059    8.7296 C.ar      14 UNK        -0.1249 
     15 C15       -54.0071  -26.4213   10.9392 C.3       14 UNK         0.0141 
     16 S16       -55.7839  -26.6233   10.5969 S.3       14 UNK        -0.2313 
     17 C17       -56.1354  -28.2135   11.4151 C.3       14 UNK        -0.0915 
     18 CA        -56.8750  -28.0393   12.7767 C.3       13 UNK         0.0968 
     19 C         -58.4283  -27.9721   12.6463 C.2       13 UNK         0.5732 
     20 N         -59.1917  -28.4711   13.6117 N.am      13 UNK        -0.7310 
     21 O         -58.9573  -27.4362   11.6755 O.2       13 UNK        -0.5035 
     22 N         -56.3818  -28.9779   13.7966 N.am      13 UNK        -0.4233 
     23 C         -56.4109  -30.3174   13.7149 C.2       13 UNK         0.4989 
     24 O         -56.9237  -30.9329   12.7787 O.2       13 UNK        -0.4996 
     25 CA        -55.7695  -31.1068   14.8778 C.3       12 UNK         0.0216 
     26 CB        -55.1817  -32.4607   14.4233 C.3       12 UNK        -0.1964 
     27 N         -54.7798  -30.3296   15.6374 N.am      12 UNK        -0.4276 
     28 C         -53.6317  -29.8104   15.1782 C.2       12 UNK         0.5020 
     29 O         -53.1776  -29.9926   14.0469 O.2       12 UNK        -0.5489 
     30 CA        -52.8957  -28.8714   16.1414 C.3       11 UNK         0.0294 
     31 CB        -51.4627  -29.3499   16.4244 C.3       11 UNK        -0.2019 
     32 N         -52.8667  -27.5143   15.6004 N.am      11 UNK        -0.4493 
     33 C         -53.9242  -26.6960   15.5037 C.2       11 UNK         0.4932 
     34 O         -55.0731  -27.0345   15.7980 O.2       11 UNK        -0.5029 
     35 CA        -53.6414  -25.2625   15.0031 C.3       10 UNK         0.0280 
     36 CB        -54.7150  -24.2465   15.4445 C.3       10 UNK        -0.1976 
     37 N         -52.2890  -24.8023   15.3487 N.am      10 UNK        -0.4242 
     38 C         -51.7679  -24.6337   16.5748 C.2       10 UNK         0.5072 
     39 O         -52.4203  -24.6971   17.6175 O.2       10 UNK        -0.5224 
     40 CA        -50.2462  -24.4084   16.6677 C.3       9 UNK         0.0343 
     41 CB        -49.5452  -25.7131   17.0803 C.3       9 UNK        -0.2003 
     42 N         -49.6401  -23.9168   15.4271 N.am      9 UNK        -0.4272 
     43 C         -49.7821  -22.6660   14.9656 C.2       9 UNK         0.4988 
     44 O         -50.4122  -21.7854   15.5523 O.2       9 UNK        -0.5108 
     45 CA        -49.1188  -22.3440   13.6173 C.3       8 UNK         0.0248 
     46 CB        -47.6349  -21.9967   13.8170 C.3       8 UNK        -0.2001 
     47 N         -49.2431  -23.4338   12.6465 N.am      8 UNK        -0.4140 
     48 C         -50.3989  -23.8380   12.0990 C.2       8 UNK         0.5028 
     49 O         -51.4901  -23.3188   12.3333 O.2       8 UNK        -0.5428 
     50 CA        -50.3336  -25.0561   11.1654 C.3       7 UNK         0.0264 
     51 CB        -49.7138  -24.6931    9.8079 C.3       7 UNK        -0.1988 
     52 N         -49.6055  -26.1742   11.7620 N.am      7 UNK        -0.4454 
     53 C         -50.0018  -26.8522   12.8496 C.2       7 UNK         0.5027 
     54 O         -51.0466  -26.6262   13.4581 O.2       7 UNK        -0.5083 
     55 CA        -49.0557  -27.9414   13.3878 C.3       6 UNK         0.0844 
     56 C56       -49.4994  -29.3643   12.9718 C.3       14 UNK        -0.0967 
     57 S57       -49.1763  -29.7903   11.2266 S.3       14 UNK        -0.2604 
     58 C58       -50.8149  -30.3544   10.6624 C.3       14 UNK         0.0134 
     59 N         -47.6501  -27.6608   13.0847 N.am      6 UNK        -0.4116 
     60 C         -46.9590  -26.6487   13.6267 C.2       5 UNK         0.5034 
     61 O         -47.4211  -25.8691   14.4623 O.2       5 UNK        -0.5045 
     62 CA        -45.5323  -26.4434   13.0999 C.3       5 UNK         0.0224 
     63 CB        -44.6286  -27.6444   13.4266 C.3       5 UNK        -0.1978 
     64 N         -45.4949  -26.1704   11.6598 N.am      5 UNK        -0.4737 
     65 C         -46.0307  -25.0970   11.0667 C.2       4 UNK         0.5027 
     66 O         -46.7145  -24.2645   11.6584 O.2       4 UNK        -0.5211 
     67 CA        -45.7473  -24.8964    9.5698 C.3       4 UNK         0.0297 
     68 CB        -44.2399  -24.7247    9.2952 C.3       4 UNK        -0.1993 
     69 N         -46.3396  -25.9060    8.6866 N.am      4 UNK        -0.4486 
     70 C         -46.0610  -27.2173    8.6017 C.2       3 UNK         0.4961 
     71 O         -45.3007  -27.8128    9.3663 O.2       3 UNK        -0.5105 
     72 CA        -46.7163  -28.0002    7.4447 C.3       3 UNK         0.0299 
     73 CB        -47.9618  -28.7480    7.9390 C.3       3 UNK        -0.1972 
     74 N         -47.0859  -27.1579    6.3037 N.am      3 UNK        -0.4305 
     75 C         -46.2208  -26.4850    5.5294 C.2       2 UNK         0.5006 
     76 O         -44.9980  -26.6104    5.6072 O.2       2 UNK        -0.5106 
     77 CA        -46.7999  -25.4810    4.5130 C.3       2 UNK         0.0296 
     78 CB        -46.6746  -26.0308    3.0827 C.3       2 UNK        -0.2002 
     79 N         -48.1936  -25.0870    4.7452 N.am      2 UNK        -0.4032 
     80 C         -48.7059  -24.5073    5.8394 C.2       1 UNK         0.5000 
     81 O         -48.0410  -24.2477    6.8448 O.2       1 UNK        -0.5238 
     82 H82       -50.6689  -23.1318    1.4356 H         1 UNK         0.0889 
     83 H83       -51.6740  -22.2681    2.6013 H         1 UNK         0.0889 
     84 H84       -52.2827  -23.7319    1.8266 H         1 UNK         0.0889 
     85 H85       -50.9913  -22.6108    4.6618 H         1 UNK         0.3028 
     86 H86       -50.3201  -23.3547    6.5320 H         1 UNK         0.0864 
     87 H87       -52.1689  -25.1286    6.0534 H         1 UNK         0.0720 
     88 H88       -51.1582  -25.2729    7.4446 H         1 UNK         0.0720 
     89 H89       -52.1897  -28.9154    5.9986 H         1 UNK         0.0814 
     90 H90       -53.0809  -27.4201    6.0740 H         1 UNK         0.0814 
     91 H91       -50.9021  -29.7340    8.0186 H         1 UNK         0.1469 
     92 H92       -52.4851  -28.5191   11.8130 H         1 UNK         0.1381 
     93 H93       -53.6112  -26.4192    8.2444 H         1 UNK         0.1206 
     94 H94       -53.8267  -26.5669   12.0044 H         1 UNK         0.0813 
     95 H95       -53.7253  -25.3914   10.7165 H         1 UNK         0.0813 
     96 H96       -55.1878  -28.7344   11.5585 H         1 UNK         0.0638 
     97 H97       -56.7063  -28.8453   10.7326 H         1 UNK         0.0638 
     98 H98       -56.5995  -27.0647   13.1811 H         1 UNK         0.0568 
     99 H99       -60.1942  -28.4155   13.5254 H         1 UNK         0.3450 
    100 H100      -58.7768  -28.9019   14.4218 H         1 UNK         0.3450 
    101 H101      -55.9602  -28.5451   14.6105 H         1 UNK         0.2987 
    102 H102      -56.5823  -31.3211   15.5733 H         1 UNK         0.0766 
    103 H103      -54.7358  -33.0009   15.2584 H         1 UNK         0.0798 
    104 H104      -54.4153  -32.3334   13.6581 H         1 UNK         0.0798 
    105 H105      -55.9560  -33.1027   14.0014 H         1 UNK         0.0798 
    106 H106      -55.0571  -30.0905   16.5803 H         1 UNK         0.3198 
    107 H107      -53.4293  -28.8408   17.0940 H         1 UNK         0.0843 
    108 H108      -50.8594  -29.3833   15.5195 H         1 UNK         0.0831 
    109 H109      -51.4661  -30.3548   16.8484 H         1 UNK         0.0831 
    110 H110      -50.9605  -28.6984   17.1397 H         1 UNK         0.0831 
    111 H111      -52.0001  -27.2006   15.1785 H         1 UNK         0.3133 
    112 H112      -53.6660  -25.3078   13.9150 H         1 UNK         0.0566 
    113 H113      -54.4856  -23.2450   15.0805 H         1 UNK         0.0814 
    114 H114      -55.6944  -24.5183   15.0490 H         1 UNK         0.0814 
    115 H115      -54.8069  -24.1978   16.5298 H         1 UNK         0.0814 
    116 H116      -51.6477  -24.7670   14.5655 H         1 UNK         0.3091 
    117 H117      -50.0726  -23.6670   17.4506 H         1 UNK         0.0702 
    118 H118      -48.4735  -25.5634   17.2135 H         1 UNK         0.0785 
    119 H119      -49.6831  -26.4962   16.3351 H         1 UNK         0.0785 
    120 H120      -49.9401  -26.0888   18.0254 H         1 UNK         0.0785 
    121 H121      -49.0497  -24.5640   14.9150 H         1 UNK         0.2998 
    122 H122      -49.6206  -21.4678   13.2012 H         1 UNK         0.0697 
    123 H123      -47.0689  -22.8497   14.1948 H         1 UNK         0.0825 
    124 H124      -47.5151  -21.1804   14.5306 H         1 UNK         0.0825 
    125 H125      -47.1735  -21.6804   12.8813 H         1 UNK         0.0825 
    126 H126      -48.3754  -23.8885   12.3651 H         1 UNK         0.3029 
    127 H127      -51.3545  -25.3918   10.9877 H         1 UNK         0.0897 
    128 H128      -49.6366  -25.5676    9.1617 H         1 UNK         0.0792 
    129 H129      -48.7175  -24.2658    9.9086 H         1 UNK         0.0792 
    130 H130      -50.3258  -23.9529    9.2916 H         1 UNK         0.0792 
    131 H131      -48.7265  -26.4275   11.3376 H         1 UNK         0.3086 
    132 H132      -49.1489  -27.9008   14.4747 H         1 UNK         0.0583 
    133 H133      -48.9741  -30.0966   13.5869 H         1 UNK         0.1020 
    134 H134      -50.5573  -29.5077   13.1991 H         1 UNK         0.1020 
    135 H135      -50.6690  -31.1739    9.9571 H         1 UNK         0.0694 
    136 H136      -51.3860  -30.7774   11.4905 H         1 UNK         0.0694 
    137 H137      -47.2113  -28.2468   12.3889 H         1 UNK         0.2989 
    138 H138      -45.1264  -25.5678   13.6119 H         1 UNK         0.1055 
    139 H139      -44.6607  -27.8803   14.4913 H         1 UNK         0.0806 
    140 H140      -43.5888  -27.4333   13.1757 H         1 UNK         0.0806 
    141 H141      -44.9251  -28.5420   12.8826 H         1 UNK         0.0806 
    142 H142      -45.0371  -26.8494   11.0579 H         1 UNK         0.3061 
    143 H143      -46.2275  -23.9570    9.2902 H         1 UNK         0.0734 
    144 H144      -44.0583  -24.4612    8.2531 H         1 UNK         0.0832 
    145 H145      -43.8210  -23.9261    9.9089 H         1 UNK         0.0832 
    146 H146      -43.6732  -25.6306    9.5115 H         1 UNK         0.0832 
    147 H147      -46.9920  -25.5236    8.0072 H         1 UNK         0.3156 
    148 H148      -45.9916  -28.7368    7.0920 H         1 UNK         0.0589 
    149 H149      -48.7046  -28.0679    8.3589 H         1 UNK         0.0808 
    150 H150      -48.4367  -29.3109    7.1353 H         1 UNK         0.0808 
    151 H151      -47.6941  -29.4635    8.7166 H         1 UNK         0.0808 
    152 H152      -48.0742  -27.0099    6.1500 H         1 UNK         0.3098 
    153 H153      -46.1954  -24.5750    4.5862 H         1 UNK         0.0720 
    154 H154      -46.9818  -25.2898    2.3443 H         1 UNK         0.0791 
    155 H155      -47.2889  -26.9209    2.9399 H         1 UNK         0.0791 
    156 H156      -45.6433  -26.3045    2.8551 H         1 UNK         0.0791 
    157 H157      -48.8590  -25.2893    4.0002 H         1 UNK         0.3028 
@<TRIPOS>BOND
     1    1    2 1    
     2    1   82 1    
     3    1   83 1    
     4    1   84 1    
     5    2    3 2    
     6    2    4 am   BACKBONE|DICT|INTERRES
     7    4    5 1    
     8    4   85 1    
     9    5    6 1    
    10    5   80 1    
    11    5   86 1    
    12    6    7 1    
    13    6   87 1    
    14    6   88 1    
    15    7    8 1    
    16    8    9 1    
    17    8   89 1    
    18    8   90 1    
    19    9   10 ar   
    20    9   14 ar   
    21   10   11 ar   
    22   10   91 1    
    23   11   12 ar   
    24   11   58 1    
    25   12   13 ar   
    26   12   92 1    
    27   13   14 ar   
    28   13   15 1    
    29   14   93 1    
    30   15   16 1    
    31   15   94 1    
    32   15   95 1    
    33   16   17 1    
    34   17   18 1    
    35   17   96 1    
    36   17   97 1    
    37   18   19 1    
    38   18   22 1    
    39   18   98 1    
    40   19   20 am   BACKBONE|DICT|INTERRES
    41   19   21 2    
    42   20   99 1    
    43   20  100 1    
    44   22   23 am   BACKBONE|DICT|INTERRES
    45   22  101 1    
    46   23   24 2    
    47   23   25 1    
    48   25   26 1    
    49   25   27 1    
    50   25  102 1    
    51   26  103 1    
    52   26  104 1    
    53   26  105 1    
    54   27   28 am   BACKBONE|DICT|INTERRES
    55   27  106 1    
    56   28   29 2    
    57   28   30 1    
    58   30   31 1    
    59   30   32 1    
    60   30  107 1    
    61   31  108 1    
    62   31  109 1    
    63   31  110 1    
    64   32   33 am   BACKBONE|DICT|INTERRES
    65   32  111 1    
    66   33   34 2    
    67   33   35 1    
    68   35   36 1    
    69   35   37 1    
    70   35  112 1    
    71   36  113 1    
    72   36  114 1    
    73   36  115 1    
    74   37   38 am   BACKBONE|DICT|INTERRES
    75   37  116 1    
    76   38   39 2    
    77   38   40 1    
    78   40   41 1    
    79   40   42 1    
    80   40  117 1    
    81   41  118 1    
    82   41  119 1    
    83   41  120 1    
    84   42   43 am   BACKBONE|DICT|INTERRES
    85   42  121 1    
    86   43   44 2    
    87   43   45 1    
    88   45   46 1    
    89   45   47 1    
    90   45  122 1    
    91   46  123 1    
    92   46  124 1    
    93   46  125 1    
    94   47   48 am   BACKBONE|DICT|INTERRES
    95   47  126 1    
    96   48   49 2    
    97   48   50 1    
    98   50   51 1    
    99   50   52 1    
   100   50  127 1    
   101   51  128 1    
   102   51  129 1    
   103   51  130 1    
   104   52   53 am   BACKBONE|DICT|INTERRES
   105   52  131 1    
   106   53   54 2    
   107   53   55 1    
   108   55   56 1    
   109   55   59 1    
   110   55  132 1    
   111   56   57 1    
   112   56  133 1    
   113   56  134 1    
   114   57   58 1    
   115   58  135 1    
   116   58  136 1    
   117   59   60 am   BACKBONE|DICT|INTERRES
   118   59  137 1    
   119   60   61 2    
   120   60   62 1    
   121   62   63 1    
   122   62   64 1    
   123   62  138 1    
   124   63  139 1    
   125   63  140 1    
   126   63  141 1    
   127   64   65 am   BACKBONE|DICT|INTERRES
   128   64  142 1    
   129   65   66 2    
   130   65   67 1    
   131   67   68 1    
   132   67   69 1    
   133   67  143 1    
   134   68  144 1    
   135   68  145 1    
   136   68  146 1    
   137   69   70 am   BACKBONE|DICT|INTERRES
   138   69  147 1    
   139   70   71 2    
   140   70   72 1    
   141   72   73 1    
   142   72   74 1    
   143   72  148 1    
   144   73  149 1    
   145   73  150 1    
   146   73  151 1    
   147   74   75 am   BACKBONE|DICT|INTERRES
   148   74  152 1    
   149   75   76 2    
   150   75   77 1    
   151   77   78 1    
   152   77   79 1    
   153   77  153 1    
   154   78  154 1    
   155   78  155 1    
   156   78  156 1    
   157   79   80 am   BACKBONE|DICT|INTERRES
   158   79  157 1    
   159   80   81 2    
@<TRIPOS>SUBSTRUCTURE
     1 UNK         1 GROUP             0       ****    0 ROOT    
