@<TRIPOS>MOLECULE
3R207
157   159    1
SMALL
USER_CHARGES


@<TRIPOS>ATOM
      1 CA        -49.0948  -27.3833    2.1580 C.3       0 UNK        -0.1975 
      2 C         -49.2741  -28.6008    3.0612 C.2       0 UNK         0.4852 
      3 O         -48.7031  -29.6519    2.7772 O.2       0 UNK        -0.5216 
      4 N         -50.0503  -28.5202    4.1520 N.am      1 UNK        -0.4461 
      5 CA        -50.7708  -27.3366    4.6447 C.3       1 UNK         0.0864 
      6 C6        -51.9058  -27.7151    5.6291 C.3       14 UNK        -0.0898 
      7 S7        -53.1605  -28.8330    4.9128 S.3       14 UNK        -0.2598 
      8 C8        -52.6620  -30.4752    5.5338 C.3       14 UNK         0.0286 
      9 C9        -52.6935  -30.5646    7.0538 C.ar      14 UNK        -0.0844 
     10 C10       -51.5067  -30.4853    7.7870 C.ar      14 UNK        -0.0881 
     11 C11       -51.5215  -30.5474    9.1837 C.ar      14 UNK        -0.0643 
     12 C12       -52.7413  -30.7275    9.8473 C.ar      14 UNK        -0.0930 
     13 C13       -53.9325  -30.8493    9.1221 C.ar      14 UNK        -0.0827 
     14 C14       -53.9025  -30.7544    7.7272 C.ar      14 UNK        -0.1249 
     15 C15       -55.2496  -31.1390    9.8279 C.3       14 UNK         0.0141 
     16 S16       -56.3022  -29.6578    9.9352 S.3       14 UNK        -0.2313 
     17 C17       -56.2029  -29.2449   11.7086 C.3       14 UNK        -0.0915 
     18 CA        -55.0214  -28.3033   12.0528 C.3       13 UNK         0.0968 
     19 C         -55.2176  -26.8686   11.5058 C.2       13 UNK         0.5732 
     20 N         -54.5765  -26.5251   10.3973 N.am      13 UNK        -0.7310 
     21 O         -55.9559  -26.0708   12.0781 O.2       13 UNK        -0.5035 
     22 N         -54.8009  -28.2418   13.5002 N.am      13 UNK        -0.4233 
     23 C         -54.0409  -29.0868   14.2040 C.2       13 UNK         0.4989 
     24 O         -53.4688  -30.0589   13.7085 O.2       13 UNK        -0.4996 
     25 CA        -53.8725  -28.7739   15.7018 C.3       12 UNK         0.0216 
     26 CB        -52.7002  -29.5446   16.3390 C.3       12 UNK        -0.1964 
     27 N         -53.6591  -27.3399   15.9103 N.am      12 UNK        -0.4276 
     28 C         -54.5038  -26.5013   16.5241 C.2       12 UNK         0.5020 
     29 O         -55.5967  -26.8362   16.9817 O.2       12 UNK        -0.5489 
     30 CA        -54.0603  -25.0340   16.6226 C.3       11 UNK         0.0294 
     31 CB        -53.0538  -24.8468   17.7695 C.3       11 UNK        -0.2019 
     32 N         -53.4504  -24.5953   15.3683 N.am      11 UNK        -0.4493 
     33 C         -54.1143  -24.0253   14.3559 C.2       11 UNK         0.4932 
     34 O         -55.3033  -23.7082   14.4167 O.2       11 UNK        -0.5029 
     35 CA        -53.3109  -23.7782   13.0610 C.3       10 UNK         0.0280 
     36 CB        -54.0356  -22.8398   12.0731 C.3       10 UNK        -0.1976 
     37 N         -51.9372  -23.3168   13.2989 N.am      10 UNK        -0.4242 
     38 C         -51.5568  -22.2116   13.9592 C.2       10 UNK         0.5072 
     39 O         -52.3311  -21.4079   14.4824 O.2       10 UNK        -0.5224 
     40 CA        -50.0385  -21.9753   14.0192 C.3       9 UNK         0.0343 
     41 CB        -49.6270  -20.7578   14.8754 C.3       9 UNK        -0.2003 
     42 N         -49.3123  -23.1908   14.4082 N.am      9 UNK        -0.4272 
     43 C         -49.3424  -23.8056   15.5998 C.2       9 UNK         0.4988 
     44 O         -49.9520  -23.3829   16.5834 O.2       9 UNK        -0.5108 
     45 CA        -48.5698  -25.1371   15.6838 C.3       8 UNK         0.0248 
     46 CB        -48.6509  -25.7911   17.0801 C.3       8 UNK        -0.2001 
     47 N         -48.9763  -26.0955   14.6486 N.am      8 UNK        -0.4140 
     48 C         -50.2113  -26.5728   14.4269 C.2       8 UNK         0.5028 
     49 O         -51.2044  -26.2419   15.0748 O.2       8 UNK        -0.5428 
     50 CA        -50.3959  -27.5835   13.2861 C.3       7 UNK         0.0264 
     51 CB        -51.5385  -27.1612   12.3503 C.3       7 UNK        -0.1988 
     52 N         -49.1816  -27.7656   12.4939 N.am      7 UNK        -0.4454 
     53 C         -48.3590  -28.8170   12.5927 C.2       7 UNK         0.5027 
     54 O         -48.4891  -29.7207   13.4193 O.2       7 UNK        -0.5083 
     55 CA        -47.1960  -28.8722   11.5840 C.3       6 UNK         0.0844 
     56 C56       -47.5498  -29.6768   10.3043 C.3       14 UNK        -0.0967 
     57 S57       -49.0778  -29.1781    9.4243 S.3       14 UNK        -0.2604 
     58 C58       -50.2164  -30.5007    9.9707 C.3       14 UNK         0.0134 
     59 N         -46.6268  -27.5531   11.2860 N.am      6 UNK        -0.4116 
     60 C         -45.8751  -26.8561   12.1522 C.2       5 UNK         0.5034 
     61 O         -45.7285  -27.1655   13.3348 O.2       5 UNK        -0.5045 
     62 CA        -45.1497  -25.6188   11.6126 C.3       5 UNK         0.0224 
     63 CB        -44.1340  -26.0045   10.5221 C.3       5 UNK        -0.1978 
     64 N         -46.0991  -24.6539   11.0690 N.am      5 UNK        -0.4737 
     65 C         -46.4496  -23.5063   11.6638 C.2       4 UNK         0.5027 
     66 O         -46.0231  -23.1386   12.7580 O.2       4 UNK        -0.5211 
     67 CA        -47.4548  -22.6133   10.9142 C.3       4 UNK         0.0297 
     68 CB        -46.7116  -21.5969   10.0334 C.3       4 UNK        -0.1993 
     69 N         -48.3935  -23.3731   10.0868 N.am      4 UNK        -0.4486 
     70 C         -49.2856  -24.2578   10.5504 C.2       3 UNK         0.4961 
     71 O         -49.5169  -24.4333   11.7480 O.2       3 UNK        -0.5105 
     72 CA        -50.0143  -25.1260    9.5099 C.3       3 UNK         0.0299 
     73 CB        -51.4416  -24.6077    9.2773 C.3       3 UNK        -0.1972 
     74 N         -49.3270  -25.2536    8.2200 N.am      3 UNK        -0.4305 
     75 C         -48.1189  -25.7990    8.0185 C.2       2 UNK         0.5006 
     76 O         -47.3745  -26.1577    8.9337 O.2       2 UNK        -0.5106 
     77 CA        -47.6821  -25.9788    6.5507 C.3       2 UNK         0.0296 
     78 CB        -46.2988  -26.6455    6.4294 C.3       2 UNK        -0.2002 
     79 N         -48.6570  -26.7667    5.7899 N.am      2 UNK        -0.4032 
     80 C         -49.8336  -26.3176    5.3268 C.2       1 UNK         0.5000 
     81 O         -50.2046  -25.1492    5.4536 O.2       1 UNK        -0.5238 
     82 H82       -48.4910  -27.6415    1.2882 H         1 UNK         0.0889 
     83 H83       -48.5862  -26.5757    2.6831 H         1 UNK         0.0889 
     84 H84       -50.0550  -27.0205    1.7931 H         1 UNK         0.0889 
     85 H85       -50.1660  -29.3529    4.7091 H         1 UNK         0.3028 
     86 H86       -51.2317  -26.8301    3.7949 H         1 UNK         0.0864 
     87 H87       -52.4403  -26.8160    5.9433 H         1 UNK         0.0720 
     88 H88       -51.4975  -28.1391    6.5455 H         1 UNK         0.0720 
     89 H89       -51.6715  -30.7253    5.1528 H         1 UNK         0.0814 
     90 H90       -53.3375  -31.2235    5.1166 H         1 UNK         0.0814 
     91 H91       -50.5644  -30.3694    7.2700 H         1 UNK         0.1469 
     92 H92       -52.7607  -30.8059   10.9265 H         1 UNK         0.1381 
     93 H93       -54.8218  -30.8390    7.1635 H         1 UNK         0.1206 
     94 H94       -55.0686  -31.5610   10.8173 H         1 UNK         0.0813 
     95 H95       -55.7903  -31.9072    9.2731 H         1 UNK         0.0813 
     96 H96       -57.1503  -28.7945   12.0106 H         1 UNK         0.0638 
     97 H97       -56.1286  -30.1725   12.2776 H         1 UNK         0.0638 
     98 H98       -54.1173  -28.7083   11.5946 H         1 UNK         0.0568 
     99 H99       -54.7164  -25.6018   10.0213 H         1 UNK         0.3450 
    100 H100      -54.0115  -27.1923    9.8968 H         1 UNK         0.3450 
    101 H101      -55.2263  -27.4498   13.9632 H         1 UNK         0.2987 
    102 H102      -54.7922  -29.0982   16.1927 H         1 UNK         0.0766 
    103 H103      -51.7485  -29.2933   15.8699 H         1 UNK         0.0798 
    104 H104      -52.8389  -30.6224   16.2440 H         1 UNK         0.0798 
    105 H105      -52.6155  -29.3241   17.4031 H         1 UNK         0.0798 
    106 H106      -52.7738  -26.9617   15.5717 H         1 UNK         0.3198 
    107 H107      -54.9403  -24.4250   16.8412 H         1 UNK         0.0843 
    108 H108      -52.7587  -23.8019   17.8684 H         1 UNK         0.0831 
    109 H109      -52.1463  -25.4318   17.6143 H         1 UNK         0.0831 
    110 H110      -53.4848  -25.1560   18.7226 H         1 UNK         0.0831 
    111 H111      -52.4807  -24.8695   15.2258 H         1 UNK         0.3133 
    112 H112      -53.2231  -24.7490   12.5752 H         1 UNK         0.0566 
    113 H113      -55.0042  -23.2513   11.7857 H         1 UNK         0.0814 
    114 H114      -54.2164  -21.8567   12.5089 H         1 UNK         0.0814 
    115 H115      -53.4599  -22.7006   11.1585 H         1 UNK         0.0814 
    116 H116      -51.1994  -23.8912   12.9050 H         1 UNK         0.3091 
    117 H117      -49.7463  -21.7549   12.9941 H         1 UNK         0.0702 
    118 H118      -48.5454  -20.6230   14.8781 H         1 UNK         0.0785 
    119 H119      -49.9574  -20.8531   15.9099 H         1 UNK         0.0785 
    120 H120      -50.0671  -19.8410   14.4813 H         1 UNK         0.0785 
    121 H121      -48.8492  -23.6711   13.6452 H         1 UNK         0.2998 
    122 H122      -47.5225  -24.8982   15.4912 H         1 UNK         0.0697 
    123 H123      -48.0556  -26.7029   17.1259 H         1 UNK         0.0825 
    124 H124      -48.2717  -25.1175   17.8495 H         1 UNK         0.0825 
    125 H125      -49.6762  -26.0469   17.3493 H         1 UNK         0.0825 
    126 H126      -48.2353  -26.4356   14.0518 H         1 UNK         0.3029 
    127 H127      -50.6854  -28.5286   13.7503 H         1 UNK         0.0897 
    128 H128      -51.7134  -27.9065   11.5740 H         1 UNK         0.0792 
    129 H129      -52.4661  -27.0380   12.9030 H         1 UNK         0.0792 
    130 H130      -51.3414  -26.2095   11.8669 H         1 UNK         0.0792 
    131 H131      -48.9877  -27.0671   11.7901 H         1 UNK         0.3086 
    132 H132      -46.4011  -29.4351   12.0793 H         1 UNK         0.0583 
    133 H133      -46.7231  -29.6131    9.5951 H         1 UNK         0.1020 
    134 H134      -47.6155  -30.7365   10.5568 H         1 UNK         0.1020 
    135 H135      -49.7270  -31.4691    9.8600 H         1 UNK         0.0694 
    136 H136      -50.4176  -30.3708   11.0352 H         1 UNK         0.0694 
    137 H137      -46.7711  -27.1922   10.3451 H         1 UNK         0.2989 
    138 H138      -44.5924  -25.1781   12.4428 H         1 UNK         0.1055 
    139 H139      -44.6171  -26.4184    9.6360 H         1 UNK         0.0806 
    140 H140      -43.4293  -26.7515   10.8902 H         1 UNK         0.0806 
    141 H141      -43.5509  -25.1393   10.2065 H         1 UNK         0.0806 
    142 H142      -46.5542  -24.9163   10.1999 H         1 UNK         0.3061 
    143 H143      -48.0237  -22.0590   11.6589 H         1 UNK         0.0734 
    144 H144      -47.4038  -20.9054    9.5527 H         1 UNK         0.0832 
    145 H145      -46.0207  -20.9981   10.6288 H         1 UNK         0.0832 
    146 H146      -46.1274  -22.0870    9.2534 H         1 UNK         0.0832 
    147 H147      -48.2897  -23.2905    9.0862 H         1 UNK         0.3156 
    148 H148      -50.0809  -26.1330    9.9242 H         1 UNK         0.0589 
    149 H149      -51.4417  -23.6187    8.8175 H         1 UNK         0.0808 
    150 H150      -52.0061  -25.2793    8.6301 H         1 UNK         0.0808 
    151 H151      -51.9912  -24.5303   10.2158 H         1 UNK         0.0808 
    152 H152      -49.8525  -24.9880    7.3918 H         1 UNK         0.3098 
    153 H153      -47.6123  -24.9824    6.1092 H         1 UNK         0.0720 
    154 H154      -45.5360  -26.0609    6.9457 H         1 UNK         0.0791 
    155 H155      -46.2931  -27.6455    6.8655 H         1 UNK         0.0791 
    156 H156      -45.9887  -26.7309    5.3878 H         1 UNK         0.0791 
    157 H157      -48.4467  -27.7477    5.6746 H         1 UNK         0.3028 
@<TRIPOS>BOND
     1    1    2 1    
     2    1   82 1    
     3    1   83 1    
     4    1   84 1    
     5    2    3 2    
     6    2    4 am   BACKBONE|DICT|INTERRES
     7    4    5 1    
     8    4   85 1    
     9    5    6 1    
    10    5   80 1    
    11    5   86 1    
    12    6    7 1    
    13    6   87 1    
    14    6   88 1    
    15    7    8 1    
    16    8    9 1    
    17    8   89 1    
    18    8   90 1    
    19    9   10 ar   
    20    9   14 ar   
    21   10   11 ar   
    22   10   91 1    
    23   11   12 ar   
    24   11   58 1    
    25   12   13 ar   
    26   12   92 1    
    27   13   14 ar   
    28   13   15 1    
    29   14   93 1    
    30   15   16 1    
    31   15   94 1    
    32   15   95 1    
    33   16   17 1    
    34   17   18 1    
    35   17   96 1    
    36   17   97 1    
    37   18   19 1    
    38   18   22 1    
    39   18   98 1    
    40   19   20 am   BACKBONE|DICT|INTERRES
    41   19   21 2    
    42   20   99 1    
    43   20  100 1    
    44   22   23 am   BACKBONE|DICT|INTERRES
    45   22  101 1    
    46   23   24 2    
    47   23   25 1    
    48   25   26 1    
    49   25   27 1    
    50   25  102 1    
    51   26  103 1    
    52   26  104 1    
    53   26  105 1    
    54   27   28 am   BACKBONE|DICT|INTERRES
    55   27  106 1    
    56   28   29 2    
    57   28   30 1    
    58   30   31 1    
    59   30   32 1    
    60   30  107 1    
    61   31  108 1    
    62   31  109 1    
    63   31  110 1    
    64   32   33 am   BACKBONE|DICT|INTERRES
    65   32  111 1    
    66   33   34 2    
    67   33   35 1    
    68   35   36 1    
    69   35   37 1    
    70   35  112 1    
    71   36  113 1    
    72   36  114 1    
    73   36  115 1    
    74   37   38 am   BACKBONE|DICT|INTERRES
    75   37  116 1    
    76   38   39 2    
    77   38   40 1    
    78   40   41 1    
    79   40   42 1    
    80   40  117 1    
    81   41  118 1    
    82   41  119 1    
    83   41  120 1    
    84   42   43 am   BACKBONE|DICT|INTERRES
    85   42  121 1    
    86   43   44 2    
    87   43   45 1    
    88   45   46 1    
    89   45   47 1    
    90   45  122 1    
    91   46  123 1    
    92   46  124 1    
    93   46  125 1    
    94   47   48 am   BACKBONE|DICT|INTERRES
    95   47  126 1    
    96   48   49 2    
    97   48   50 1    
    98   50   51 1    
    99   50   52 1    
   100   50  127 1    
   101   51  128 1    
   102   51  129 1    
   103   51  130 1    
   104   52   53 am   BACKBONE|DICT|INTERRES
   105   52  131 1    
   106   53   54 2    
   107   53   55 1    
   108   55   56 1    
   109   55   59 1    
   110   55  132 1    
   111   56   57 1    
   112   56  133 1    
   113   56  134 1    
   114   57   58 1    
   115   58  135 1    
   116   58  136 1    
   117   59   60 am   BACKBONE|DICT|INTERRES
   118   59  137 1    
   119   60   61 2    
   120   60   62 1    
   121   62   63 1    
   122   62   64 1    
   123   62  138 1    
   124   63  139 1    
   125   63  140 1    
   126   63  141 1    
   127   64   65 am   BACKBONE|DICT|INTERRES
   128   64  142 1    
   129   65   66 2    
   130   65   67 1    
   131   67   68 1    
   132   67   69 1    
   133   67  143 1    
   134   68  144 1    
   135   68  145 1    
   136   68  146 1    
   137   69   70 am   BACKBONE|DICT|INTERRES
   138   69  147 1    
   139   70   71 2    
   140   70   72 1    
   141   72   73 1    
   142   72   74 1    
   143   72  148 1    
   144   73  149 1    
   145   73  150 1    
   146   73  151 1    
   147   74   75 am   BACKBONE|DICT|INTERRES
   148   74  152 1    
   149   75   76 2    
   150   75   77 1    
   151   77   78 1    
   152   77   79 1    
   153   77  153 1    
   154   78  154 1    
   155   78  155 1    
   156   78  156 1    
   157   79   80 am   BACKBONE|DICT|INTERRES
   158   79  157 1    
   159   80   81 2    
@<TRIPOS>SUBSTRUCTURE
     1 UNK         1 GROUP             0       ****    0 ROOT    
