@<TRIPOS>MOLECULE
3R207
157   159    1
SMALL
USER_CHARGES


@<TRIPOS>ATOM
      1 CA        -50.1743  -28.4506   10.8893 C.3       0 UNK        -0.1975 
      2 C         -49.5068  -29.2443    9.7825 C.2       0 UNK         0.4852 
      3 O         -48.8709  -30.2650   10.0473 O.2       0 UNK        -0.5216 
      4 N         -49.6308  -28.7609    8.5430 N.am      1 UNK        -0.4461 
      5 CA        -48.9583  -29.2981    7.3587 C.3       1 UNK         0.0864 
      6 C6        -49.7254  -28.9882    6.0464 C.3       14 UNK        -0.0898 
      7 S7        -50.2688  -27.2525    5.8626 S.3       14 UNK        -0.2598 
      8 C8        -52.0788  -27.4277    5.7369 C.3       14 UNK         0.0286 
      9 C9        -52.7724  -27.5303    7.0918 C.ar      14 UNK        -0.0844 
     10 C10       -53.3781  -26.4016    7.6546 C.ar      14 UNK        -0.0881 
     11 C11       -54.1002  -26.4968    8.8508 C.ar      14 UNK        -0.0643 
     12 C12       -54.1988  -27.7347    9.4905 C.ar      14 UNK        -0.0930 
     13 C13       -53.6082  -28.8736    8.9365 C.ar      14 UNK        -0.0827 
     14 C14       -52.8916  -28.7641    7.7407 C.ar      14 UNK        -0.1249 
     15 C15       -53.8413  -30.2345    9.5759 C.3       14 UNK         0.0141 
     16 S16       -53.0870  -30.3886   11.2266 S.3       14 UNK        -0.2313 
     17 C17       -54.0957  -31.7598   11.8954 C.3       14 UNK        -0.0915 
     18 CA        -55.1798  -31.3312   12.9316 C.3       13 UNK         0.0968 
     19 C         -54.6667  -31.3325   14.4003 C.2       13 UNK         0.5732 
     20 N         -54.2072  -32.4743   14.8952 N.am      13 UNK        -0.7310 
     21 O         -54.6889  -30.3254   15.1045 O.2       13 UNK        -0.5035 
     22 N         -55.8230  -30.0633   12.5608 N.am      13 UNK        -0.4233 
     23 C         -57.0721  -29.7028   12.8624 C.2       13 UNK         0.4989 
     24 O         -57.8985  -30.4465   13.3948 O.2       13 UNK        -0.4996 
     25 CA        -57.4401  -28.2426   12.5408 C.3       12 UNK         0.0216 
     26 CB        -58.9530  -28.0539   12.3250 C.3       12 UNK        -0.1964 
     27 N         -56.9960  -27.3614   13.6214 N.am      12 UNK        -0.4276 
     28 C         -55.7278  -26.9912   13.8374 C.2       12 UNK         0.5020 
     29 O         -54.7932  -27.2627   13.0764 O.2       12 UNK        -0.5489 
     30 CA        -55.4627  -26.1985   15.1249 C.3       11 UNK         0.0294 
     31 CB        -55.7194  -27.0660   16.3750 C.3       11 UNK        -0.2019 
     32 N         -54.0759  -25.7477   15.1063 N.am      11 UNK        -0.4493 
     33 C         -53.5212  -24.8266   15.9032 C.2       11 UNK         0.4932 
     34 O         -54.1504  -24.1901   16.7502 O.2       11 UNK        -0.5029 
     35 CA        -52.0124  -24.5700   15.7105 C.3       10 UNK         0.0280 
     36 CB        -51.3386  -23.9268   16.9407 C.3       10 UNK        -0.1976 
     37 N         -51.2846  -25.7650   15.2690 N.am      10 UNK        -0.4242 
     38 C         -51.1136  -26.9221   15.9282 C.2       10 UNK         0.5072 
     39 O         -51.4899  -27.1244   17.0831 O.2       10 UNK        -0.5224 
     40 CA        -50.4171  -28.0574   15.1611 C.3       9 UNK         0.0343 
     41 CB        -51.4551  -28.8521   14.3519 C.3       9 UNK        -0.2003 
     42 N         -49.3760  -27.5439   14.2641 N.am      9 UNK        -0.4272 
     43 C         -48.0578  -27.7109   14.4464 C.2       9 UNK         0.4988 
     44 O         -47.5737  -28.4241   15.3265 O.2       9 UNK        -0.5108 
     45 CA        -47.0998  -26.9423   13.5109 C.3       8 UNK         0.0248 
     46 CB        -46.5607  -27.8512   12.3966 C.3       8 UNK        -0.2001 
     47 N         -47.6776  -25.7242   12.9298 N.am      8 UNK        -0.4140 
     48 C         -48.0108  -24.6463   13.6554 C.2       8 UNK         0.5028 
     49 O         -47.7780  -24.5412   14.8601 O.2       8 UNK        -0.5428 
     50 CA        -48.7515  -23.4949   12.9526 C.3       7 UNK         0.0264 
     51 CB        -47.7710  -22.3725   12.5894 C.3       7 UNK        -0.1988 
     52 N         -49.5505  -23.8397   11.7689 N.am      7 UNK        -0.4454 
     53 C         -50.5234  -24.7638   11.7124 C.2       7 UNK         0.5027 
     54 O         -50.7361  -25.5859   12.6032 O.2       7 UNK        -0.5083 
     55 CA        -51.4505  -24.7518   10.4827 C.3       6 UNK         0.0844 
     56 C56       -52.7771  -24.0407   10.8519 C.3       14 UNK        -0.0967 
     57 S57       -53.8861  -23.7591    9.4318 S.3       14 UNK        -0.2604 
     58 C58       -54.8579  -25.2982    9.4146 C.3       14 UNK         0.0134 
     59 N         -50.8074  -24.1653    9.3088 N.am      6 UNK        -0.4116 
     60 C         -49.8386  -24.7447    8.5933 C.2       5 UNK         0.5034 
     61 O         -49.3807  -25.8596    8.8390 O.2       5 UNK        -0.5045 
     62 CA        -49.2996  -23.9450    7.3951 C.3       5 UNK         0.0224 
     63 CB        -50.4022  -23.1605    6.6513 C.3       5 UNK        -0.1978 
     64 N         -48.1821  -23.0609    7.7448 N.am      5 UNK        -0.4737 
     65 C         -48.1246  -22.1034    8.6813 C.2       4 UNK         0.5027 
     66 O         -49.0415  -21.8360    9.4602 O.2       4 UNK        -0.5211 
     67 CA        -46.7859  -21.3435    8.7727 C.3       4 UNK         0.0297 
     68 CB        -46.8702  -20.0730    9.6383 C.3       4 UNK        -0.1993 
     69 N         -45.7296  -22.2169    9.2887 N.am      4 UNK        -0.4486 
     70 C         -45.1117  -23.1631    8.5717 C.2       3 UNK         0.4961 
     71 O         -45.2814  -23.3059    7.3576 O.2       3 UNK        -0.5105 
     72 CA        -44.1707  -24.1343    9.3114 C.3       3 UNK         0.0299 
     73 CB        -44.2084  -24.0255   10.8551 C.3       3 UNK        -0.1972 
     74 N         -44.4219  -25.5099    8.8656 N.am      3 UNK        -0.4305 
     75 C         -45.5607  -26.2027    9.0151 C.2       2 UNK         0.5006 
     76 O         -46.5152  -25.8367    9.7051 O.2       2 UNK        -0.5106 
     77 CA        -45.6267  -27.5412    8.2732 C.3       2 UNK         0.0296 
     78 CB        -44.8393  -28.6302    9.0306 C.3       2 UNK        -0.2002 
     79 N         -47.0231  -27.9404    8.1112 N.am      2 UNK        -0.4032 
     80 C         -47.4657  -28.9012    7.2872 C.2       1 UNK         0.5000 
     81 O         -46.7317  -29.5047    6.5009 O.2       1 UNK        -0.5238 
     82 H82       -51.1705  -28.1243   10.5923 H         1 UNK         0.0889 
     83 H83       -49.5798  -27.5716   11.1291 H         1 UNK         0.0889 
     84 H84       -50.2680  -29.0604   11.7851 H         1 UNK         0.0889 
     85 H85       -50.1089  -27.8780    8.3987 H         1 UNK         0.3028 
     86 H86       -48.9527  -30.3859    7.4580 H         1 UNK         0.0864 
     87 H87       -49.1254  -29.2516    5.1733 H         1 UNK         0.0720 
     88 H88       -50.5954  -29.6412    5.9875 H         1 UNK         0.0720 
     89 H89       -52.3280  -28.2930    5.1210 H         1 UNK         0.0814 
     90 H90       -52.4637  -26.5635    5.1933 H         1 UNK         0.0814 
     91 H91       -53.3182  -25.4511    7.1428 H         1 UNK         0.1469 
     92 H92       -54.7699  -27.8225   10.4040 H         1 UNK         0.1381 
     93 H93       -52.4598  -29.6490    7.2958 H         1 UNK         0.1206 
     94 H94       -53.4604  -31.0353    8.9403 H         1 UNK         0.0813 
     95 H95       -54.9187  -30.3896    9.6508 H         1 UNK         0.0813 
     96 H96       -53.4165  -32.5079   12.3068 H         1 UNK         0.0638 
     97 H97       -54.5875  -32.2666   11.0641 H         1 UNK         0.0638 
     98 H98       -55.9540  -32.1006   12.9088 H         1 UNK         0.0568 
     99 H99       -53.8760  -32.4927   15.8467 H         1 UNK         0.3450 
    100 H100      -54.1899  -33.3166   14.3422 H         1 UNK         0.3450 
    101 H101      -55.1843  -29.3393   12.2560 H         1 UNK         0.2987 
    102 H102      -56.9348  -27.9561   11.6158 H         1 UNK         0.0766 
    103 H103      -59.1865  -27.0296   12.0335 H         1 UNK         0.0798 
    104 H104      -59.5263  -28.2852   13.2238 H         1 UNK         0.0798 
    105 H105      -59.3164  -28.7065   11.5300 H         1 UNK         0.0798 
    106 H106      -57.6936  -27.1140   14.3086 H         1 UNK         0.3198 
    107 H107      -56.1196  -25.3263   15.1338 H         1 UNK         0.0843 
    108 H108      -56.7435  -27.4389   16.4035 H         1 UNK         0.0831 
    109 H109      -55.5624  -26.5020   17.2943 H         1 UNK         0.0831 
    110 H110      -55.0562  -27.9317   16.4006 H         1 UNK         0.0831 
    111 H111      -53.5200  -26.2024   14.3907 H         1 UNK         0.3133 
    112 H112      -51.9344  -23.8575   14.8881 H         1 UNK         0.0566 
    113 H113      -50.2752  -23.7600   16.7668 H         1 UNK         0.0814 
    114 H114      -51.7852  -22.9585   17.1694 H         1 UNK         0.0814 
    115 H115      -51.4404  -24.5486   17.8304 H         1 UNK         0.0814 
    116 H116      -50.9853  -25.7314   14.2952 H         1 UNK         0.3091 
    117 H117      -49.9851  -28.7314   15.9036 H         1 UNK         0.0702 
    118 H118      -51.0140  -29.7439   13.9077 H         1 UNK         0.0785 
    119 H119      -51.8973  -28.2558   13.5522 H         1 UNK         0.0785 
    120 H120      -52.2711  -29.1869   14.9929 H         1 UNK         0.0785 
    121 H121      -49.6856  -26.9189   13.5269 H         1 UNK         0.2998 
    122 H122      -46.2472  -26.6386   14.1223 H         1 UNK         0.0697 
    123 H123      -47.3277  -28.1113   11.6687 H         1 UNK         0.0825 
    124 H124      -46.1679  -28.7837   12.8042 H         1 UNK         0.0825 
    125 H125      -45.7429  -27.3657   11.8650 H         1 UNK         0.0825 
    126 H126      -47.8525  -25.7186   11.9331 H         1 UNK         0.3029 
    127 H127      -49.4525  -23.0957   13.6888 H         1 UNK         0.0897 
    128 H128      -48.3061  -21.4772   12.2736 H         1 UNK         0.0792 
    129 H129      -47.1519  -22.0931   13.4433 H         1 UNK         0.0792 
    130 H130      -47.1041  -22.6743   11.7831 H         1 UNK         0.0792 
    131 H131      -49.4452  -23.2217   10.9695 H         1 UNK         0.3086 
    132 H132      -51.6825  -25.7910   10.2441 H         1 UNK         0.0583 
    133 H133      -53.3111  -24.6094   11.6167 H         1 UNK         0.1020 
    134 H134      -52.5771  -23.0623   11.2942 H         1 UNK         0.1020 
    135 H135      -55.2205  -25.5031   10.4236 H         1 UNK         0.0694 
    136 H136      -55.7437  -25.1376    8.7991 H         1 UNK         0.0694 
    137 H137      -51.1017  -23.2340    9.0526 H         1 UNK         0.2989 
    138 H138      -48.8972  -24.6830    6.6993 H         1 UNK         0.1055 
    139 H139      -51.2479  -23.8071    6.4117 H         1 UNK         0.0806 
    140 H140      -50.0274  -22.7625    5.7084 H         1 UNK         0.0806 
    141 H141      -50.7822  -22.3203    7.2332 H         1 UNK         0.0806 
    142 H142      -47.3149  -23.2426    7.2479 H         1 UNK         0.3061 
    143 H143      -46.5238  -21.0261    7.7608 H         1 UNK         0.0734 
    144 H144      -47.6652  -19.4146    9.2856 H         1 UNK         0.0832 
    145 H145      -47.0761  -20.2986   10.6832 H         1 UNK         0.0832 
    146 H146      -45.9405  -19.5055    9.5974 H         1 UNK         0.0832 
    147 H147      -45.5478  -22.1740   10.2802 H         1 UNK         0.3156 
    148 H148      -43.1594  -23.8849    8.9871 H         1 UNK         0.0589 
    149 H149      -45.2047  -24.2007   11.2620 H         1 UNK         0.0808 
    150 H150      -43.5396  -24.7552   11.3114 H         1 UNK         0.0808 
    151 H151      -43.8778  -23.0425   11.1922 H         1 UNK         0.0808 
    152 H152      -43.7070  -25.9023    8.2687 H         1 UNK         0.3098 
    153 H153      -45.1905  -27.3984    7.2823 H         1 UNK         0.0720 
    154 H154      -44.7663  -29.5478    8.4469 H         1 UNK         0.0791 
    155 H155      -45.3121  -28.8809    9.9800 H         1 UNK         0.0791 
    156 H156      -43.8196  -28.3090    9.2464 H         1 UNK         0.0791 
    157 H157      -47.6851  -27.4126    8.6733 H         1 UNK         0.3028 
@<TRIPOS>BOND
     1    1    2 1    
     2    1   82 1    
     3    1   83 1    
     4    1   84 1    
     5    2    3 2    
     6    2    4 am   BACKBONE|DICT|INTERRES
     7    4    5 1    
     8    4   85 1    
     9    5    6 1    
    10    5   80 1    
    11    5   86 1    
    12    6    7 1    
    13    6   87 1    
    14    6   88 1    
    15    7    8 1    
    16    8    9 1    
    17    8   89 1    
    18    8   90 1    
    19    9   10 ar   
    20    9   14 ar   
    21   10   11 ar   
    22   10   91 1    
    23   11   12 ar   
    24   11   58 1    
    25   12   13 ar   
    26   12   92 1    
    27   13   14 ar   
    28   13   15 1    
    29   14   93 1    
    30   15   16 1    
    31   15   94 1    
    32   15   95 1    
    33   16   17 1    
    34   17   18 1    
    35   17   96 1    
    36   17   97 1    
    37   18   19 1    
    38   18   22 1    
    39   18   98 1    
    40   19   20 am   BACKBONE|DICT|INTERRES
    41   19   21 2    
    42   20   99 1    
    43   20  100 1    
    44   22   23 am   BACKBONE|DICT|INTERRES
    45   22  101 1    
    46   23   24 2    
    47   23   25 1    
    48   25   26 1    
    49   25   27 1    
    50   25  102 1    
    51   26  103 1    
    52   26  104 1    
    53   26  105 1    
    54   27   28 am   BACKBONE|DICT|INTERRES
    55   27  106 1    
    56   28   29 2    
    57   28   30 1    
    58   30   31 1    
    59   30   32 1    
    60   30  107 1    
    61   31  108 1    
    62   31  109 1    
    63   31  110 1    
    64   32   33 am   BACKBONE|DICT|INTERRES
    65   32  111 1    
    66   33   34 2    
    67   33   35 1    
    68   35   36 1    
    69   35   37 1    
    70   35  112 1    
    71   36  113 1    
    72   36  114 1    
    73   36  115 1    
    74   37   38 am   BACKBONE|DICT|INTERRES
    75   37  116 1    
    76   38   39 2    
    77   38   40 1    
    78   40   41 1    
    79   40   42 1    
    80   40  117 1    
    81   41  118 1    
    82   41  119 1    
    83   41  120 1    
    84   42   43 am   BACKBONE|DICT|INTERRES
    85   42  121 1    
    86   43   44 2    
    87   43   45 1    
    88   45   46 1    
    89   45   47 1    
    90   45  122 1    
    91   46  123 1    
    92   46  124 1    
    93   46  125 1    
    94   47   48 am   BACKBONE|DICT|INTERRES
    95   47  126 1    
    96   48   49 2    
    97   48   50 1    
    98   50   51 1    
    99   50   52 1    
   100   50  127 1    
   101   51  128 1    
   102   51  129 1    
   103   51  130 1    
   104   52   53 am   BACKBONE|DICT|INTERRES
   105   52  131 1    
   106   53   54 2    
   107   53   55 1    
   108   55   56 1    
   109   55   59 1    
   110   55  132 1    
   111   56   57 1    
   112   56  133 1    
   113   56  134 1    
   114   57   58 1    
   115   58  135 1    
   116   58  136 1    
   117   59   60 am   BACKBONE|DICT|INTERRES
   118   59  137 1    
   119   60   61 2    
   120   60   62 1    
   121   62   63 1    
   122   62   64 1    
   123   62  138 1    
   124   63  139 1    
   125   63  140 1    
   126   63  141 1    
   127   64   65 am   BACKBONE|DICT|INTERRES
   128   64  142 1    
   129   65   66 2    
   130   65   67 1    
   131   67   68 1    
   132   67   69 1    
   133   67  143 1    
   134   68  144 1    
   135   68  145 1    
   136   68  146 1    
   137   69   70 am   BACKBONE|DICT|INTERRES
   138   69  147 1    
   139   70   71 2    
   140   70   72 1    
   141   72   73 1    
   142   72   74 1    
   143   72  148 1    
   144   73  149 1    
   145   73  150 1    
   146   73  151 1    
   147   74   75 am   BACKBONE|DICT|INTERRES
   148   74  152 1    
   149   75   76 2    
   150   75   77 1    
   151   77   78 1    
   152   77   79 1    
   153   77  153 1    
   154   78  154 1    
   155   78  155 1    
   156   78  156 1    
   157   79   80 am   BACKBONE|DICT|INTERRES
   158   79  157 1    
   159   80   81 2    
@<TRIPOS>SUBSTRUCTURE
     1 UNK         1 GROUP             0       ****    0 ROOT    
