@<TRIPOS>MOLECULE
3R207
157   159    1
SMALL
USER_CHARGES


@<TRIPOS>ATOM
      1 CA        -49.4823  -26.4447    3.9654 C.3       0 UNK        -0.1975 
      2 C         -49.6364  -27.9359    4.2564 C.2       0 UNK         0.4852 
      3 O         -48.7637  -28.7159    3.8784 O.2       0 UNK        -0.5216 
      4 N         -50.7238  -28.3869    4.8986 N.am      1 UNK        -0.4461 
      5 CA        -51.8134  -27.5876    5.4745 C.3       1 UNK         0.0864 
      6 C6        -53.1374  -28.4160    5.5353 C.3       14 UNK        -0.0898 
      7 S7        -53.6258  -29.1434    7.1389 S.3       14 UNK        -0.2598 
      8 C8        -52.5764  -30.6248    7.2173 C.3       14 UNK         0.0286 
      9 C9        -52.2350  -30.9348    8.6641 C.ar      14 UNK        -0.0844 
     10 C10       -51.0056  -30.5374    9.1991 C.ar      14 UNK        -0.0881 
     11 C11       -50.7018  -30.7756   10.5466 C.ar      14 UNK        -0.0643 
     12 C12       -51.6555  -31.4063   11.3523 C.ar      14 UNK        -0.0930 
     13 C13       -52.8899  -31.8027   10.8290 C.ar      14 UNK        -0.0827 
     14 C14       -53.1636  -31.5871    9.4774 C.ar      14 UNK        -0.1249 
     15 C15       -53.9297  -32.4520   11.7281 C.3       14 UNK         0.0141 
     16 S16       -55.1038  -31.2198   12.3781 S.3       14 UNK        -0.2313 
     17 C17       -56.3401  -31.1044   11.0356 C.3       14 UNK        -0.0915 
     18 CA        -56.2312  -29.8185   10.1703 C.3       13 UNK         0.0968 
     19 C         -57.3478  -29.8072    9.0906 C.2       13 UNK         0.5732 
     20 N         -57.0045  -30.0427    7.8317 N.am      13 UNK        -0.7310 
     21 O         -58.5256  -29.6310    9.3976 O.2       13 UNK        -0.5035 
     22 N         -56.2068  -28.6135   11.0085 N.am      13 UNK        -0.4233 
     23 C         -56.1624  -27.3409   10.5905 C.2       13 UNK         0.4989 
     24 O         -56.2251  -26.9847    9.4139 O.2       13 UNK        -0.4996 
     25 CA        -55.9854  -26.2729   11.6854 C.3       12 UNK         0.0216 
     26 CB        -57.3523  -25.7833   12.1906 C.3       12 UNK        -0.1964 
     27 N         -55.1803  -26.7359   12.8216 N.am      12 UNK        -0.4276 
     28 C         -53.8832  -27.0656   12.7520 C.2       12 UNK         0.5020 
     29 O         -53.1970  -26.9583   11.7344 O.2       12 UNK        -0.5489 
     30 CA        -53.2415  -27.5547   14.0559 C.3       11 UNK         0.0294 
     31 CB        -52.1899  -28.6508   13.8084 C.3       11 UNK        -0.2019 
     32 N         -52.6048  -26.4181   14.7086 N.am      11 UNK        -0.4493 
     33 C         -53.2141  -25.5698   15.5460 C.2       11 UNK         0.4932 
     34 O         -54.3865  -25.6967   15.9052 O.2       11 UNK        -0.5029 
     35 CA        -52.3729  -24.3796   16.0515 C.3       10 UNK         0.0280 
     36 CB        -52.9621  -23.7105   17.3114 C.3       10 UNK        -0.1976 
     37 N         -50.9579  -24.7210   16.2429 N.am      10 UNK        -0.4242 
     38 C         -50.4422  -25.6280   17.0886 C.2       10 UNK         0.5072 
     39 O         -51.1099  -26.2526   17.9143 O.2       10 UNK        -0.5224 
     40 CA        -48.9318  -25.9249   16.9904 C.3       9 UNK         0.0343 
     41 CB        -48.7088  -27.3514   16.4590 C.3       9 UNK        -0.2003 
     42 N         -48.1925  -24.9864   16.1416 N.am      9 UNK        -0.4272 
     43 C         -47.8684  -23.7312   16.4818 C.2       9 UNK         0.4988 
     44 O         -48.0935  -23.2417   17.5889 O.2       9 UNK        -0.5108 
     45 CA        -47.2199  -22.8613   15.3885 C.3       8 UNK         0.0248 
     46 CB        -45.7025  -23.0972   15.3351 C.3       8 UNK        -0.2001 
     47 N         -47.8019  -23.0716   14.0573 N.am      8 UNK        -0.4140 
     48 C         -49.0865  -22.8445   13.7425 C.2       8 UNK         0.5028 
     49 O         -49.9195  -22.4056   14.5348 O.2       8 UNK        -0.5428 
     50 CA        -49.5368  -23.2234   12.3233 C.3       7 UNK         0.0264 
     51 CB        -49.1336  -22.1389   11.3130 C.3       7 UNK        -0.1988 
     52 N         -49.0216  -24.5318   11.9109 N.am      7 UNK        -0.4454 
     53 C         -49.3848  -25.6907   12.4826 C.2       7 UNK         0.5027 
     54 O         -50.2327  -25.7748   13.3701 O.2       7 UNK        -0.5083 
     55 CA        -48.6254  -26.9567   12.0473 C.3       6 UNK         0.0844 
     56 C56       -49.2725  -27.6056   10.7997 C.3       14 UNK        -0.0967 
     57 S57       -48.3969  -29.1227   10.2909 S.3       14 UNK        -0.2604 
     58 C58       -49.3518  -30.4087   11.1669 C.3       14 UNK         0.0134 
     59 N         -47.1965  -26.6759   11.8784 N.am      6 UNK        -0.4116 
     60 C         -46.3584  -26.4224   12.8935 C.2       5 UNK         0.5034 
     61 O         -46.7021  -26.4062   14.0744 O.2       5 UNK        -0.5045 
     62 CA        -44.8985  -26.0927   12.5411 C.3       5 UNK         0.0224 
     63 CB        -44.0619  -27.3795   12.4647 C.3       5 UNK        -0.1978 
     64 N         -44.7487  -25.3385   11.2948 N.am      5 UNK        -0.4737 
     65 C         -45.2733  -24.1288   11.0578 C.2       4 UNK         0.5027 
     66 O         -45.9444  -23.5057   11.8819 O.2       4 UNK        -0.5211 
     67 CA        -45.0466  -23.5208    9.6588 C.3       4 UNK         0.0297 
     68 CB        -44.0887  -24.3394    8.7626 C.3       4 UNK        -0.1993 
     69 N         -46.3062  -23.2763    8.9445 N.am      4 UNK        -0.4486 
     70 C         -47.2906  -24.1579    8.7194 C.2       3 UNK         0.4961 
     71 O         -47.3024  -25.3143    9.1499 O.2       3 UNK        -0.5105 
     72 CA        -48.4519  -23.6598    7.8525 C.3       3 UNK         0.0299 
     73 CB        -48.0693  -23.6994    6.3635 C.3       3 UNK        -0.1972 
     74 N         -49.6130  -24.5180    8.0707 N.am      3 UNK        -0.4305 
     75 C         -50.8693  -24.1056    8.2625 C.2       2 UNK         0.5006 
     76 O         -51.2184  -22.9248    8.2147 O.2       2 UNK        -0.5106 
     77 CA        -51.9131  -25.2088    8.5148 C.3       2 UNK         0.0296 
     78 CB        -53.2440  -24.6513    9.0500 C.3       2 UNK        -0.2002 
     79 N         -52.1729  -25.9699    7.2911 N.am      2 UNK        -0.4032 
     80 C         -51.3767  -26.9331    6.8094 C.2       1 UNK         0.5000 
     81 O         -50.3358  -27.2915    7.3687 O.2       1 UNK        -0.5238 
     82 H82       -50.2340  -26.1135    3.2495 H         1 UNK         0.0889 
     83 H83       -48.5017  -26.2391    3.5366 H         1 UNK         0.0889 
     84 H84       -49.5735  -25.8500    4.8722 H         1 UNK         0.0889 
     85 H85       -50.7739  -29.3751    5.0932 H         1 UNK         0.3028 
     86 H86       -52.0018  -26.7650    4.7819 H         1 UNK         0.0864 
     87 H87       -53.9620  -27.7587    5.2548 H         1 UNK         0.0720 
     88 H88       -53.1462  -29.2002    4.7759 H         1 UNK         0.0720 
     89 H89       -51.6619  -30.4719    6.6441 H         1 UNK         0.0814 
     90 H90       -53.0952  -31.4673    6.7577 H         1 UNK         0.0814 
     91 H91       -50.2926  -30.0368    8.5588 H         1 UNK         0.1469 
     92 H92       -51.4367  -31.5881   12.3958 H         1 UNK         0.1381 
     93 H93       -54.1151  -31.8930    9.0653 H         1 UNK         0.1206 
     94 H94       -53.4377  -32.9393   12.5711 H         1 UNK         0.0813 
     95 H95       -54.4599  -33.2422   11.1946 H         1 UNK         0.0813 
     96 H96       -56.2685  -31.9910   10.4035 H         1 UNK         0.0638 
     97 H97       -57.3242  -31.1560   11.5055 H         1 UNK         0.0638 
     98 H98       -55.2690  -29.8337    9.6592 H         1 UNK         0.0568 
     99 H99       -56.0359  -30.1461    7.5699 H         1 UNK         0.3450 
    100 H100      -57.7205  -30.0533    7.1228 H         1 UNK         0.3450 
    101 H101      -56.1464  -28.7878   11.9996 H         1 UNK         0.2987 
    102 H102      -55.4650  -25.4245   11.2362 H         1 UNK         0.0766 
    103 H103      -57.2429  -24.9676   12.9058 H         1 UNK         0.0798 
    104 H104      -57.9162  -26.5822   12.6739 H         1 UNK         0.0798 
    105 H105      -57.9604  -25.4089   11.3657 H         1 UNK         0.0798 
    106 H106      -55.6429  -26.7910   13.7190 H         1 UNK         0.3198 
    107 H107      -54.0144  -27.9743   14.7040 H         1 UNK         0.0843 
    108 H108      -51.3773  -28.3022   13.1712 H         1 UNK         0.0831 
    109 H109      -52.6429  -29.5112   13.3159 H         1 UNK         0.0831 
    110 H110      -51.7541  -29.0012   14.7439 H         1 UNK         0.0831 
    111 H111      -51.6716  -26.1827   14.3708 H         1 UNK         0.3133 
    112 H112      -52.3929  -23.6399   15.2501 H         1 UNK         0.0566 
    113 H113      -52.3499  -22.8688   17.6355 H         1 UNK         0.0814 
    114 H114      -53.9637  -23.3254   17.1166 H         1 UNK         0.0814 
    115 H115      -53.0408  -24.4099   18.1442 H         1 UNK         0.0814 
    116 H116      -50.3213  -24.2520   15.6091 H         1 UNK         0.3091 
    117 H117      -48.5232  -25.8692   18.0014 H         1 UNK         0.0702 
    118 H118      -49.2094  -28.0890   17.0877 H         1 UNK         0.0785 
    119 H119      -49.0981  -27.4675   15.4466 H         1 UNK         0.0785 
    120 H120      -47.6494  -27.6076   16.4420 H         1 UNK         0.0785 
    121 H121      -47.8910  -25.3396   15.2380 H         1 UNK         0.2998 
    122 H122      -47.3912  -21.8162   15.6546 H         1 UNK         0.0697 
    123 H123      -45.4642  -24.1338   15.0985 H         1 UNK         0.0825 
    124 H124      -45.2394  -22.8689   16.2959 H         1 UNK         0.0825 
    125 H125      -45.2266  -22.4639   14.5861 H         1 UNK         0.0825 
    126 H126      -47.1695  -23.3799   13.3215 H         1 UNK         0.3029 
    127 H127      -50.6277  -23.2835   12.3321 H         1 UNK         0.0897 
    128 H128      -49.5751  -22.3272   10.3367 H         1 UNK         0.0792 
    129 H129      -48.0529  -22.0701   11.1906 H         1 UNK         0.0792 
    130 H130      -49.4860  -21.1580   11.6353 H         1 UNK         0.0792 
    131 H131      -48.2741  -24.5445   11.2297 H         1 UNK         0.3086 
    132 H132      -48.7185  -27.6740   12.8659 H         1 UNK         0.0583 
    133 H133      -50.3248  -27.8378   10.9793 H         1 UNK         0.1020 
    134 H134      -49.2600  -26.9167    9.9546 H         1 UNK         0.1020 
    135 H135      -48.7432  -31.3130   11.2027 H         1 UNK         0.0694 
    136 H136      -49.4908  -30.0918   12.2019 H         1 UNK         0.0694 
    137 H137      -46.8581  -26.6175   10.9257 H         1 UNK         0.2989 
    138 H138      -44.5004  -25.4747   13.3482 H         1 UNK         0.1055 
    139 H139      -43.0058  -27.1589   12.3086 H         1 UNK         0.0806 
    140 H140      -44.3939  -28.0309   11.6550 H         1 UNK         0.0806 
    141 H141      -44.1378  -27.9489   13.3924 H         1 UNK         0.0806 
    142 H142      -44.2305  -25.7849   10.5517 H         1 UNK         0.3061 
    143 H143      -44.5890  -22.5449    9.8277 H         1 UNK         0.0734 
    144 H144      -43.9047  -23.8244    7.8196 H         1 UNK         0.0832 
    145 H145      -43.1170  -24.4775    9.2391 H         1 UNK         0.0832 
    146 H146      -44.4902  -25.3246    8.5210 H         1 UNK         0.0832 
    147 H147      -46.4160  -22.3410    8.5773 H         1 UNK         0.3156 
    148 H148      -48.6791  -22.6309    8.1380 H         1 UNK         0.0589 
    149 H149      -47.7659  -24.7002    6.0534 H         1 UNK         0.0808 
    150 H150      -48.9015  -23.3885    5.7317 H         1 UNK         0.0808 
    151 H151      -47.2361  -23.0279    6.1530 H         1 UNK         0.0808 
    152 H152      -49.4148  -25.5135    8.1141 H         1 UNK         0.3098 
    153 H153      -51.5136  -25.8822    9.2767 H         1 UNK         0.0720 
    154 H154      -53.9429  -25.4586    9.2666 H         1 UNK         0.0791 
    155 H155      -53.7209  -23.9739    8.3406 H         1 UNK         0.0791 
    156 H156      -53.0897  -24.1021    9.9798 H         1 UNK         0.0791 
    157 H157      -53.0068  -25.7213    6.7789 H         1 UNK         0.3028 
@<TRIPOS>BOND
     1    1    2 1    
     2    1   82 1    
     3    1   83 1    
     4    1   84 1    
     5    2    3 2    
     6    2    4 am   BACKBONE|DICT|INTERRES
     7    4    5 1    
     8    4   85 1    
     9    5    6 1    
    10    5   80 1    
    11    5   86 1    
    12    6    7 1    
    13    6   87 1    
    14    6   88 1    
    15    7    8 1    
    16    8    9 1    
    17    8   89 1    
    18    8   90 1    
    19    9   10 ar   
    20    9   14 ar   
    21   10   11 ar   
    22   10   91 1    
    23   11   12 ar   
    24   11   58 1    
    25   12   13 ar   
    26   12   92 1    
    27   13   14 ar   
    28   13   15 1    
    29   14   93 1    
    30   15   16 1    
    31   15   94 1    
    32   15   95 1    
    33   16   17 1    
    34   17   18 1    
    35   17   96 1    
    36   17   97 1    
    37   18   19 1    
    38   18   22 1    
    39   18   98 1    
    40   19   20 am   BACKBONE|DICT|INTERRES
    41   19   21 2    
    42   20   99 1    
    43   20  100 1    
    44   22   23 am   BACKBONE|DICT|INTERRES
    45   22  101 1    
    46   23   24 2    
    47   23   25 1    
    48   25   26 1    
    49   25   27 1    
    50   25  102 1    
    51   26  103 1    
    52   26  104 1    
    53   26  105 1    
    54   27   28 am   BACKBONE|DICT|INTERRES
    55   27  106 1    
    56   28   29 2    
    57   28   30 1    
    58   30   31 1    
    59   30   32 1    
    60   30  107 1    
    61   31  108 1    
    62   31  109 1    
    63   31  110 1    
    64   32   33 am   BACKBONE|DICT|INTERRES
    65   32  111 1    
    66   33   34 2    
    67   33   35 1    
    68   35   36 1    
    69   35   37 1    
    70   35  112 1    
    71   36  113 1    
    72   36  114 1    
    73   36  115 1    
    74   37   38 am   BACKBONE|DICT|INTERRES
    75   37  116 1    
    76   38   39 2    
    77   38   40 1    
    78   40   41 1    
    79   40   42 1    
    80   40  117 1    
    81   41  118 1    
    82   41  119 1    
    83   41  120 1    
    84   42   43 am   BACKBONE|DICT|INTERRES
    85   42  121 1    
    86   43   44 2    
    87   43   45 1    
    88   45   46 1    
    89   45   47 1    
    90   45  122 1    
    91   46  123 1    
    92   46  124 1    
    93   46  125 1    
    94   47   48 am   BACKBONE|DICT|INTERRES
    95   47  126 1    
    96   48   49 2    
    97   48   50 1    
    98   50   51 1    
    99   50   52 1    
   100   50  127 1    
   101   51  128 1    
   102   51  129 1    
   103   51  130 1    
   104   52   53 am   BACKBONE|DICT|INTERRES
   105   52  131 1    
   106   53   54 2    
   107   53   55 1    
   108   55   56 1    
   109   55   59 1    
   110   55  132 1    
   111   56   57 1    
   112   56  133 1    
   113   56  134 1    
   114   57   58 1    
   115   58  135 1    
   116   58  136 1    
   117   59   60 am   BACKBONE|DICT|INTERRES
   118   59  137 1    
   119   60   61 2    
   120   60   62 1    
   121   62   63 1    
   122   62   64 1    
   123   62  138 1    
   124   63  139 1    
   125   63  140 1    
   126   63  141 1    
   127   64   65 am   BACKBONE|DICT|INTERRES
   128   64  142 1    
   129   65   66 2    
   130   65   67 1    
   131   67   68 1    
   132   67   69 1    
   133   67  143 1    
   134   68  144 1    
   135   68  145 1    
   136   68  146 1    
   137   69   70 am   BACKBONE|DICT|INTERRES
   138   69  147 1    
   139   70   71 2    
   140   70   72 1    
   141   72   73 1    
   142   72   74 1    
   143   72  148 1    
   144   73  149 1    
   145   73  150 1    
   146   73  151 1    
   147   74   75 am   BACKBONE|DICT|INTERRES
   148   74  152 1    
   149   75   76 2    
   150   75   77 1    
   151   77   78 1    
   152   77   79 1    
   153   77  153 1    
   154   78  154 1    
   155   78  155 1    
   156   78  156 1    
   157   79   80 am   BACKBONE|DICT|INTERRES
   158   79  157 1    
   159   80   81 2    
@<TRIPOS>SUBSTRUCTURE
     1 UNK         1 GROUP             0       ****    0 ROOT    
