@<TRIPOS>MOLECULE
3R207
157   159    1
SMALL
USER_CHARGES


@<TRIPOS>ATOM
      1 CA        -46.5694  -30.8058    2.8031 C.3       0 UNK        -0.1975 
      2 C         -47.7622  -29.9032    3.0816 C.2       0 UNK         0.4852 
      3 O         -48.3011  -29.2995    2.1532 O.2       0 UNK        -0.5216 
      4 N         -48.1784  -29.8115    4.3519 N.am      1 UNK        -0.4461 
      5 CA        -49.3066  -28.9939    4.8171 C.3       1 UNK         0.0864 
      6 C6        -49.6525  -29.2852    6.2966 C.3       14 UNK        -0.0898 
      7 S7        -50.2149  -30.9970    6.5717 S.3       14 UNK        -0.2598 
      8 C8        -51.9519  -30.7385    7.0625 C.3       14 UNK         0.0286 
      9 C9        -52.0732  -29.9559    8.3645 C.ar      14 UNK        -0.0844 
     10 C10       -52.6109  -28.6642    8.3682 C.ar      14 UNK        -0.0881 
     11 C11       -52.7239  -27.9430    9.5607 C.ar      14 UNK        -0.0643 
     12 C12       -52.2928  -28.5243   10.7562 C.ar      14 UNK        -0.0930 
     13 C13       -51.7629  -29.8178   10.7668 C.ar      14 UNK        -0.0827 
     14 C14       -51.6555  -30.5284    9.5688 C.ar      14 UNK        -0.1249 
     15 C15       -51.3129  -30.4537   12.0718 C.3       14 UNK         0.0141 
     16 S16       -52.6193  -31.4947   12.8021 S.3       14 UNK        -0.2313 
     17 C17       -53.8330  -30.2511   13.3578 C.3       14 UNK        -0.0915 
     18 CA        -54.9728  -30.0162   12.3283 C.3       13 UNK         0.0968 
     19 C         -56.1071  -31.0700   12.4469 C.2       13 UNK         0.5732 
     20 N         -55.9559  -32.2205   11.8060 N.am      13 UNK        -0.7310 
     21 O         -57.1051  -30.8676   13.1374 O.2       13 UNK        -0.5035 
     22 N         -55.4744  -28.6421   12.4346 N.am      13 UNK        -0.4233 
     23 C         -56.1473  -27.9836   11.4843 C.2       13 UNK         0.4989 
     24 O         -56.3970  -28.4606   10.3766 O.2       13 UNK        -0.4996 
     25 CA        -56.6267  -26.5491   11.8057 C.3       12 UNK         0.0216 
     26 CB        -58.1167  -26.3747   11.4594 C.3       12 UNK        -0.1964 
     27 N         -56.4172  -26.1269   13.1970 N.am      12 UNK        -0.4276 
     28 C         -55.2430  -25.7961   13.7486 C.2       12 UNK         0.5020 
     29 O         -54.1679  -25.8162   13.1456 O.2       12 UNK        -0.5489 
     30 CA        -55.2783  -25.4479   15.2406 C.3       11 UNK         0.0294 
     31 CB        -55.5673  -26.7082   16.0840 C.3       11 UNK        -0.2019 
     32 N         -53.9904  -24.8815   15.6263 N.am      11 UNK        -0.4493 
     33 C         -53.7313  -24.2171   16.7593 C.2       11 UNK         0.4932 
     34 O         -54.5946  -23.9054   17.5820 O.2       11 UNK        -0.5029 
     35 CA        -52.2513  -23.8749   17.0206 C.3       10 UNK         0.0280 
     36 CB        -51.9695  -23.4229   18.4689 C.3       10 UNK        -0.1976 
     37 N         -51.3668  -24.9759   16.6241 N.am      10 UNK        -0.4242 
     38 C         -51.3420  -26.2269   17.1097 C.2       10 UNK         0.5072 
     39 O         -51.9932  -26.6101   18.0824 O.2       10 UNK        -0.5224 
     40 CA        -50.4595  -27.2395   16.3595 C.3       9 UNK         0.0343 
     41 CB        -51.2871  -27.9787   15.2972 C.3       9 UNK        -0.2003 
     42 N         -49.2881  -26.6307   15.7238 N.am      9 UNK        -0.4272 
     43 C         -48.2279  -26.1646   16.3997 C.2       9 UNK         0.4988 
     44 O         -48.0950  -26.2613   17.6205 O.2       9 UNK        -0.5108 
     45 CA        -47.1359  -25.4580   15.5808 C.3       8 UNK         0.0248 
     46 CB        -46.2143  -26.4866   14.9060 C.3       8 UNK        -0.2001 
     47 N         -47.6807  -24.5364   14.5792 N.am      8 UNK        -0.4140 
     48 C         -48.3712  -23.4223   14.8687 C.2       8 UNK         0.5028 
     49 O         -48.5839  -23.0252   16.0144 O.2       8 UNK        -0.5428 
     50 CA        -48.9450  -22.6220   13.6874 C.3       7 UNK         0.0264 
     51 CB        -47.8678  -21.7192   13.0663 C.3       7 UNK        -0.1988 
     52 N         -49.5336  -23.4707   12.6502 N.am      7 UNK        -0.4454 
     53 C         -50.6020  -24.2638   12.8208 C.2       7 UNK         0.5027 
     54 O         -51.2379  -24.3384   13.8714 O.2       7 UNK        -0.5083 
     55 CA        -50.9934  -25.1596   11.6321 C.3       6 UNK         0.0844 
     56 C56       -51.8461  -24.3815   10.5989 C.3       14 UNK        -0.0967 
     57 S57       -52.1430  -25.2858    9.0381 S.3       14 UNK        -0.2604 
     58 C58       -53.3424  -26.5525    9.5535 C.3       14 UNK         0.0134 
     59 N         -49.8158  -25.7914   11.0401 N.am      6 UNK        -0.4116 
     60 C         -49.0342  -26.6930   11.6463 C.2       5 UNK         0.5034 
     61 O         -49.2185  -27.1181   12.7875 O.2       5 UNK        -0.5045 
     62 CA        -47.8074  -27.1546   10.8470 C.3       5 UNK         0.0224 
     63 CB        -48.2099  -28.2258    9.8198 C.3       5 UNK        -0.1978 
     64 N         -47.1466  -26.0326   10.1691 N.am      5 UNK        -0.4737 
     65 C         -46.5072  -25.0440   10.8155 C.2       4 UNK         0.5027 
     66 O         -46.3694  -25.0104   12.0368 O.2       4 UNK        -0.5211 
     67 CA        -45.9695  -23.8694    9.9780 C.3       4 UNK         0.0297 
     68 CB        -44.5468  -24.1721    9.4827 C.3       4 UNK        -0.1993 
     69 N         -46.8199  -23.5297    8.8368 N.am      4 UNK        -0.4486 
     70 C         -48.1098  -23.1721    8.9092 C.2       3 UNK         0.4961 
     71 O         -48.7072  -22.9862    9.9689 O.2       3 UNK        -0.5105 
     72 CA        -48.8812  -23.0434    7.5820 C.3       3 UNK         0.0299 
     73 CB        -49.0474  -21.5632    7.2045 C.3       3 UNK        -0.1972 
     74 N         -48.2945  -23.7722    6.4473 N.am      3 UNK        -0.4305 
     75 C         -48.0584  -25.0914    6.4071 C.2       2 UNK         0.5006 
     76 O         -48.2318  -25.8512    7.3643 O.2       2 UNK        -0.5106 
     77 CA        -47.4636  -25.6394    5.0981 C.3       2 UNK         0.0296 
     78 CB        -45.9315  -25.5092    5.1120 C.3       2 UNK        -0.2002 
     79 N         -47.8193  -27.0466    4.9193 N.am      2 UNK        -0.4032 
     80 C         -49.0589  -27.4816    4.6527 C.2       1 UNK         0.5000 
     81 O         -49.9909  -26.7444    4.3233 O.2       1 UNK        -0.5238 
     82 H82       -46.8487  -31.5899    2.0998 H         1 UNK         0.0889 
     83 H83       -46.1966  -31.2815    3.7101 H         1 UNK         0.0889 
     84 H84       -45.7562  -30.2280    2.3644 H         1 UNK         0.0889 
     85 H85       -47.7179  -30.3600    5.0646 H         1 UNK         0.3028 
     86 H86       -50.1745  -29.2454    4.2035 H         1 UNK         0.0864 
     87 H87       -50.4189  -28.5933    6.6488 H         1 UNK         0.0720 
     88 H88       -48.7847  -29.1106    6.9352 H         1 UNK         0.0720 
     89 H89       -52.4327  -31.7101    7.1845 H         1 UNK         0.0814 
     90 H90       -52.4816  -30.2350    6.2523 H         1 UNK         0.0814 
     91 H91       -52.9432  -28.2145    7.4425 H         1 UNK         0.1469 
     92 H92       -52.3948  -27.9831   11.6853 H         1 UNK         0.1381 
     93 H93       -51.2456  -31.5292    9.5720 H         1 UNK         0.1206 
     94 H94       -50.4317  -31.0712   11.8917 H         1 UNK         0.0813 
     95 H95       -51.0010  -29.6867   12.7798 H         1 UNK         0.0813 
     96 H96       -53.2906  -29.3238   13.5463 H         1 UNK         0.0638 
     97 H97       -54.2315  -30.5536   14.3280 H         1 UNK         0.0638 
     98 H98       -54.5560  -30.1106   11.3240 H         1 UNK         0.0568 
     99 H99       -55.1239  -32.4044   11.2672 H         1 UNK         0.3450 
    100 H100      -56.6743  -32.9234   11.8795 H         1 UNK         0.3450 
    101 H101      -55.3298  -28.1816   13.3186 H         1 UNK         0.2987 
    102 H102      -56.0547  -25.8768   11.1632 H         1 UNK         0.0766 
    103 H103      -58.3069  -26.5995   10.4090 H         1 UNK         0.0798 
    104 H104      -58.4478  -25.3500   11.6297 H         1 UNK         0.0798 
    105 H105      -58.7484  -27.0366   12.0531 H         1 UNK         0.0798 
    106 H106      -57.2428  -26.1024   13.7793 H         1 UNK         0.3198 
    107 H107      -56.0584  -24.7011   15.4030 H         1 UNK         0.0843 
    108 H108      -55.6207  -26.4738   17.1472 H         1 UNK         0.0831 
    109 H109      -54.7923  -27.4646   15.9526 H         1 UNK         0.0831 
    110 H110      -56.5205  -27.1638   15.8140 H         1 UNK         0.0831 
    111 H111      -53.2492  -25.0314   14.9472 H         1 UNK         0.3133 
    112 H112      -52.0082  -23.0404   16.3613 H         1 UNK         0.0566 
    113 H113      -50.9137  -23.1917   18.6112 H         1 UNK         0.0814 
    114 H114      -52.2476  -24.1867   19.1955 H         1 UNK         0.0814 
    115 H115      -52.5345  -22.5225   18.7127 H         1 UNK         0.0814 
    116 H116      -50.8509  -24.8031   15.7670 H         1 UNK         0.3091 
    117 H117      -50.1100  -27.9741   17.0882 H         1 UNK         0.0702 
    118 H118      -50.7050  -28.7820   14.8481 H         1 UNK         0.0785 
    119 H119      -51.6159  -27.3104   14.4994 H         1 UNK         0.0785 
    120 H120      -52.1777  -28.4304   15.7362 H         1 UNK         0.0785 
    121 H121      -49.2916  -26.5753   14.7090 H         1 UNK         0.2998 
    122 H122      -46.5321  -24.8700   16.2752 H         1 UNK         0.0697 
    123 H123      -46.7444  -27.0740   14.1556 H         1 UNK         0.0825 
    124 H124      -45.8032  -27.1837   15.6374 H         1 UNK         0.0825 
    125 H125      -45.3716  -26.0000   14.4146 H         1 UNK         0.0825 
    126 H126      -47.4798  -24.7537   13.6063 H         1 UNK         0.3029 
    127 H127      -49.7406  -21.9834   14.0777 H         1 UNK         0.0897 
    128 H128      -47.0393  -22.3007   12.6618 H         1 UNK         0.0792 
    129 H129      -47.4547  -21.0369   13.8104 H         1 UNK         0.0792 
    130 H130      -48.2758  -21.1114   12.2584 H         1 UNK         0.0792 
    131 H131      -49.1074  -23.4266   11.7259 H         1 UNK         0.3086 
    132 H132      -51.6147  -25.9564   12.0395 H         1 UNK         0.0583 
    133 H133      -52.8078  -24.1071   11.0378 H         1 UNK         0.1020 
    134 H134      -51.3619  -23.4400   10.3322 H         1 UNK         0.1020 
    135 H135      -53.7416  -26.3108   10.5381 H         1 UNK         0.0694 
    136 H136      -54.1925  -26.5350    8.8699 H         1 UNK         0.0694 
    137 H137      -49.5791  -25.4990   10.1031 H         1 UNK         0.2989 
    138 H138      -47.0973  -27.5969   11.5493 H         1 UNK         0.1055 
    139 H139      -48.9456  -27.8486    9.1078 H         1 UNK         0.0806 
    140 H140      -47.3482  -28.5819    9.2554 H         1 UNK         0.0806 
    141 H141      -48.6565  -29.0904   10.3131 H         1 UNK         0.0806 
    142 H142      -47.2790  -25.9631    9.1642 H         1 UNK         0.3061 
    143 H143      -45.9265  -22.9927   10.6268 H         1 UNK         0.0734 
    144 H144      -44.5277  -25.0240    8.8017 H         1 UNK         0.0832 
    145 H145      -44.1148  -23.3158    8.9644 H         1 UNK         0.0832 
    146 H146      -43.8866  -24.4087   10.3185 H         1 UNK         0.0832 
    147 H147      -46.4198  -23.6546    7.9191 H         1 UNK         0.3156 
    148 H148      -49.8743  -23.4635    7.7533 H         1 UNK         0.0589 
    149 H149      -49.6893  -21.4444    6.3314 H         1 UNK         0.0808 
    150 H150      -49.5078  -21.0020    8.0192 H         1 UNK         0.0808 
    151 H151      -48.0884  -21.0918    6.9858 H         1 UNK         0.0808 
    152 H152      -48.0982  -23.2249    5.6210 H         1 UNK         0.3098 
    153 H153      -47.8636  -25.0691    4.2570 H         1 UNK         0.0720 
    154 H154      -45.6259  -24.4659    5.2007 H         1 UNK         0.0791 
    155 H155      -45.4930  -25.8944    4.1911 H         1 UNK         0.0791 
    156 H156      -45.4865  -26.0517    5.9475 H         1 UNK         0.0791 
    157 H157      -47.1292  -27.7267    5.2006 H         1 UNK         0.3028 
@<TRIPOS>BOND
     1    1    2 1    
     2    1   82 1    
     3    1   83 1    
     4    1   84 1    
     5    2    3 2    
     6    2    4 am   BACKBONE|DICT|INTERRES
     7    4    5 1    
     8    4   85 1    
     9    5    6 1    
    10    5   80 1    
    11    5   86 1    
    12    6    7 1    
    13    6   87 1    
    14    6   88 1    
    15    7    8 1    
    16    8    9 1    
    17    8   89 1    
    18    8   90 1    
    19    9   10 ar   
    20    9   14 ar   
    21   10   11 ar   
    22   10   91 1    
    23   11   12 ar   
    24   11   58 1    
    25   12   13 ar   
    26   12   92 1    
    27   13   14 ar   
    28   13   15 1    
    29   14   93 1    
    30   15   16 1    
    31   15   94 1    
    32   15   95 1    
    33   16   17 1    
    34   17   18 1    
    35   17   96 1    
    36   17   97 1    
    37   18   19 1    
    38   18   22 1    
    39   18   98 1    
    40   19   20 am   BACKBONE|DICT|INTERRES
    41   19   21 2    
    42   20   99 1    
    43   20  100 1    
    44   22   23 am   BACKBONE|DICT|INTERRES
    45   22  101 1    
    46   23   24 2    
    47   23   25 1    
    48   25   26 1    
    49   25   27 1    
    50   25  102 1    
    51   26  103 1    
    52   26  104 1    
    53   26  105 1    
    54   27   28 am   BACKBONE|DICT|INTERRES
    55   27  106 1    
    56   28   29 2    
    57   28   30 1    
    58   30   31 1    
    59   30   32 1    
    60   30  107 1    
    61   31  108 1    
    62   31  109 1    
    63   31  110 1    
    64   32   33 am   BACKBONE|DICT|INTERRES
    65   32  111 1    
    66   33   34 2    
    67   33   35 1    
    68   35   36 1    
    69   35   37 1    
    70   35  112 1    
    71   36  113 1    
    72   36  114 1    
    73   36  115 1    
    74   37   38 am   BACKBONE|DICT|INTERRES
    75   37  116 1    
    76   38   39 2    
    77   38   40 1    
    78   40   41 1    
    79   40   42 1    
    80   40  117 1    
    81   41  118 1    
    82   41  119 1    
    83   41  120 1    
    84   42   43 am   BACKBONE|DICT|INTERRES
    85   42  121 1    
    86   43   44 2    
    87   43   45 1    
    88   45   46 1    
    89   45   47 1    
    90   45  122 1    
    91   46  123 1    
    92   46  124 1    
    93   46  125 1    
    94   47   48 am   BACKBONE|DICT|INTERRES
    95   47  126 1    
    96   48   49 2    
    97   48   50 1    
    98   50   51 1    
    99   50   52 1    
   100   50  127 1    
   101   51  128 1    
   102   51  129 1    
   103   51  130 1    
   104   52   53 am   BACKBONE|DICT|INTERRES
   105   52  131 1    
   106   53   54 2    
   107   53   55 1    
   108   55   56 1    
   109   55   59 1    
   110   55  132 1    
   111   56   57 1    
   112   56  133 1    
   113   56  134 1    
   114   57   58 1    
   115   58  135 1    
   116   58  136 1    
   117   59   60 am   BACKBONE|DICT|INTERRES
   118   59  137 1    
   119   60   61 2    
   120   60   62 1    
   121   62   63 1    
   122   62   64 1    
   123   62  138 1    
   124   63  139 1    
   125   63  140 1    
   126   63  141 1    
   127   64   65 am   BACKBONE|DICT|INTERRES
   128   64  142 1    
   129   65   66 2    
   130   65   67 1    
   131   67   68 1    
   132   67   69 1    
   133   67  143 1    
   134   68  144 1    
   135   68  145 1    
   136   68  146 1    
   137   69   70 am   BACKBONE|DICT|INTERRES
   138   69  147 1    
   139   70   71 2    
   140   70   72 1    
   141   72   73 1    
   142   72   74 1    
   143   72  148 1    
   144   73  149 1    
   145   73  150 1    
   146   73  151 1    
   147   74   75 am   BACKBONE|DICT|INTERRES
   148   74  152 1    
   149   75   76 2    
   150   75   77 1    
   151   77   78 1    
   152   77   79 1    
   153   77  153 1    
   154   78  154 1    
   155   78  155 1    
   156   78  156 1    
   157   79   80 am   BACKBONE|DICT|INTERRES
   158   79  157 1    
   159   80   81 2    
@<TRIPOS>SUBSTRUCTURE
     1 UNK         1 GROUP             0       ****    0 ROOT    
