@<TRIPOS>MOLECULE
3R207
157   159    1
SMALL
USER_CHARGES


@<TRIPOS>ATOM
      1 CA        -51.0382  -26.2341    6.9717 C.3       0 UNK        -0.1975 
      2 C         -51.5349  -26.1731    5.5293 C.2       0 UNK         0.4852 
      3 O         -52.2769  -25.2548    5.1849 O.2       0 UNK        -0.5216 
      4 N         -51.1681  -27.1206    4.6563 N.am      1 UNK        -0.4461 
      5 CA        -50.2369  -28.2253    4.9046 C.3       1 UNK         0.0864 
      6 C6        -50.5046  -29.4365    3.9747 C.3       14 UNK        -0.0898 
      7 S7        -52.1987  -30.0979    4.0965 S.3       14 UNK        -0.2598 
      8 C8        -51.9958  -31.4147    5.3375 C.3       14 UNK         0.0286 
      9 C9        -51.9601  -30.8485    6.7488 C.ar      14 UNK        -0.0844 
     10 C10       -50.7608  -30.7768    7.4648 C.ar      14 UNK        -0.0881 
     11 C11       -50.7435  -30.2599    8.7640 C.ar      14 UNK        -0.0643 
     12 C12       -51.9437  -29.8508    9.3550 C.ar      14 UNK        -0.0930 
     13 C13       -53.1440  -29.8751    8.6355 C.ar      14 UNK        -0.0827 
     14 C14       -53.1418  -30.3904    7.3371 C.ar      14 UNK        -0.1249 
     15 C15       -54.4563  -29.3557    9.2225 C.3       14 UNK         0.0141 
     16 S16       -54.2620  -27.9334   10.3533 S.3       14 UNK        -0.2313 
     17 C17       -54.2693  -28.7732   11.9734 C.3       14 UNK        -0.0915 
     18 CA        -55.6412  -28.6189   12.6843 C.3       13 UNK         0.0968 
     19 C         -55.8018  -29.6028   13.8802 C.2       13 UNK         0.5732 
     20 N         -56.1502  -29.1613   15.0844 N.am      13 UNK        -0.7310 
     21 O         -55.6277  -30.8067   13.7076 O.2       13 UNK        -0.5035 
     22 N         -55.9043  -27.2163   13.0361 N.am      13 UNK        -0.4233 
     23 C         -57.1159  -26.6457   13.0529 C.2       13 UNK         0.4989 
     24 O         -58.1418  -27.2159   12.6764 O.2       13 UNK        -0.4996 
     25 CA        -57.1992  -25.1958   13.5821 C.3       12 UNK         0.0216 
     26 CB        -58.6041  -24.8380   14.1137 C.3       12 UNK        -0.1964 
     27 N         -56.1728  -24.8689   14.5831 N.am      12 UNK        -0.4276 
     28 C         -55.9545  -25.4996   15.7458 C.2       12 UNK         0.5020 
     29 O         -56.6271  -26.4459   16.1626 O.2       12 UNK        -0.5489 
     30 CA        -54.7361  -25.0279   16.5557 C.3       11 UNK         0.0294 
     31 CB        -55.1736  -24.4230   17.8996 C.3       11 UNK        -0.2019 
     32 N         -53.7884  -26.1198   16.7964 N.am      11 UNK        -0.4493 
     33 C         -53.2029  -26.8585   15.8438 C.2       11 UNK         0.4932 
     34 O         -53.3860  -26.6977   14.6356 O.2       11 UNK        -0.5029 
     35 CA        -52.2399  -27.9446   16.3312 C.3       10 UNK         0.0280 
     36 CB        -52.3972  -29.2598   15.5487 C.3       10 UNK        -0.1976 
     37 N         -50.8772  -27.4546   16.1633 N.am      10 UNK        -0.4242 
     38 C         -49.9277  -27.4899   17.1058 C.2       10 UNK         0.5072 
     39 O         -50.1030  -27.9262   18.2448 O.2       10 UNK        -0.5224 
     40 CA        -48.5381  -26.9625   16.7162 C.3       9 UNK         0.0343 
     41 CB        -47.7715  -28.0174   15.9018 C.3       9 UNK        -0.2003 
     42 N         -48.5913  -25.7042   15.9704 N.am      9 UNK        -0.4272 
     43 C         -48.9205  -24.5186   16.5050 C.2       9 UNK         0.4988 
     44 O         -49.1941  -24.3541   17.6945 O.2       9 UNK        -0.5108 
     45 CA        -48.9461  -23.3077   15.5555 C.3       8 UNK         0.0248 
     46 CB        -47.5241  -22.7856   15.2970 C.3       8 UNK        -0.2001 
     47 N         -49.6037  -23.6131   14.2842 N.am      8 UNK        -0.4140 
     48 C         -50.9153  -23.8601   14.1576 C.2       8 UNK         0.5028 
     49 O         -51.7241  -23.7418   15.0775 O.2       8 UNK        -0.5428 
     50 CA        -51.4112  -24.3234   12.7780 C.3       7 UNK         0.0264 
     51 CB        -51.8537  -23.1235   11.9254 C.3       7 UNK        -0.1988 
     52 N         -50.4144  -25.1029   12.0407 N.am      7 UNK        -0.4454 
     53 C         -50.0031  -26.3327   12.3830 C.2       7 UNK         0.5027 
     54 O         -50.4008  -26.9426   13.3751 O.2       7 UNK        -0.5083 
     55 CA        -48.9380  -26.9757   11.4724 C.3       6 UNK         0.0844 
     56 C56       -49.5747  -27.3741   10.1186 C.3       14 UNK        -0.0967 
     57 S57       -48.5698  -28.5673    9.1714 S.3       14 UNK        -0.2604 
     58 C58       -49.4293  -30.1396    9.5267 C.3       14 UNK         0.0134 
     59 N         -47.7778  -26.0939   11.3049 N.am      6 UNK        -0.4116 
     60 C         -47.0055  -25.6414   12.3073 C.2       5 UNK         0.5034 
     61 O         -47.1293  -25.9915   13.4794 O.2       5 UNK        -0.5045 
     62 CA        -45.9520  -24.5702   11.9691 C.3       5 UNK         0.0224 
     63 CB        -44.6129  -25.2344   11.6125 C.3       5 UNK        -0.1978 
     64 N         -46.3517  -23.6747   10.8822 N.am      5 UNK        -0.4737 
     65 C         -47.4791  -22.9495   10.8286 C.2       4 UNK         0.5027 
     66 O         -48.2664  -22.8452   11.7687 O.2       4 UNK        -0.5211 
     67 CA        -47.8195  -22.2877    9.4772 C.3       4 UNK         0.0297 
     68 CB        -47.5522  -20.7761    9.5405 C.3       4 UNK        -0.1993 
     69 N         -47.0994  -22.8638    8.3305 N.am      4 UNK        -0.4486 
     70 C         -47.1663  -24.1455    7.9419 C.2       3 UNK         0.4961 
     71 O         -47.9055  -24.9830    8.4674 O.2       3 UNK        -0.5105 
     72 CA        -46.1760  -24.5807    6.8560 C.3       3 UNK         0.0299 
     73 CB        -44.7240  -24.4631    7.3735 C.3       3 UNK        -0.1972 
     74 N         -46.4810  -25.9626    6.4971 N.am      3 UNK        -0.4305 
     75 C         -45.9355  -26.6681    5.5010 C.2       2 UNK         0.5006 
     76 O         -45.0939  -26.2252    4.7181 O.2       2 UNK        -0.5106 
     77 CA        -46.4128  -28.1218    5.3481 C.3       2 UNK         0.0296 
     78 CB        -45.6788  -29.0373    6.3423 C.3       2 UNK        -0.2002 
     79 N         -47.8606  -28.3006    5.4993 N.am      2 UNK        -0.4032 
     80 C         -48.7871  -27.7488    4.7022 C.2       1 UNK         0.5000 
     81 O         -48.5324  -26.9502    3.7966 O.2       1 UNK        -0.5238 
     82 H82       -49.9498  -26.2445    7.0126 H         1 UNK         0.0889 
     83 H83       -51.4209  -27.1228    7.4745 H         1 UNK         0.0889 
     84 H84       -51.3794  -25.3638    7.5319 H         1 UNK         0.0889 
     85 H85       -51.4956  -27.0504    3.7040 H         1 UNK         0.3028 
     86 H86       -50.3506  -28.5600    5.9351 H         1 UNK         0.0864 
     87 H87       -49.7977  -30.2431    4.1784 H         1 UNK         0.0720 
     88 H88       -50.3427  -29.1573    2.9314 H         1 UNK         0.0720 
     89 H89       -51.1013  -32.0015    5.1232 H         1 UNK         0.0814 
     90 H90       -52.8357  -32.1059    5.2531 H         1 UNK         0.0814 
     91 H91       -49.8398  -31.1146    7.0099 H         1 UNK         0.1469 
     92 H92       -51.9379  -29.4882   10.3721 H         1 UNK         0.1381 
     93 H93       -54.0640  -30.4297    6.7729 H         1 UNK         0.1206 
     94 H94       -54.9793  -30.1721    9.7219 H         1 UNK         0.0813 
     95 H95       -55.1109  -29.0313    8.4121 H         1 UNK         0.0813 
     96 H96       -54.0112  -29.8238   11.8303 H         1 UNK         0.0638 
     97 H97       -53.4690  -28.3503   12.5812 H         1 UNK         0.0638 
     98 H98       -56.4017  -28.9380   11.9693 H         1 UNK         0.0568 
     99 H99       -56.3165  -28.1763   15.2648 H         1 UNK         0.3450 
    100 H100      -56.2635  -29.8272   15.8310 H         1 UNK         0.3450 
    101 H101      -55.1101  -26.7144   13.4170 H         1 UNK         0.2987 
    102 H102      -57.0001  -24.5551   12.7218 H         1 UNK         0.0766 
    103 H103      -59.3590  -24.9439   13.3335 H         1 UNK         0.0798 
    104 H104      -58.8991  -25.4840   14.9413 H         1 UNK         0.0798 
    105 H105      -58.6459  -23.8062   14.4626 H         1 UNK         0.0798 
    106 H106      -55.5380  -24.1256   14.3239 H         1 UNK         0.3198 
    107 H107      -54.2086  -24.2570   15.9904 H         1 UNK         0.0843 
    108 H108      -55.6765  -25.1587   18.5288 H         1 UNK         0.0831 
    109 H109      -55.8692  -23.5967   17.7464 H         1 UNK         0.0831 
    110 H110      -54.3222  -24.0291   18.4549 H         1 UNK         0.0831 
    111 H111      -53.5836  -26.3307   17.7621 H         1 UNK         0.3133 
    112 H112      -52.4552  -28.1495   17.3820 H         1 UNK         0.0566 
    113 H113      -52.1986  -29.1252   14.4849 H         1 UNK         0.0814 
    114 H114      -51.7127  -30.0226   15.9193 H         1 UNK         0.0814 
    115 H115      -53.4067  -29.6559   15.6517 H         1 UNK         0.0814 
    116 H116      -50.6576  -27.0894   15.2373 H         1 UNK         0.3091 
    117 H117      -47.9814  -26.7830   17.6385 H         1 UNK         0.0702 
    118 H118      -46.7489  -27.6963   15.7026 H         1 UNK         0.0785 
    119 H119      -48.2519  -28.2138   14.9422 H         1 UNK         0.0785 
    120 H120      -47.7153  -28.9641   16.4407 H         1 UNK         0.0785 
    121 H121      -48.3194  -25.7485   14.9922 H         1 UNK         0.2998 
    122 H122      -49.5141  -22.5113   16.0411 H         1 UNK         0.0697 
    123 H123      -46.8793  -23.5600   14.8833 H         1 UNK         0.0825 
    124 H124      -47.0633  -22.4440   16.2247 H         1 UNK         0.0825 
    125 H125      -47.5268  -21.9432   14.6049 H         1 UNK         0.0825 
    126 H126      -49.0269  -23.6289   13.4486 H         1 UNK         0.3029 
    127 H127      -52.2803  -24.9640   12.9418 H         1 UNK         0.0897 
    128 H128      -51.0220  -22.4516   11.7095 H         1 UNK         0.0792 
    129 H129      -52.6176  -22.5407   12.4420 H         1 UNK         0.0792 
    130 H130      -52.2813  -23.4471   10.9763 H         1 UNK         0.0792 
    131 H131      -49.9824  -24.6483   11.2491 H         1 UNK         0.3086 
    132 H132      -48.5929  -27.8826   11.9737 H         1 UNK         0.0583 
    133 H133      -50.5693  -27.7862   10.2702 H         1 UNK         0.1020 
    134 H134      -49.7328  -26.4907    9.5005 H         1 UNK         0.1020 
    135 H135      -48.7715  -30.9666    9.2552 H         1 UNK         0.0694 
    136 H136      -49.5992  -30.2285   10.6010 H         1 UNK         0.0694 
    137 H137      -47.6205  -25.7418   10.3668 H         1 UNK         0.2989 
    138 H138      -45.8053  -23.9567   12.8591 H         1 UNK         0.1055 
    139 H139      -44.2714  -25.8801   12.4230 H         1 UNK         0.0806 
    140 H140      -43.8325  -24.4924   11.4424 H         1 UNK         0.0806 
    141 H141      -44.6927  -25.8520   10.7169 H         1 UNK         0.0806 
    142 H142      -45.7675  -23.6793   10.0599 H         1 UNK         0.3061 
    143 H143      -48.8871  -22.4414    9.3066 H         1 UNK         0.0734 
    144 H144      -46.4939  -20.5581    9.6898 H         1 UNK         0.0832 
    145 H145      -47.8748  -20.2758    8.6273 H         1 UNK         0.0832 
    146 H146      -48.0979  -20.3184   10.3672 H         1 UNK         0.0832 
    147 H147      -46.4666  -22.2452    7.8427 H         1 UNK         0.3156 
    148 H148      -46.3175  -23.9456    5.9795 H         1 UNK         0.0589 
    149 H149      -44.5501  -25.1132    8.2318 H         1 UNK         0.0808 
    150 H150      -43.9984  -24.7312    6.6060 H         1 UNK         0.0808 
    151 H151      -44.4850  -23.4442    7.6793 H         1 UNK         0.0808 
    152 H152      -47.1846  -26.3868    7.0909 H         1 UNK         0.3098 
    153 H153      -46.1508  -28.4439    4.3379 H         1 UNK         0.0720 
    154 H154      -45.9256  -30.0859    6.1748 H         1 UNK         0.0791 
    155 H155      -45.9269  -28.7949    7.3766 H         1 UNK         0.0791 
    156 H156      -44.5973  -28.9405    6.2362 H         1 UNK         0.0791 
    157 H157      -48.1550  -28.9366    6.2266 H         1 UNK         0.3028 
@<TRIPOS>BOND
     1    1    2 1    
     2    1   82 1    
     3    1   83 1    
     4    1   84 1    
     5    2    3 2    
     6    2    4 am   BACKBONE|DICT|INTERRES
     7    4    5 1    
     8    4   85 1    
     9    5    6 1    
    10    5   80 1    
    11    5   86 1    
    12    6    7 1    
    13    6   87 1    
    14    6   88 1    
    15    7    8 1    
    16    8    9 1    
    17    8   89 1    
    18    8   90 1    
    19    9   10 ar   
    20    9   14 ar   
    21   10   11 ar   
    22   10   91 1    
    23   11   12 ar   
    24   11   58 1    
    25   12   13 ar   
    26   12   92 1    
    27   13   14 ar   
    28   13   15 1    
    29   14   93 1    
    30   15   16 1    
    31   15   94 1    
    32   15   95 1    
    33   16   17 1    
    34   17   18 1    
    35   17   96 1    
    36   17   97 1    
    37   18   19 1    
    38   18   22 1    
    39   18   98 1    
    40   19   20 am   BACKBONE|DICT|INTERRES
    41   19   21 2    
    42   20   99 1    
    43   20  100 1    
    44   22   23 am   BACKBONE|DICT|INTERRES
    45   22  101 1    
    46   23   24 2    
    47   23   25 1    
    48   25   26 1    
    49   25   27 1    
    50   25  102 1    
    51   26  103 1    
    52   26  104 1    
    53   26  105 1    
    54   27   28 am   BACKBONE|DICT|INTERRES
    55   27  106 1    
    56   28   29 2    
    57   28   30 1    
    58   30   31 1    
    59   30   32 1    
    60   30  107 1    
    61   31  108 1    
    62   31  109 1    
    63   31  110 1    
    64   32   33 am   BACKBONE|DICT|INTERRES
    65   32  111 1    
    66   33   34 2    
    67   33   35 1    
    68   35   36 1    
    69   35   37 1    
    70   35  112 1    
    71   36  113 1    
    72   36  114 1    
    73   36  115 1    
    74   37   38 am   BACKBONE|DICT|INTERRES
    75   37  116 1    
    76   38   39 2    
    77   38   40 1    
    78   40   41 1    
    79   40   42 1    
    80   40  117 1    
    81   41  118 1    
    82   41  119 1    
    83   41  120 1    
    84   42   43 am   BACKBONE|DICT|INTERRES
    85   42  121 1    
    86   43   44 2    
    87   43   45 1    
    88   45   46 1    
    89   45   47 1    
    90   45  122 1    
    91   46  123 1    
    92   46  124 1    
    93   46  125 1    
    94   47   48 am   BACKBONE|DICT|INTERRES
    95   47  126 1    
    96   48   49 2    
    97   48   50 1    
    98   50   51 1    
    99   50   52 1    
   100   50  127 1    
   101   51  128 1    
   102   51  129 1    
   103   51  130 1    
   104   52   53 am   BACKBONE|DICT|INTERRES
   105   52  131 1    
   106   53   54 2    
   107   53   55 1    
   108   55   56 1    
   109   55   59 1    
   110   55  132 1    
   111   56   57 1    
   112   56  133 1    
   113   56  134 1    
   114   57   58 1    
   115   58  135 1    
   116   58  136 1    
   117   59   60 am   BACKBONE|DICT|INTERRES
   118   59  137 1    
   119   60   61 2    
   120   60   62 1    
   121   62   63 1    
   122   62   64 1    
   123   62  138 1    
   124   63  139 1    
   125   63  140 1    
   126   63  141 1    
   127   64   65 am   BACKBONE|DICT|INTERRES
   128   64  142 1    
   129   65   66 2    
   130   65   67 1    
   131   67   68 1    
   132   67   69 1    
   133   67  143 1    
   134   68  144 1    
   135   68  145 1    
   136   68  146 1    
   137   69   70 am   BACKBONE|DICT|INTERRES
   138   69  147 1    
   139   70   71 2    
   140   70   72 1    
   141   72   73 1    
   142   72   74 1    
   143   72  148 1    
   144   73  149 1    
   145   73  150 1    
   146   73  151 1    
   147   74   75 am   BACKBONE|DICT|INTERRES
   148   74  152 1    
   149   75   76 2    
   150   75   77 1    
   151   77   78 1    
   152   77   79 1    
   153   77  153 1    
   154   78  154 1    
   155   78  155 1    
   156   78  156 1    
   157   79   80 am   BACKBONE|DICT|INTERRES
   158   79  157 1    
   159   80   81 2    
@<TRIPOS>SUBSTRUCTURE
     1 UNK         1 GROUP             0       ****    0 ROOT    
