@<TRIPOS>MOLECULE
3R207
157   159    1
SMALL
USER_CHARGES


@<TRIPOS>ATOM
      1 CA        -49.8858  -31.7278    6.8886 C.3       0 UNK        -0.1975 
      2 C         -49.3087  -30.7865    5.8422 C.2       0 UNK         0.4852 
      3 O         -48.3612  -31.1495    5.1449 O.2       0 UNK        -0.5216 
      4 N         -49.8757  -29.5786    5.7285 N.am      1 UNK        -0.4461 
      5 CA        -49.5046  -28.5499    4.7459 C.3       1 UNK         0.0864 
      6 C6        -50.5689  -27.4240    4.6491 C.3       14 UNK        -0.0898 
      7 S7        -52.2759  -28.0241    4.4007 S.3       14 UNK        -0.2598 
      8 C8        -53.1443  -27.2891    5.8263 C.3       14 UNK         0.0286 
      9 C9        -53.0977  -28.1872    7.0557 C.ar      14 UNK        -0.0844 
     10 C10       -51.9443  -28.2619    7.8428 C.ar      14 UNK        -0.0881 
     11 C11       -51.8972  -29.0914    8.9728 C.ar      14 UNK        -0.0643 
     12 C12       -53.0425  -29.8086    9.3312 C.ar      14 UNK        -0.0930 
     13 C13       -54.2109  -29.7228    8.5692 C.ar      14 UNK        -0.0827 
     14 C14       -54.2254  -28.9271    7.4211 C.ar      14 UNK        -0.1249 
     15 C15       -55.4613  -30.4772    8.9949 C.3       14 UNK         0.0141 
     16 S16       -56.6994  -29.3334    9.6785 S.3       14 UNK        -0.2313 
     17 C17       -57.7483  -30.4779   10.6346 C.3       14 UNK        -0.0915 
     18 CA        -58.8093  -29.7369   11.5070 C.3       13 UNK         0.0968 
     19 C         -59.7611  -30.6924   12.2916 C.2       13 UNK         0.5732 
     20 N         -60.0809  -31.8634   11.7556 N.am      13 UNK        -0.7310 
     21 O         -60.2643  -30.3608   13.3644 O.2       13 UNK        -0.5035 
     22 N         -58.2249  -28.6805   12.3533 N.am      13 UNK        -0.4233 
     23 C         -57.3526  -28.8600   13.3526 C.2       13 UNK         0.4989 
     24 O         -56.9283  -29.9585   13.7225 O.2       13 UNK        -0.4996 
     25 CA        -56.8986  -27.5841   14.0837 C.3       12 UNK         0.0216 
     26 CB        -57.8042  -27.3040   15.2943 C.3       12 UNK        -0.1964 
     27 N         -55.5114  -27.6893   14.5382 N.am      12 UNK        -0.4276 
     28 C         -54.4414  -27.6987   13.7348 C.2       12 UNK         0.5020 
     29 O         -54.4934  -27.4902   12.5215 O.2       12 UNK        -0.5489 
     30 CA        -53.0853  -27.9539   14.4152 C.3       11 UNK         0.0294 
     31 CB        -52.0451  -28.5329   13.4400 C.3       11 UNK        -0.2019 
     32 N         -52.5496  -26.7270   15.0014 N.am      11 UNK        -0.4493 
     33 C         -52.9811  -26.1543   16.1328 C.2       11 UNK         0.4932 
     34 O         -53.9035  -26.6028   16.8176 O.2       11 UNK        -0.5029 
     35 CA        -52.2239  -24.8866   16.5742 C.3       10 UNK         0.0280 
     36 CB        -52.6624  -24.3616   17.9575 C.3       10 UNK        -0.1976 
     37 N         -50.7698  -25.0748   16.5149 N.am      10 UNK        -0.4242 
     38 C         -50.0349  -25.9815   17.1795 C.2       10 UNK         0.5072 
     39 O         -50.4847  -26.7339   18.0451 O.2       10 UNK        -0.5224 
     40 CA        -48.5466  -26.1052   16.8014 C.3       9 UNK         0.0343 
     41 CB        -48.3166  -27.3962   15.9975 C.3       9 UNK        -0.2003 
     42 N         -48.0359  -24.9710   16.0281 N.am      9 UNK        -0.4272 
     43 C         -47.7751  -23.7560   16.5286 C.2       9 UNK         0.4988 
     44 O         -47.8785  -23.4691   17.7217 O.2       9 UNK        -0.5108 
     45 CA        -47.3556  -22.6683   15.5235 C.3       8 UNK         0.0248 
     46 CB        -45.8490  -22.7532   15.2324 C.3       8 UNK        -0.2001 
     47 N         -48.1108  -22.7130   14.2649 N.am      8 UNK        -0.4140 
     48 C         -49.4379  -22.5328   14.1704 C.2       8 UNK         0.5028 
     49 O         -50.1683  -22.3019   15.1338 O.2       8 UNK        -0.5428 
     50 CA        -50.0709  -22.6688   12.7768 C.3       7 UNK         0.0264 
     51 CB        -49.8018  -21.4156   11.9286 C.3       7 UNK        -0.1988 
     52 N         -49.6159  -23.8634   12.0639 N.am      7 UNK        -0.4454 
     53 C         -49.8563  -25.1235   12.4582 C.2       7 UNK         0.5027 
     54 O         -50.5470  -25.4136   13.4366 O.2       7 UNK        -0.5083 
     55 CA        -49.1713  -26.2507   11.6586 C.3       6 UNK         0.0844 
     56 C56       -49.9682  -26.5911   10.3764 C.3       14 UNK        -0.0967 
     57 S57       -49.3028  -28.0684    9.5353 S.3       14 UNK        -0.2604 
     58 C58       -50.6353  -29.2792    9.8186 C.3       14 UNK         0.0134 
     59 N         -47.7671  -25.9382   11.3749 N.am      6 UNK        -0.4116 
     60 C         -46.8210  -25.7144   12.2973 C.2       5 UNK         0.5034 
     61 O         -47.0081  -25.7889   13.5101 O.2       5 UNK        -0.5045 
     62 CA        -45.4440  -25.2780   11.7809 C.3       5 UNK         0.0224 
     63 CB        -44.6154  -26.4904   11.3265 C.3       5 UNK        -0.1978 
     64 N         -45.5618  -24.3109   10.6886 N.am      5 UNK        -0.4737 
     65 C         -45.9590  -23.0414   10.8476 C.2       4 UNK         0.5027 
     66 O         -46.2335  -22.5432   11.9393 O.2       4 UNK        -0.5211 
     67 CA        -46.1080  -22.1973    9.5701 C.3       4 UNK         0.0297 
     68 CB        -44.7455  -21.6417    9.1269 C.3       4 UNK        -0.1993 
     69 N         -46.7259  -22.9329    8.4623 N.am      4 UNK        -0.4486 
     70 C         -47.9896  -23.3775    8.4714 C.2       3 UNK         0.4961 
     71 O         -48.7660  -23.2163    9.4120 O.2       3 UNK        -0.5105 
     72 CA        -48.4664  -24.1686    7.2419 C.3       3 UNK         0.0299 
     73 CB        -48.8348  -23.2155    6.0941 C.3       3 UNK        -0.1972 
     74 N         -47.5588  -25.2097    6.7419 N.am      3 UNK        -0.4305 
     75 C         -46.9055  -26.1277    7.4705 C.2       2 UNK         0.5006 
     76 O         -46.7755  -26.0767    8.6926 O.2       2 UNK        -0.5106 
     77 CA        -46.3924  -27.3556    6.7019 C.3       2 UNK         0.0296 
     78 CB        -45.5486  -28.2960    7.5834 C.3       2 UNK        -0.2002 
     79 N         -47.5552  -28.0897    6.2008 N.am      2 UNK        -0.4032 
     80 C         -48.1209  -27.9075    4.9995 C.2       1 UNK         0.5000 
     81 O         -47.6223  -27.1969    4.1244 O.2       1 UNK        -0.5238 
     82 H82       -50.8305  -31.3601    7.2891 H         1 UNK         0.0889 
     83 H83       -49.1853  -31.8458    7.7148 H         1 UNK         0.0889 
     84 H84       -50.0672  -32.7094    6.4519 H         1 UNK         0.0889 
     85 H85       -50.6828  -29.3603    6.2968 H         1 UNK         0.3028 
     86 H86       -49.4467  -29.0405    3.7719 H         1 UNK         0.0864 
     87 H87       -50.5301  -26.7828    5.5310 H         1 UNK         0.0720 
     88 H88       -50.3397  -26.7688    3.8062 H         1 UNK         0.0720 
     89 H89       -54.1809  -27.1112    5.5360 H         1 UNK         0.0814 
     90 H90       -52.7338  -26.3060    6.0611 H         1 UNK         0.0814 
     91 H91       -51.0839  -27.6743    7.5625 H         1 UNK         0.1469 
     92 H92       -53.0244  -30.4360   10.2120 H         1 UNK         0.1381 
     93 H93       -55.1280  -28.8649    6.8283 H         1 UNK         0.1206 
     94 H94       -55.8870  -31.0072    8.1416 H         1 UNK         0.0813 
     95 H95       -55.2110  -31.2352    9.7386 H         1 UNK         0.0813 
     96 H96       -57.1094  -31.1021   11.2614 H         1 UNK         0.0638 
     97 H97       -58.2312  -31.1458    9.9200 H         1 UNK         0.0638 
     98 H98       -59.4705  -29.2062   10.8215 H         1 UNK         0.0568 
     99 H99       -59.7045  -32.1518   10.8667 H         1 UNK         0.3450 
    100 H100      -60.7127  -32.4710   12.2533 H         1 UNK         0.3450 
    101 H101      -58.5413  -27.7441   12.1498 H         1 UNK         0.2987 
    102 H102      -56.9644  -26.7392   13.3945 H         1 UNK         0.0766 
    103 H103      -57.5139  -26.3849   15.8040 H         1 UNK         0.0798 
    104 H104      -57.7686  -28.1170   16.0209 H         1 UNK         0.0798 
    105 H105      -58.8444  -27.1888   14.9867 H         1 UNK         0.0798 
    106 H106      -55.3592  -27.8058   15.5320 H         1 UNK         0.3198 
    107 H107      -53.2363  -28.6869   15.2110 H         1 UNK         0.0843 
    108 H108      -52.4082  -29.4565   12.9876 H         1 UNK         0.0831 
    109 H109      -51.1077  -28.7627   13.9467 H         1 UNK         0.0831 
    110 H110      -51.8266  -27.8367   12.6307 H         1 UNK         0.0831 
    111 H111      -51.8079  -26.2627   14.4786 H         1 UNK         0.3133 
    112 H112      -52.4598  -24.1160   15.8389 H         1 UNK         0.0566 
    113 H113      -52.1189  -23.4559   18.2267 H         1 UNK         0.0814 
    114 H114      -53.7249  -24.1156   17.9609 H         1 UNK         0.0814 
    115 H115      -52.4983  -25.0985   18.7442 H         1 UNK         0.0814 
    116 H116      -50.2951  -24.5079   15.8230 H         1 UNK         0.3091 
    117 H117      -47.9764  -26.1727   17.7302 H         1 UNK         0.0702 
    118 H118      -47.2597  -27.5402   15.7720 H         1 UNK         0.0785 
    119 H119      -48.8614  -27.3817   15.0522 H         1 UNK         0.0785 
    120 H120      -48.6514  -28.2721   16.5546 H         1 UNK         0.0785 
    121 H121      -47.8443  -25.1458   15.0434 H         1 UNK         0.2998 
    122 H122      -47.5552  -21.7002   15.9874 H         1 UNK         0.0697 
    123 H123      -45.5856  -23.6894   14.7400 H         1 UNK         0.0825 
    124 H124      -45.2688  -22.6942   16.1542 H         1 UNK         0.0825 
    125 H125      -45.5221  -21.9345   14.5912 H         1 UNK         0.0825 
    126 H126      -47.5719  -22.8574   13.4156 H         1 UNK         0.3029 
    127 H127      -51.1509  -22.7582   12.9137 H         1 UNK         0.0897 
    128 H128      -50.3336  -21.4608   10.9780 H         1 UNK         0.0792 
    129 H129      -50.1361  -20.5144   12.4443 H         1 UNK         0.0792 
    130 H130      -48.7403  -21.2939   11.7101 H         1 UNK         0.0792 
    131 H131      -49.0940  -23.7056   11.2042 H         1 UNK         0.3086 
    132 H132      -49.1748  -27.1354   12.2992 H         1 UNK         0.0583 
    133 H133      -51.0238  -26.7514   10.6049 H         1 UNK         0.1020 
    134 H134      -49.9399  -25.7562    9.6750 H         1 UNK         0.1020 
    135 H135      -50.2337  -30.2715    9.6116 H         1 UNK         0.0694 
    136 H136      -50.8927  -29.2725   10.8777 H         1 UNK         0.0694 
    137 H137      -47.4984  -25.9026   10.3937 H         1 UNK         0.2989 
    138 H138      -44.9158  -24.7971   12.6071 H         1 UNK         0.1055 
    139 H139      -44.4787  -27.1953   12.1477 H         1 UNK         0.0806 
    140 H140      -43.6234  -26.1893   10.9898 H         1 UNK         0.0806 
    141 H141      -45.0962  -27.0324   10.5118 H         1 UNK         0.0806 
    142 H142      -45.4764  -24.6773    9.7487 H         1 UNK         0.3061 
    143 H143      -46.7563  -21.3518    9.8108 H         1 UNK         0.0734 
    144 H144      -44.2763  -21.0749    9.9325 H         1 UNK         0.0832 
    145 H145      -44.0549  -22.4371    8.8439 H         1 UNK         0.0832 
    146 H146      -44.8489  -20.9670    8.2769 H         1 UNK         0.0832 
    147 H147      -46.1516  -23.1295    7.6554 H         1 UNK         0.3156 
    148 H148      -49.3797  -24.6867    7.5401 H         1 UNK         0.0589 
    149 H149      -47.9557  -22.7155    5.6857 H         1 UNK         0.0808 
    150 H150      -49.3283  -23.7458    5.2794 H         1 UNK         0.0808 
    151 H151      -49.5226  -22.4398    6.4345 H         1 UNK         0.0808 
    152 H152      -47.5737  -25.3558    5.7413 H         1 UNK         0.3098 
    153 H153      -45.7671  -27.0081    5.8770 H         1 UNK         0.0720 
    154 H154      -45.1906  -29.1544    7.0149 H         1 UNK         0.0791 
    155 H155      -46.1168  -28.6727    8.4354 H         1 UNK         0.0791 
    156 H156      -44.6730  -27.7788    7.9776 H         1 UNK         0.0791 
    157 H157      -48.0512  -28.6537    6.8764 H         1 UNK         0.3028 
@<TRIPOS>BOND
     1    1    2 1    
     2    1   82 1    
     3    1   83 1    
     4    1   84 1    
     5    2    3 2    
     6    2    4 am   BACKBONE|DICT|INTERRES
     7    4    5 1    
     8    4   85 1    
     9    5    6 1    
    10    5   80 1    
    11    5   86 1    
    12    6    7 1    
    13    6   87 1    
    14    6   88 1    
    15    7    8 1    
    16    8    9 1    
    17    8   89 1    
    18    8   90 1    
    19    9   10 ar   
    20    9   14 ar   
    21   10   11 ar   
    22   10   91 1    
    23   11   12 ar   
    24   11   58 1    
    25   12   13 ar   
    26   12   92 1    
    27   13   14 ar   
    28   13   15 1    
    29   14   93 1    
    30   15   16 1    
    31   15   94 1    
    32   15   95 1    
    33   16   17 1    
    34   17   18 1    
    35   17   96 1    
    36   17   97 1    
    37   18   19 1    
    38   18   22 1    
    39   18   98 1    
    40   19   20 am   BACKBONE|DICT|INTERRES
    41   19   21 2    
    42   20   99 1    
    43   20  100 1    
    44   22   23 am   BACKBONE|DICT|INTERRES
    45   22  101 1    
    46   23   24 2    
    47   23   25 1    
    48   25   26 1    
    49   25   27 1    
    50   25  102 1    
    51   26  103 1    
    52   26  104 1    
    53   26  105 1    
    54   27   28 am   BACKBONE|DICT|INTERRES
    55   27  106 1    
    56   28   29 2    
    57   28   30 1    
    58   30   31 1    
    59   30   32 1    
    60   30  107 1    
    61   31  108 1    
    62   31  109 1    
    63   31  110 1    
    64   32   33 am   BACKBONE|DICT|INTERRES
    65   32  111 1    
    66   33   34 2    
    67   33   35 1    
    68   35   36 1    
    69   35   37 1    
    70   35  112 1    
    71   36  113 1    
    72   36  114 1    
    73   36  115 1    
    74   37   38 am   BACKBONE|DICT|INTERRES
    75   37  116 1    
    76   38   39 2    
    77   38   40 1    
    78   40   41 1    
    79   40   42 1    
    80   40  117 1    
    81   41  118 1    
    82   41  119 1    
    83   41  120 1    
    84   42   43 am   BACKBONE|DICT|INTERRES
    85   42  121 1    
    86   43   44 2    
    87   43   45 1    
    88   45   46 1    
    89   45   47 1    
    90   45  122 1    
    91   46  123 1    
    92   46  124 1    
    93   46  125 1    
    94   47   48 am   BACKBONE|DICT|INTERRES
    95   47  126 1    
    96   48   49 2    
    97   48   50 1    
    98   50   51 1    
    99   50   52 1    
   100   50  127 1    
   101   51  128 1    
   102   51  129 1    
   103   51  130 1    
   104   52   53 am   BACKBONE|DICT|INTERRES
   105   52  131 1    
   106   53   54 2    
   107   53   55 1    
   108   55   56 1    
   109   55   59 1    
   110   55  132 1    
   111   56   57 1    
   112   56  133 1    
   113   56  134 1    
   114   57   58 1    
   115   58  135 1    
   116   58  136 1    
   117   59   60 am   BACKBONE|DICT|INTERRES
   118   59  137 1    
   119   60   61 2    
   120   60   62 1    
   121   62   63 1    
   122   62   64 1    
   123   62  138 1    
   124   63  139 1    
   125   63  140 1    
   126   63  141 1    
   127   64   65 am   BACKBONE|DICT|INTERRES
   128   64  142 1    
   129   65   66 2    
   130   65   67 1    
   131   67   68 1    
   132   67   69 1    
   133   67  143 1    
   134   68  144 1    
   135   68  145 1    
   136   68  146 1    
   137   69   70 am   BACKBONE|DICT|INTERRES
   138   69  147 1    
   139   70   71 2    
   140   70   72 1    
   141   72   73 1    
   142   72   74 1    
   143   72  148 1    
   144   73  149 1    
   145   73  150 1    
   146   73  151 1    
   147   74   75 am   BACKBONE|DICT|INTERRES
   148   74  152 1    
   149   75   76 2    
   150   75   77 1    
   151   77   78 1    
   152   77   79 1    
   153   77  153 1    
   154   78  154 1    
   155   78  155 1    
   156   78  156 1    
   157   79   80 am   BACKBONE|DICT|INTERRES
   158   79  157 1    
   159   80   81 2    
@<TRIPOS>SUBSTRUCTURE
     1 UNK         1 GROUP             0       ****    0 ROOT    
