@<TRIPOS>MOLECULE
3R207
157   159    1
SMALL
USER_CHARGES


@<TRIPOS>ATOM
      1 CA        -45.5796  -24.8504   10.8603 C.3       0 UNK        -0.1975 
      2 C         -46.0794  -26.2385   10.4856 C.2       0 UNK         0.4852 
      3 O         -45.4912  -27.2273   10.9233 O.2       0 UNK        -0.5216 
      4 N         -47.1466  -26.3241    9.6747 N.am      1 UNK        -0.4461 
      5 CA        -47.7285  -27.5833    9.1746 C.3       1 UNK         0.0864 
      6 C6        -49.0155  -27.3460    8.3471 C.3       14 UNK        -0.0898 
      7 S7        -50.3993  -26.6681    9.3120 S.3       14 UNK        -0.2598 
      8 C8        -51.7515  -27.0175    8.1426 C.3       14 UNK         0.0286 
      9 C9        -53.0274  -26.2966    8.5394 C.ar      14 UNK        -0.0844 
     10 C10       -53.2032  -24.9546    8.1953 C.ar      14 UNK        -0.0881 
     11 C11       -54.3456  -24.2574    8.6017 C.ar      14 UNK        -0.0643 
     12 C12       -55.3378  -24.9338    9.3199 C.ar      14 UNK        -0.0930 
     13 C13       -55.1910  -26.2885    9.6356 C.ar      14 UNK        -0.0827 
     14 C14       -54.0311  -26.9633    9.2459 C.ar      14 UNK        -0.1249 
     15 C15       -56.2840  -27.0251   10.3947 C.3       14 UNK         0.0141 
     16 S16       -55.8440  -27.2174   12.1453 S.3       14 UNK        -0.2313 
     17 C17       -57.4042  -27.8670   12.8240 C.3       14 UNK        -0.0915 
     18 CA        -57.3619  -27.9559   14.3769 C.3       13 UNK         0.0968 
     19 C         -58.7670  -28.1632   15.0237 C.2       13 UNK         0.5732 
     20 N         -58.8634  -28.7599   16.2062 N.am      13 UNK        -0.7310 
     21 O         -59.7837  -27.7484   14.4714 O.2       13 UNK        -0.5035 
     22 N         -56.3122  -28.8716   14.8618 N.am      13 UNK        -0.4233 
     23 C         -56.3080  -30.2068   14.7561 C.2       13 UNK         0.4989 
     24 O         -57.2070  -30.8679   14.2322 O.2       13 UNK        -0.4996 
     25 CA        -55.0727  -30.9047   15.3500 C.3       12 UNK         0.0216 
     26 CB        -55.2199  -32.4388   15.4490 C.3       12 UNK        -0.1964 
     27 N         -53.8483  -30.5263   14.6370 N.am      12 UNK        -0.4276 
     28 C         -53.5151  -30.7934   13.3649 C.2       12 UNK         0.5020 
     29 O         -54.2106  -31.4510   12.5897 O.2       12 UNK        -0.5489 
     30 CA        -52.1667  -30.2445   12.8589 C.3       11 UNK         0.0294 
     31 CB        -52.3861  -29.1157   11.8402 C.3       11 UNK        -0.2019 
     32 N         -51.2815  -29.7585   13.9203 N.am      11 UNK        -0.4493 
     33 C         -50.5979  -30.5360   14.7718 C.2       11 UNK         0.4932 
     34 O         -50.6423  -31.7661   14.7657 O.2       11 UNK        -0.5029 
     35 CA        -49.7317  -29.8169   15.8150 C.3       10 UNK         0.0280 
     36 CB        -48.3984  -29.3697   15.1921 C.3       10 UNK        -0.1976 
     37 N         -50.4296  -28.6528   16.3635 N.am      10 UNK        -0.4242 
     38 C         -51.1662  -28.6604   17.4838 C.2       10 UNK         0.5072 
     39 O         -51.3073  -29.6491   18.2043 O.2       10 UNK        -0.5224 
     40 CA        -51.8677  -27.3459   17.8784 C.3       9 UNK         0.0343 
     41 CB        -50.9871  -26.5375   18.8448 C.3       9 UNK        -0.2003 
     42 N         -52.2179  -26.5067   16.7304 N.am      9 UNK        -0.4272 
     43 C         -53.1735  -26.8036   15.8396 C.2       9 UNK         0.4988 
     44 O         -53.9197  -27.7781   15.9379 O.2       9 UNK        -0.5108 
     45 CA        -53.3052  -25.8856   14.6120 C.3       8 UNK         0.0248 
     46 CB        -54.4051  -24.8367   14.8348 C.3       8 UNK        -0.2001 
     47 N         -52.0704  -25.2134   14.1924 N.am      8 UNK        -0.4140 
     48 C         -50.9194  -25.8169   13.8695 C.2       8 UNK         0.5028 
     49 O         -50.7331  -27.0294   13.9830 O.2       8 UNK        -0.5428 
     50 CA        -49.7975  -24.9118   13.3333 C.3       7 UNK         0.0264 
     51 CB        -48.4616  -25.6601   13.1941 C.3       7 UNK        -0.1988 
     52 N         -50.1530  -24.3304   12.0378 N.am      7 UNK        -0.4454 
     53 C         -50.9995  -23.3110   11.8516 C.2       7 UNK         0.5027 
     54 O         -51.5492  -22.7126   12.7798 O.2       7 UNK        -0.5083 
     55 CA        -51.2608  -22.8849   10.3933 C.3       6 UNK         0.0844 
     56 C56       -52.6023  -22.1160   10.2533 C.3       14 UNK        -0.0967 
     57 S57       -53.0205  -21.7711    8.5095 S.3       14 UNK        -0.2604 
     58 C58       -54.5258  -22.7787    8.2668 C.3       14 UNK         0.0134 
     59 N         -50.1364  -22.0999    9.8798 N.am      6 UNK        -0.4116 
     60 C         -48.9361  -22.5723    9.5212 C.2       5 UNK         0.5034 
     61 O         -48.6111  -23.7624    9.5704 O.2       5 UNK        -0.5045 
     62 CA        -47.9146  -21.5060    9.0851 C.3       5 UNK         0.0224 
     63 CB        -47.3120  -20.8160   10.3213 C.3       5 UNK        -0.1978 
     64 N         -46.8175  -22.0333    8.2689 N.am      5 UNK        -0.4737 
     65 C         -46.9379  -22.5839    7.0544 C.2       4 UNK         0.5027 
     66 O         -48.0125  -22.7198    6.4659 O.2       4 UNK        -0.5211 
     67 CA        -45.6387  -23.0364    6.3666 C.3       4 UNK         0.0297 
     68 CB        -44.4801  -23.3451    7.3417 C.3       4 UNK        -0.1993 
     69 N         -45.9144  -24.2120    5.5465 N.am      4 UNK        -0.4486 
     70 C         -45.2524  -24.5625    4.4382 C.2       3 UNK         0.4961 
     71 O         -44.3620  -23.8831    3.9232 O.2       3 UNK        -0.5105 
     72 CA        -45.6327  -25.9356    3.8477 C.3       3 UNK         0.0299 
     73 CB        -44.7857  -26.3244    2.6166 C.3       3 UNK        -0.1972 
     74 N         -45.5939  -26.9925    4.8710 N.am      3 UNK        -0.4305 
     75 C         -44.5370  -27.3606    5.6154 C.2       2 UNK         0.5006 
     76 O         -43.4005  -26.9029    5.4865 O.2       2 UNK        -0.5106 
     77 CA        -44.8329  -28.3660    6.7356 C.3       2 UNK         0.0296 
     78 CB        -43.5788  -28.7943    7.5244 C.3       2 UNK        -0.2002 
     79 N         -45.8085  -27.7646    7.6417 N.am      2 UNK        -0.4032 
     80 C         -46.7479  -28.4277    8.3268 C.2       1 UNK         0.5000 
     81 O         -46.8808  -29.6527    8.2917 O.2       1 UNK        -0.5238 
     82 H82       -46.2228  -24.0619   10.4754 H         1 UNK         0.0889 
     83 H83       -44.5776  -24.6957   10.4618 H         1 UNK         0.0889 
     84 H84       -45.5257  -24.7472   11.9431 H         1 UNK         0.0889 
     85 H85       -47.6456  -25.4741    9.4211 H         1 UNK         0.3028 
     86 H86       -47.9879  -28.1868   10.0472 H         1 UNK         0.0864 
     87 H87       -49.3610  -28.2844    7.9067 H         1 UNK         0.0720 
     88 H88       -48.8166  -26.6709    7.5124 H         1 UNK         0.0720 
     89 H89       -51.9195  -28.0947    8.0961 H         1 UNK         0.0814 
     90 H90       -51.4567  -26.7068    7.1389 H         1 UNK         0.0814 
     91 H91       -52.4310  -24.4433    7.6367 H         1 UNK         0.1469 
     92 H92       -56.2294  -24.4066    9.6311 H         1 UNK         0.1381 
     93 H93       -53.9104  -28.0065    9.4987 H         1 UNK         0.1206 
     94 H94       -57.2304  -26.4883   10.3131 H         1 UNK         0.0813 
     95 H95       -56.4459  -28.0092    9.9525 H         1 UNK         0.0813 
     96 H96       -57.6123  -28.8420   12.3810 H         1 UNK         0.0638 
     97 H97       -58.2028  -27.1995   12.4963 H         1 UNK         0.0638 
     98 H98       -57.0641  -26.9720   14.7387 H         1 UNK         0.0568 
     99 H99       -59.7722  -28.8810   16.6243 H         1 UNK         0.3450 
    100 H100      -58.0398  -29.0924   16.6805 H         1 UNK         0.3450 
    101 H101      -55.5071  -28.4267   15.2977 H         1 UNK         0.2987 
    102 H102      -54.9607  -30.5263   16.3675 H         1 UNK         0.0766 
    103 H103      -55.3711  -32.9015   14.4734 H         1 UNK         0.0798 
    104 H104      -56.0772  -32.7060   16.0680 H         1 UNK         0.0798 
    105 H105      -54.3382  -32.8925   15.9016 H         1 UNK         0.0798 
    106 H106      -53.2248  -29.9177   15.1506 H         1 UNK         0.3198 
    107 H107      -51.6594  -31.0655   12.3477 H         1 UNK         0.0843 
    108 H108      -52.9004  -28.2631   12.2835 H         1 UNK         0.0831 
    109 H109      -52.9923  -29.4662   11.0050 H         1 UNK         0.0831 
    110 H110      -51.4418  -28.7586   11.4288 H         1 UNK         0.0831 
    111 H111      -51.1359  -28.7488   13.9607 H         1 UNK         0.3133 
    112 H112      -49.5060  -30.5247   16.6156 H         1 UNK         0.0566 
    113 H113      -48.5470  -28.6738   14.3654 H         1 UNK         0.0814 
    114 H114      -47.8458  -30.2250   14.8011 H         1 UNK         0.0814 
    115 H115      -47.7609  -28.8817   15.9294 H         1 UNK         0.0814 
    116 H116      -50.4279  -27.8199   15.7839 H         1 UNK         0.3091 
    117 H117      -52.7911  -27.6099   18.3988 H         1 UNK         0.0702 
    118 H118      -51.5007  -25.6420   19.1953 H         1 UNK         0.0785 
    119 H119      -50.0511  -26.2284   18.3777 H         1 UNK         0.0785 
    120 H120      -50.7319  -27.1281   19.7259 H         1 UNK         0.0785 
    121 H121      -51.6607  -25.6788   16.5784 H         1 UNK         0.2998 
    122 H122      -53.6059  -26.5236   13.7817 H         1 UNK         0.0697 
    123 H123      -54.1295  -24.1208   15.6101 H         1 UNK         0.0825 
    124 H124      -55.3398  -25.3067   15.1420 H         1 UNK         0.0825 
    125 H125      -54.6119  -24.2810   13.9198 H         1 UNK         0.0825 
    126 H126      -52.1285  -24.2146   14.0206 H         1 UNK         0.3029 
    127 H127      -49.6532  -24.1058   14.0562 H         1 UNK         0.0897 
    128 H128      -48.5218  -26.4623   12.4571 H         1 UNK         0.0792 
    129 H129      -48.1605  -26.1075   14.1422 H         1 UNK         0.0792 
    130 H130      -47.6672  -24.9795   12.8938 H         1 UNK         0.0792 
    131 H131      -49.7337  -24.7500   11.2155 H         1 UNK         0.3086 
    132 H132      -51.3307  -23.7993    9.8038 H         1 UNK         0.0583 
    133 H133      -53.4158  -22.6802   10.7138 H         1 UNK         0.1020 
    134 H134      -52.5615  -21.1660   10.7900 H         1 UNK         0.1020 
    135 H135      -55.3265  -22.3454    8.8684 H         1 UNK         0.0694 
    136 H136      -54.8406  -22.6926    7.2261 H         1 UNK         0.0694 
    137 H137      -50.2984  -21.1056    9.8222 H         1 UNK         0.2989 
    138 H138      -48.4405  -20.7609    8.4837 H         1 UNK         0.1055 
    139 H139      -46.7668  -21.5205   10.9510 H         1 UNK         0.0806 
    140 H140      -48.0871  -20.3620   10.9403 H         1 UNK         0.0806 
    141 H141      -46.6249  -20.0187   10.0368 H         1 UNK         0.0806 
    142 H142      -45.8946  -21.9766    8.6728 H         1 UNK         0.3061 
    143 H143      -45.3357  -22.2137    5.7154 H         1 UNK         0.0734 
    144 H144      -44.7543  -24.1180    8.0592 H         1 UNK         0.0832 
    145 H145      -43.5979  -23.6963    6.8056 H         1 UNK         0.0832 
    146 H146      -44.1719  -22.4594    7.8981 H         1 UNK         0.0832 
    147 H147      -46.7059  -24.7666    5.8420 H         1 UNK         0.3156 
    148 H148      -46.6703  -25.8548    3.5197 H         1 UNK         0.0589 
    149 H149      -45.0959  -27.2867    2.2097 H         1 UNK         0.0808 
    150 H150      -44.8943  -25.5862    1.8211 H         1 UNK         0.0808 
    151 H151      -43.7236  -26.3883    2.8555 H         1 UNK         0.0808 
    152 H152      -46.4796  -27.4391    5.0661 H         1 UNK         0.3098 
    153 H153      -45.2632  -29.2517    6.2628 H         1 UNK         0.0720 
    154 H154      -43.1145  -27.9482    8.0326 H         1 UNK         0.0791 
    155 H155      -42.8307  -29.2326    6.8627 H         1 UNK         0.0791 
    156 H156      -43.8225  -29.5427    8.2786 H         1 UNK         0.0791 
    157 H157      -45.7699  -26.7594    7.7321 H         1 UNK         0.3028 
@<TRIPOS>BOND
     1    1    2 1    
     2    1   82 1    
     3    1   83 1    
     4    1   84 1    
     5    2    3 2    
     6    2    4 am   BACKBONE|DICT|INTERRES
     7    4    5 1    
     8    4   85 1    
     9    5    6 1    
    10    5   80 1    
    11    5   86 1    
    12    6    7 1    
    13    6   87 1    
    14    6   88 1    
    15    7    8 1    
    16    8    9 1    
    17    8   89 1    
    18    8   90 1    
    19    9   10 ar   
    20    9   14 ar   
    21   10   11 ar   
    22   10   91 1    
    23   11   12 ar   
    24   11   58 1    
    25   12   13 ar   
    26   12   92 1    
    27   13   14 ar   
    28   13   15 1    
    29   14   93 1    
    30   15   16 1    
    31   15   94 1    
    32   15   95 1    
    33   16   17 1    
    34   17   18 1    
    35   17   96 1    
    36   17   97 1    
    37   18   19 1    
    38   18   22 1    
    39   18   98 1    
    40   19   20 am   BACKBONE|DICT|INTERRES
    41   19   21 2    
    42   20   99 1    
    43   20  100 1    
    44   22   23 am   BACKBONE|DICT|INTERRES
    45   22  101 1    
    46   23   24 2    
    47   23   25 1    
    48   25   26 1    
    49   25   27 1    
    50   25  102 1    
    51   26  103 1    
    52   26  104 1    
    53   26  105 1    
    54   27   28 am   BACKBONE|DICT|INTERRES
    55   27  106 1    
    56   28   29 2    
    57   28   30 1    
    58   30   31 1    
    59   30   32 1    
    60   30  107 1    
    61   31  108 1    
    62   31  109 1    
    63   31  110 1    
    64   32   33 am   BACKBONE|DICT|INTERRES
    65   32  111 1    
    66   33   34 2    
    67   33   35 1    
    68   35   36 1    
    69   35   37 1    
    70   35  112 1    
    71   36  113 1    
    72   36  114 1    
    73   36  115 1    
    74   37   38 am   BACKBONE|DICT|INTERRES
    75   37  116 1    
    76   38   39 2    
    77   38   40 1    
    78   40   41 1    
    79   40   42 1    
    80   40  117 1    
    81   41  118 1    
    82   41  119 1    
    83   41  120 1    
    84   42   43 am   BACKBONE|DICT|INTERRES
    85   42  121 1    
    86   43   44 2    
    87   43   45 1    
    88   45   46 1    
    89   45   47 1    
    90   45  122 1    
    91   46  123 1    
    92   46  124 1    
    93   46  125 1    
    94   47   48 am   BACKBONE|DICT|INTERRES
    95   47  126 1    
    96   48   49 2    
    97   48   50 1    
    98   50   51 1    
    99   50   52 1    
   100   50  127 1    
   101   51  128 1    
   102   51  129 1    
   103   51  130 1    
   104   52   53 am   BACKBONE|DICT|INTERRES
   105   52  131 1    
   106   53   54 2    
   107   53   55 1    
   108   55   56 1    
   109   55   59 1    
   110   55  132 1    
   111   56   57 1    
   112   56  133 1    
   113   56  134 1    
   114   57   58 1    
   115   58  135 1    
   116   58  136 1    
   117   59   60 am   BACKBONE|DICT|INTERRES
   118   59  137 1    
   119   60   61 2    
   120   60   62 1    
   121   62   63 1    
   122   62   64 1    
   123   62  138 1    
   124   63  139 1    
   125   63  140 1    
   126   63  141 1    
   127   64   65 am   BACKBONE|DICT|INTERRES
   128   64  142 1    
   129   65   66 2    
   130   65   67 1    
   131   67   68 1    
   132   67   69 1    
   133   67  143 1    
   134   68  144 1    
   135   68  145 1    
   136   68  146 1    
   137   69   70 am   BACKBONE|DICT|INTERRES
   138   69  147 1    
   139   70   71 2    
   140   70   72 1    
   141   72   73 1    
   142   72   74 1    
   143   72  148 1    
   144   73  149 1    
   145   73  150 1    
   146   73  151 1    
   147   74   75 am   BACKBONE|DICT|INTERRES
   148   74  152 1    
   149   75   76 2    
   150   75   77 1    
   151   77   78 1    
   152   77   79 1    
   153   77  153 1    
   154   78  154 1    
   155   78  155 1    
   156   78  156 1    
   157   79   80 am   BACKBONE|DICT|INTERRES
   158   79  157 1    
   159   80   81 2    
@<TRIPOS>SUBSTRUCTURE
     1 UNK         1 GROUP             0       ****    0 ROOT    
