@<TRIPOS>MOLECULE
3R207
157   159    1
SMALL
USER_CHARGES


@<TRIPOS>ATOM
      1 CA        -50.1904  -30.4908    9.6076 C.3       0 UNK        -0.1975 
      2 C         -49.5865  -29.6558    8.4905 C.2       0 UNK         0.4852 
      3 O         -48.9316  -28.6514    8.7680 O.2       0 UNK        -0.5216 
      4 N         -49.7936  -30.0750    7.2333 N.am      1 UNK        -0.4461 
      5 CA        -49.3881  -29.4442    5.9613 C.3       1 UNK         0.0864 
      6 C6        -49.9581  -28.0169    5.7218 C.3       14 UNK        -0.0898 
      7 S7        -51.7099  -27.7738    6.1884 S.3       14 UNK        -0.2598 
      8 C8        -51.4489  -26.5223    7.4787 C.3       14 UNK         0.0286 
      9 C9        -52.7283  -26.0013    8.1042 C.ar      14 UNK        -0.0844 
     10 C10       -53.2331  -24.7592    7.7191 C.ar      14 UNK        -0.0881 
     11 C11       -54.2818  -24.1689    8.4296 C.ar      14 UNK        -0.0643 
     12 C12       -54.8807  -24.8741    9.4799 C.ar      14 UNK        -0.0930 
     13 C13       -54.4142  -26.1429    9.8470 C.ar      14 UNK        -0.0827 
     14 C14       -53.3292  -26.6941    9.1562 C.ar      14 UNK        -0.1249 
     15 C15       -55.0318  -26.8598   11.0452 C.3       14 UNK         0.0141 
     16 S16       -55.4865  -28.5944   10.7212 S.3       14 UNK        -0.2313 
     17 C17       -53.9523  -29.4896   11.1523 C.3       14 UNK        -0.0915 
     18 CA        -54.1643  -30.5140   12.2993 C.3       13 UNK         0.0968 
     19 C         -52.9863  -31.5275   12.4097 C.2       13 UNK         0.5732 
     20 N         -52.4695  -31.8430   13.5917 N.am      13 UNK        -0.7310 
     21 O         -52.5411  -32.0647   11.3989 O.2       13 UNK        -0.5035 
     22 N         -54.4745  -29.8476   13.5751 N.am      13 UNK        -0.4233 
     23 C         -55.4232  -30.2525   14.4293 C.2       13 UNK         0.4989 
     24 O         -56.2101  -31.1713   14.1916 O.2       13 UNK        -0.4996 
     25 CA        -55.4967  -29.5166   15.7844 C.3       12 UNK         0.0216 
     26 CB        -56.3566  -30.2634   16.8262 C.3       12 UNK        -0.1964 
     27 N         -54.1822  -29.1912   16.3534 N.am      12 UNK        -0.4276 
     28 C         -53.1696  -30.0357   16.6133 C.2       12 UNK         0.5020 
     29 O         -53.2244  -31.2465   16.3949 O.2       12 UNK        -0.5489 
     30 CA        -51.8591  -29.4422   17.1682 C.3       11 UNK         0.0294 
     31 CB        -50.6471  -29.9321   16.3543 C.3       11 UNK        -0.2019 
     32 N         -51.8710  -27.9795   17.1456 N.am      11 UNK        -0.4493 
     33 C         -52.1286  -27.1827   18.1919 C.2       11 UNK         0.4932 
     34 O         -52.2963  -27.5907   19.3409 O.2       11 UNK        -0.5029 
     35 CA        -52.2535  -25.6734   17.9023 C.3       10 UNK         0.0280 
     36 CB        -50.9401  -24.9516   18.2411 C.3       10 UNK        -0.1976 
     37 N         -52.6299  -25.3838   16.5129 N.am      10 UNK        -0.4242 
     38 C         -53.8194  -25.7022   15.9740 C.2       10 UNK         0.5072 
     39 O         -54.7414  -26.2022   16.6180 O.2       10 UNK        -0.5224 
     40 CA        -53.9927  -25.5274   14.4547 C.3       9 UNK         0.0343 
     41 CB        -54.6717  -24.1887   14.1330 C.3       9 UNK        -0.2003 
     42 N         -52.7295  -25.6375   13.7187 N.am      9 UNK        -0.4272 
     43 C         -51.9844  -26.7542   13.6638 C.2       9 UNK         0.4988 
     44 O         -52.3774  -27.8363   14.1020 O.2       9 UNK        -0.5108 
     45 CA        -50.5594  -26.6668   13.0791 C.3       8 UNK         0.0248 
     46 CB        -50.4698  -27.4471   11.7601 C.3       8 UNK        -0.2001 
     47 N         -50.0654  -25.3027   12.8683 N.am      8 UNK        -0.4140 
     48 C         -49.8855  -24.3815   13.8306 C.2       8 UNK         0.5028 
     49 O         -50.0506  -24.6114   15.0290 O.2       8 UNK        -0.5428 
     50 CA        -49.5618  -22.9423   13.3793 C.3       7 UNK         0.0264 
     51 CB        -48.0487  -22.6888   13.4353 C.3       7 UNK        -0.1988 
     52 N         -50.0658  -22.6387   12.0339 N.am      7 UNK        -0.4454 
     53 C         -51.3621  -22.6997   11.6858 C.2       7 UNK         0.5027 
     54 O         -52.2642  -22.8401   12.5113 O.2       7 UNK        -0.5083 
     55 CA        -51.7312  -22.7025   10.1866 C.3       6 UNK         0.0844 
     56 C56       -52.7535  -21.5839    9.8487 C.3       14 UNK        -0.0967 
     57 S57       -53.2969  -21.5756    8.1019 S.3       14 UNK        -0.2604 
     58 C58       -54.7090  -22.7410    8.1091 C.3       14 UNK         0.0134 
     59 N         -50.5866  -22.7489    9.2654 N.am      6 UNK        -0.4116 
     60 C         -49.7327  -23.7765    9.1423 C.2       5 UNK         0.5034 
     61 O         -49.7607  -24.7688    9.8737 O.2       5 UNK        -0.5045 
     62 CA        -48.6692  -23.6952    8.0268 C.3       5 UNK         0.0224 
     63 CB        -48.5710  -22.3140    7.3391 C.3       5 UNK        -0.1978 
     64 N         -47.3479  -24.1338    8.4876 N.am      5 UNK        -0.4737 
     65 C         -46.6334  -23.6121    9.4977 C.2       4 UNK         0.5027 
     66 O         -47.0141  -22.6663   10.1890 O.2       4 UNK        -0.5211 
     67 CA        -45.2574  -24.2439    9.7922 C.3       4 UNK         0.0297 
     68 CB        -45.3629  -25.2159   10.9790 C.3       4 UNK        -0.1993 
     69 N         -44.6771  -24.9534    8.6480 N.am      4 UNK        -0.4486 
     70 C         -44.2775  -24.3837    7.5017 C.2       3 UNK         0.4961 
     71 O         -44.2435  -23.1658    7.3234 O.2       3 UNK        -0.5105 
     72 CA        -43.8572  -25.3194    6.3474 C.3       3 UNK         0.0299 
     73 CB        -42.3343  -25.2618    6.1409 C.3       3 UNK        -0.1972 
     74 N         -44.2648  -26.7257    6.4873 N.am      3 UNK        -0.4305 
     75 C         -45.5233  -27.1763    6.5911 C.2       2 UNK         0.5006 
     76 O         -46.5109  -26.4360    6.6307 O.2       2 UNK        -0.5106 
     77 CA        -45.6846  -28.7023    6.7200 C.3       2 UNK         0.0296 
     78 CB        -45.0386  -29.2155    8.0203 C.3       2 UNK        -0.2002 
     79 N         -47.1014  -29.0470    6.7530 N.am      2 UNK        -0.4032 
     80 C         -47.8602  -29.4241    5.7204 C.2       1 UNK         0.5000 
     81 O         -47.4130  -29.7198    4.6103 O.2       1 UNK        -0.5238 
     82 H82       -50.4887  -31.4808    9.2630 H         1 UNK         0.0889 
     83 H83       -51.0717  -29.9919   10.0072 H         1 UNK         0.0889 
     84 H84       -49.4729  -30.6177   10.4178 H         1 UNK         0.0889 
     85 H85       -50.3210  -30.9280    7.1084 H         1 UNK         0.3028 
     86 H86       -49.8094  -30.0888    5.1881 H         1 UNK         0.0864 
     87 H87       -49.3468  -27.2798    6.2473 H         1 UNK         0.0720 
     88 H88       -49.8658  -27.7605    4.6648 H         1 UNK         0.0720 
     89 H89       -50.8975  -25.6913    7.0403 H         1 UNK         0.0814 
     90 H90       -50.8098  -26.9264    8.2638 H         1 UNK         0.0814 
     91 H91       -52.7542  -24.2088    6.9209 H         1 UNK         0.1469 
     92 H92       -55.6880  -24.4179   10.0362 H         1 UNK         0.1381 
     93 H93       -52.9213  -27.6485    9.4519 H         1 UNK         0.1206 
     94 H94       -55.9297  -26.3368   11.3773 H         1 UNK         0.0813 
     95 H95       -54.3339  -26.8206   11.8765 H         1 UNK         0.0813 
     96 H96       -53.6202  -29.9875   10.2397 H         1 UNK         0.0638 
     97 H97       -53.1628  -28.7884   11.4221 H         1 UNK         0.0638 
     98 H98       -55.0149  -31.1312   12.0057 H         1 UNK         0.0568 
     99 H99       -52.8557  -31.4819   14.4570 H         1 UNK         0.3450 
    100 H100      -51.7162  -32.5100   13.6257 H         1 UNK         0.3450 
    101 H101      -53.8255  -29.1189   13.8582 H         1 UNK         0.2987 
    102 H102      -55.9838  -28.5622   15.5792 H         1 UNK         0.0766 
    103 H103      -55.9491  -31.2493   17.0529 H         1 UNK         0.0798 
    104 H104      -56.4215  -29.7046   17.7598 H         1 UNK         0.0798 
    105 H105      -57.3760  -30.4064   16.4655 H         1 UNK         0.0798 
    106 H106      -54.0459  -28.2099   16.5663 H         1 UNK         0.3198 
    107 H107      -51.7507  -29.8021   18.1934 H         1 UNK         0.0843 
    108 H108      -50.5544  -31.0178   16.4029 H         1 UNK         0.0831 
    109 H109      -49.7163  -29.5134   16.7370 H         1 UNK         0.0831 
    110 H110      -50.7298  -29.6608   15.3010 H         1 UNK         0.0831 
    111 H111      -51.7750  -27.5602   16.2296 H         1 UNK         0.3133 
    112 H112      -53.0369  -25.2762   18.5512 H         1 UNK         0.0566 
    113 H113      -51.0195  -23.8779   18.0697 H         1 UNK         0.0814 
    114 H114      -50.6766  -25.0940   19.2900 H         1 UNK         0.0814 
    115 H115      -50.1078  -25.3257   17.6436 H         1 UNK         0.0814 
    116 H116      -51.9001  -25.0025   15.9177 H         1 UNK         0.3091 
    117 H117      -54.6510  -26.3296   14.1165 H         1 UNK         0.0702 
    118 H118      -54.8363  -24.0744   13.0612 H         1 UNK         0.0785 
    119 H119      -54.0743  -23.3418   14.4728 H         1 UNK         0.0785 
    120 H120      -55.6449  -24.1179   14.6207 H         1 UNK         0.0785 
    121 H121      -52.3660  -24.7774   13.3228 H         1 UNK         0.2998 
    122 H122      -49.8943  -27.1448   13.8008 H         1 UNK         0.0697 
    123 H123      -51.1121  -27.0151   10.9929 H         1 UNK         0.0825 
    124 H124      -50.7703  -28.4855   11.9014 H         1 UNK         0.0825 
    125 H125      -49.4516  -27.4572   11.3699 H         1 UNK         0.0825 
    126 H126      -49.9142  -25.0303   11.9010 H         1 UNK         0.3029 
    127 H127      -50.0517  -22.2618   14.0791 H         1 UNK         0.0897 
    128 H128      -47.8042  -21.6647   13.1527 H         1 UNK         0.0792 
    129 H129      -47.6639  -22.8487   14.4435 H         1 UNK         0.0792 
    130 H130      -47.5057  -23.3592   12.7695 H         1 UNK         0.0792 
    131 H131      -49.3732  -22.5403   11.3029 H         1 UNK         0.3086 
    132 H132      -52.2454  -23.6543   10.0611 H         1 UNK         0.0583 
    133 H133      -53.6382  -21.6697   10.4832 H         1 UNK         0.1020 
    134 H134      -52.3232  -20.6051   10.0684 H         1 UNK         0.1020 
    135 H135      -55.4591  -22.3871    8.8180 H         1 UNK         0.0694 
    136 H136      -55.1810  -22.7287    7.1259 H         1 UNK         0.0694 
    137 H137      -50.4960  -21.9653    8.6356 H         1 UNK         0.2989 
    138 H138      -48.9690  -24.4183    7.2681 H         1 UNK         0.1055 
    139 H139      -47.7993  -22.3179    6.5689 H         1 UNK         0.0806 
    140 H140      -48.3230  -21.5200    8.0448 H         1 UNK         0.0806 
    141 H141      -49.5056  -22.0456    6.8448 H         1 UNK         0.0806 
    142 H142      -46.9613  -24.9317    7.9922 H         1 UNK         0.3061 
    143 H143      -44.5768  -23.4352   10.0665 H         1 UNK         0.0734 
    144 H144      -45.7302  -24.7050   11.8693 H         1 UNK         0.0832 
    145 H145      -46.0500  -26.0370   10.7688 H         1 UNK         0.0832 
    146 H146      -44.3926  -25.6430   11.2329 H         1 UNK         0.0832 
    147 H147      -44.6611  -25.9608    8.7001 H         1 UNK         0.3156 
    148 H148      -44.3361  -24.9359    5.4442 H         1 UNK         0.0589 
    149 H149      -41.7953  -25.6607    7.0013 H         1 UNK         0.0808 
    150 H150      -42.0296  -25.8269    5.2598 H         1 UNK         0.0808 
    151 H151      -41.9970  -24.2346    5.9939 H         1 UNK         0.0808 
    152 H152      -43.5166  -27.4044    6.4757 H         1 UNK         0.3098 
    153 H153      -45.2020  -29.1778    5.8637 H         1 UNK         0.0720 
    154 H154      -45.1871  -30.2896    8.1345 H         1 UNK         0.0791 
    155 H155      -45.4610  -28.7283    8.9005 H         1 UNK         0.0791 
    156 H156      -43.9622  -29.0410    8.0318 H         1 UNK         0.0791 
    157 H157      -47.6071  -28.7772    7.5968 H         1 UNK         0.3028 
@<TRIPOS>BOND
     1    1    2 1    
     2    1   82 1    
     3    1   83 1    
     4    1   84 1    
     5    2    3 2    
     6    2    4 am   BACKBONE|DICT|INTERRES
     7    4    5 1    
     8    4   85 1    
     9    5    6 1    
    10    5   80 1    
    11    5   86 1    
    12    6    7 1    
    13    6   87 1    
    14    6   88 1    
    15    7    8 1    
    16    8    9 1    
    17    8   89 1    
    18    8   90 1    
    19    9   10 ar   
    20    9   14 ar   
    21   10   11 ar   
    22   10   91 1    
    23   11   12 ar   
    24   11   58 1    
    25   12   13 ar   
    26   12   92 1    
    27   13   14 ar   
    28   13   15 1    
    29   14   93 1    
    30   15   16 1    
    31   15   94 1    
    32   15   95 1    
    33   16   17 1    
    34   17   18 1    
    35   17   96 1    
    36   17   97 1    
    37   18   19 1    
    38   18   22 1    
    39   18   98 1    
    40   19   20 am   BACKBONE|DICT|INTERRES
    41   19   21 2    
    42   20   99 1    
    43   20  100 1    
    44   22   23 am   BACKBONE|DICT|INTERRES
    45   22  101 1    
    46   23   24 2    
    47   23   25 1    
    48   25   26 1    
    49   25   27 1    
    50   25  102 1    
    51   26  103 1    
    52   26  104 1    
    53   26  105 1    
    54   27   28 am   BACKBONE|DICT|INTERRES
    55   27  106 1    
    56   28   29 2    
    57   28   30 1    
    58   30   31 1    
    59   30   32 1    
    60   30  107 1    
    61   31  108 1    
    62   31  109 1    
    63   31  110 1    
    64   32   33 am   BACKBONE|DICT|INTERRES
    65   32  111 1    
    66   33   34 2    
    67   33   35 1    
    68   35   36 1    
    69   35   37 1    
    70   35  112 1    
    71   36  113 1    
    72   36  114 1    
    73   36  115 1    
    74   37   38 am   BACKBONE|DICT|INTERRES
    75   37  116 1    
    76   38   39 2    
    77   38   40 1    
    78   40   41 1    
    79   40   42 1    
    80   40  117 1    
    81   41  118 1    
    82   41  119 1    
    83   41  120 1    
    84   42   43 am   BACKBONE|DICT|INTERRES
    85   42  121 1    
    86   43   44 2    
    87   43   45 1    
    88   45   46 1    
    89   45   47 1    
    90   45  122 1    
    91   46  123 1    
    92   46  124 1    
    93   46  125 1    
    94   47   48 am   BACKBONE|DICT|INTERRES
    95   47  126 1    
    96   48   49 2    
    97   48   50 1    
    98   50   51 1    
    99   50   52 1    
   100   50  127 1    
   101   51  128 1    
   102   51  129 1    
   103   51  130 1    
   104   52   53 am   BACKBONE|DICT|INTERRES
   105   52  131 1    
   106   53   54 2    
   107   53   55 1    
   108   55   56 1    
   109   55   59 1    
   110   55  132 1    
   111   56   57 1    
   112   56  133 1    
   113   56  134 1    
   114   57   58 1    
   115   58  135 1    
   116   58  136 1    
   117   59   60 am   BACKBONE|DICT|INTERRES
   118   59  137 1    
   119   60   61 2    
   120   60   62 1    
   121   62   63 1    
   122   62   64 1    
   123   62  138 1    
   124   63  139 1    
   125   63  140 1    
   126   63  141 1    
   127   64   65 am   BACKBONE|DICT|INTERRES
   128   64  142 1    
   129   65   66 2    
   130   65   67 1    
   131   67   68 1    
   132   67   69 1    
   133   67  143 1    
   134   68  144 1    
   135   68  145 1    
   136   68  146 1    
   137   69   70 am   BACKBONE|DICT|INTERRES
   138   69  147 1    
   139   70   71 2    
   140   70   72 1    
   141   72   73 1    
   142   72   74 1    
   143   72  148 1    
   144   73  149 1    
   145   73  150 1    
   146   73  151 1    
   147   74   75 am   BACKBONE|DICT|INTERRES
   148   74  152 1    
   149   75   76 2    
   150   75   77 1    
   151   77   78 1    
   152   77   79 1    
   153   77  153 1    
   154   78  154 1    
   155   78  155 1    
   156   78  156 1    
   157   79   80 am   BACKBONE|DICT|INTERRES
   158   79  157 1    
   159   80   81 2    
@<TRIPOS>SUBSTRUCTURE
     1 UNK         1 GROUP             0       ****    0 ROOT    
