@<TRIPOS>MOLECULE
3R207
157   159    1
SMALL
USER_CHARGES


@<TRIPOS>ATOM
      1 CA        -51.2863  -31.2949    6.2460 C.3       0 UNK        -0.1975 
      2 C         -51.0261  -29.9948    5.5041 C.2       0 UNK         0.4852 
      3 O         -50.4124  -30.0115    4.4364 O.2       0 UNK        -0.5216 
      4 N         -51.4796  -28.8656    6.0657 N.am      1 UNK        -0.4461 
      5 CA        -51.3097  -27.5244    5.4868 C.3       1 UNK         0.0864 
      6 C6        -52.3067  -26.4947    6.0769 C.3       14 UNK        -0.0898 
      7 S7        -54.0488  -26.9790    5.8111 S.3       14 UNK        -0.2598 
      8 C8        -54.6837  -27.1494    7.5111 C.3       14 UNK         0.0286 
      9 C9        -54.0136  -28.2933    8.2569 C.ar      14 UNK        -0.0844 
     10 C10       -53.0033  -28.0288    9.1844 C.ar      14 UNK        -0.0881 
     11 C11       -52.3438  -29.0738    9.8368 C.ar      14 UNK        -0.0643 
     12 C12       -52.7370  -30.3916    9.5835 C.ar      14 UNK        -0.0930 
     13 C13       -53.7781  -30.6694    8.6910 C.ar      14 UNK        -0.0827 
     14 C14       -54.3994  -29.6146    8.0159 C.ar      14 UNK        -0.1249 
     15 C15       -54.2125  -32.1095    8.4408 C.3       14 UNK         0.0141 
     16 S16       -54.7583  -32.9477    9.9652 S.3       14 UNK        -0.2313 
     17 C17       -56.5009  -32.4188   10.1336 C.3       14 UNK        -0.0915 
     18 CA        -56.7179  -30.9099   10.4584 C.3       13 UNK         0.0968 
     19 C         -58.2212  -30.5531   10.6685 C.2       13 UNK         0.5732 
     20 N         -58.5631  -29.5985   11.5254 N.am      13 UNK        -0.7310 
     21 O         -59.0943  -31.1241   10.0187 O.2       13 UNK        -0.5035 
     22 N         -55.7885  -30.3904   11.4783 N.am      13 UNK        -0.4233 
     23 C         -55.7432  -30.7502   12.7694 C.2       13 UNK         0.4989 
     24 O         -56.5391  -31.5215   13.3051 O.2       13 UNK        -0.4996 
     25 CA        -54.6207  -30.1293   13.6097 C.3       12 UNK         0.0216 
     26 CB        -53.3140  -30.9303   13.4369 C.3       12 UNK        -0.1964 
     27 N         -54.4368  -28.7170   13.2633 N.am      12 UNK        -0.4276 
     28 C         -53.7389  -27.8234   13.9725 C.2       12 UNK         0.5020 
     29 O         -53.1030  -28.1058   14.9902 O.2       12 UNK        -0.5489 
     30 CA        -53.7247  -26.3866   13.4110 C.3       11 UNK         0.0294 
     31 CB        -55.1187  -25.8990   12.9546 C.3       11 UNK        -0.2019 
     32 N         -53.1006  -25.4197   14.3205 N.am      11 UNK        -0.4493 
     33 C         -53.5340  -24.9925   15.5159 C.2       11 UNK         0.4932 
     34 O         -54.6055  -25.3198   16.0304 O.2       11 UNK        -0.5029 
     35 CA        -52.5896  -24.0125   16.2393 C.3       10 UNK         0.0280 
     36 CB        -53.0856  -23.5873   17.6384 C.3       10 UNK        -0.1976 
     37 N         -51.2138  -24.5211   16.2776 N.am      10 UNK        -0.4242 
     38 C         -50.7476  -25.5918   16.9397 C.2       10 UNK         0.5072 
     39 O         -51.4077  -26.2559   17.7396 O.2       10 UNK        -0.5224 
     40 CA        -49.2897  -26.0097   16.6591 C.3       9 UNK         0.0343 
     41 CB        -49.2635  -27.2315   15.7262 C.3       9 UNK        -0.2003 
     42 N         -48.4667  -24.9465   16.0738 N.am      9 UNK        -0.4272 
     43 C         -48.0483  -23.8527   16.7274 C.2       9 UNK         0.4988 
     44 O         -48.2660  -23.6402   17.9204 O.2       9 UNK        -0.5108 
     45 CA        -47.2812  -22.8061   15.9023 C.3       8 UNK         0.0248 
     46 CB        -45.7889  -23.1641   15.8071 C.3       8 UNK        -0.2001 
     47 N         -47.8424  -22.6485   14.5579 N.am      8 UNK        -0.4140 
     48 C         -48.9987  -22.0235   14.2910 C.2       8 UNK         0.5028 
     49 O         -49.6894  -21.4663   15.1441 O.2       8 UNK        -0.5428 
     50 CA        -49.4867  -22.0492   12.8321 C.3       7 UNK         0.0264 
     51 CB        -48.8917  -20.8703   12.0468 C.3       7 UNK        -0.1988 
     52 N         -49.1884  -23.3163   12.1524 N.am      7 UNK        -0.4454 
     53 C         -49.7700  -24.4801   12.4837 C.2       7 UNK         0.5027 
     54 O         -50.6442  -24.5684   13.3453 O.2       7 UNK        -0.5083 
     55 CA        -49.2886  -25.7756   11.8012 C.3       6 UNK         0.0844 
     56 C56       -50.1771  -26.1537   10.5931 C.3       14 UNK        -0.0967 
     57 S57       -49.8480  -27.8623   10.0328 S.3       14 UNK        -0.2604 
     58 C58       -51.2100  -28.7881   10.8137 C.3       14 UNK         0.0134 
     59 N         -47.8613  -25.7686   11.4759 N.am      6 UNK        -0.4116 
     60 C         -46.8716  -25.7091   12.3772 C.2       5 UNK         0.5034 
     61 O         -47.0561  -25.5503   13.5842 O.2       5 UNK        -0.5045 
     62 CA        -45.4399  -25.8375   11.8427 C.3       5 UNK         0.0224 
     63 CB        -45.1213  -27.3042   11.5087 C.3       5 UNK        -0.1978 
     64 N         -45.2605  -25.0164   10.6460 N.am      5 UNK        -0.4737 
     65 C         -44.7091  -23.7963   10.6360 C.2       4 UNK         0.5027 
     66 O         -44.1976  -23.2676   11.6232 O.2       4 UNK        -0.5211 
     67 CA        -44.7432  -23.0209    9.3039 C.3       4 UNK         0.0297 
     68 CB        -43.4499  -23.2647    8.5098 C.3       4 UNK        -0.1993 
     69 N         -45.8988  -23.3325    8.4547 N.am      4 UNK        -0.4486 
     70 C         -47.1785  -23.1457    8.8064 C.2       3 UNK         0.4961 
     71 O         -47.5313  -22.6870    9.8910 O.2       3 UNK        -0.5105 
     72 CA        -48.2582  -23.5953    7.8085 C.3       3 UNK         0.0299 
     73 CB        -48.5314  -22.4862    6.7810 C.3       3 UNK        -0.1972 
     74 N         -48.0019  -24.8584    7.1043 N.am      3 UNK        -0.4305 
     75 C         -47.5649  -26.0123    7.6290 C.2       2 UNK         0.5006 
     76 O         -47.1610  -26.1364    8.7860 O.2       2 UNK        -0.5106 
     77 CA        -47.6390  -27.2422    6.7093 C.3       2 UNK         0.0296 
     78 CB        -46.9027  -28.4604    7.2981 C.3       2 UNK        -0.2002 
     79 N         -49.0335  -27.6100    6.4564 N.am      2 UNK        -0.4032 
     80 C         -49.8591  -27.0004    5.5923 C.2       1 UNK         0.5000 
     81 O         -49.5124  -26.0441    4.8946 O.2       1 UNK        -0.5238 
     82 H82       -51.1994  -31.1563    7.3227 H         1 UNK         0.0889 
     83 H83       -50.5657  -32.0568    5.9497 H         1 UNK         0.0889 
     84 H84       -52.2857  -31.6627    6.0172 H         1 UNK         0.0889 
     85 H85       -52.0197  -28.9107    6.9211 H         1 UNK         0.3028 
     86 H86       -51.5214  -27.6029    4.4180 H         1 UNK         0.0864 
     87 H87       -52.1712  -25.5220    5.5996 H         1 UNK         0.0720 
     88 H88       -52.1144  -26.3323    7.1377 H         1 UNK         0.0720 
     89 H89       -55.7595  -27.3260    7.4693 H         1 UNK         0.0814 
     90 H90       -54.5522  -26.2061    8.0437 H         1 UNK         0.0814 
     91 H91       -52.7110  -27.0070    9.3757 H         1 UNK         0.1469 
     92 H92       -52.2388  -31.2095   10.0860 H         1 UNK         0.1381 
     93 H93       -55.1868  -29.8183    7.3027 H         1 UNK         0.1206 
     94 H94       -55.0046  -32.1617    7.6923 H         1 UNK         0.0813 
     95 H95       -53.3670  -32.6628    8.0312 H         1 UNK         0.0813 
     96 H96       -56.9451  -33.0319   10.9195 H         1 UNK         0.0638 
     97 H97       -57.0237  -32.6869    9.2140 H         1 UNK         0.0638 
     98 H98       -56.4678  -30.3600    9.5542 H         1 UNK         0.0568 
     99 H99       -59.5376  -29.3702   11.6425 H         1 UNK         0.3450 
    100 H100      -57.8643  -29.1202   12.0683 H         1 UNK         0.3450 
    101 H101      -55.0477  -29.8144   11.1081 H         1 UNK         0.2987 
    102 H102      -54.9277  -30.1839   14.6564 H         1 UNK         0.0766 
    103 H103      -52.9272  -30.8570   12.4217 H         1 UNK         0.0798 
    104 H104      -53.4749  -31.9885   13.6475 H         1 UNK         0.0798 
    105 H105      -52.5353  -30.5847   14.1164 H         1 UNK         0.0798 
    106 H106      -54.9699  -28.3809   12.4750 H         1 UNK         0.3198 
    107 H107      -53.0801  -26.4106   12.5319 H         1 UNK         0.0843 
    108 H108      -55.8618  -25.9952   13.7473 H         1 UNK         0.0831 
    109 H109      -55.4817  -26.4615   12.0943 H         1 UNK         0.0831 
    110 H110      -55.0904  -24.8516   12.6534 H         1 UNK         0.0831 
    111 H111      -52.1821  -25.0915   14.0205 H         1 UNK         0.3133 
    112 H112      -52.5553  -23.1129   15.6228 H         1 UNK         0.0566 
    113 H113      -52.3894  -22.8954   18.1123 H         1 UNK         0.0814 
    114 H114      -54.0496  -23.0820   17.5695 H         1 UNK         0.0814 
    115 H115      -53.2175  -24.4408   18.3037 H         1 UNK         0.0814 
    116 H116      -50.5820  -24.0889   15.6161 H         1 UNK         0.3091 
    117 H117      -48.8397  -26.2968   17.6117 H         1 UNK         0.0702 
    118 H118      -49.7779  -28.0789   16.1816 H         1 UNK         0.0785 
    119 H119      -49.7653  -27.0228   14.7817 H         1 UNK         0.0785 
    120 H120      -48.2437  -27.5481   15.5063 H         1 UNK         0.0785 
    121 H121      -48.1633  -25.0790   15.1129 H         1 UNK         0.2998 
    122 H122      -47.3639  -21.8483   16.4208 H         1 UNK         0.0697 
    123 H123      -45.6274  -24.1187   15.3058 H         1 UNK         0.0825 
    124 H124      -45.3446  -23.2408   16.8003 H         1 UNK         0.0825 
    125 H125      -45.2319  -22.4019   15.2618 H         1 UNK         0.0825 
    126 H126      -47.3578  -23.1139   13.8033 H         1 UNK         0.3029 
    127 H127      -50.5721  -21.9261   12.8487 H         1 UNK         0.0897 
    128 H128      -49.2867  -20.8310   11.0315 H         1 UNK         0.0792 
    129 H129      -47.8048  -20.9353   11.9813 H         1 UNK         0.0792 
    130 H130      -49.1337  -19.9202   12.5250 H         1 UNK         0.0792 
    131 H131      -48.4978  -23.2822   11.4048 H         1 UNK         0.3086 
    132 H132      -49.4211  -26.5633   12.5447 H         1 UNK         0.0583 
    133 H133      -51.2334  -26.0516   10.8443 H         1 UNK         0.1020 
    134 H134      -50.0001  -25.4748    9.7586 H         1 UNK         0.1020 
    135 H135      -50.7984  -29.7223   11.1984 H         1 UNK         0.0694 
    136 H136      -51.5929  -28.2512   11.6815 H         1 UNK         0.0694 
    137 H137      -47.6240  -25.9229   10.4977 H         1 UNK         0.2989 
    138 H138      -44.7588  -25.5131   12.6328 H         1 UNK         0.1055 
    139 H139      -45.2542  -27.9415   12.3841 H         1 UNK         0.0806 
    140 H140      -44.0885  -27.4177   11.1792 H         1 UNK         0.0806 
    141 H141      -45.7674  -27.6931   10.7200 H         1 UNK         0.0806 
    142 H142      -45.7115  -25.3515    9.7990 H         1 UNK         0.3061 
    143 H143      -44.7976  -21.9584    9.5506 H         1 UNK         0.0734 
    144 H144      -42.5724  -23.0158    9.1085 H         1 UNK         0.0832 
    145 H145      -43.4114  -22.6483    7.6116 H         1 UNK         0.0832 
    146 H146      -43.3522  -24.3084    8.2082 H         1 UNK         0.0832 
    147 H147      -45.7083  -23.7393    7.5505 H         1 UNK         0.3156 
    148 H148      -49.1744  -23.7430    8.3819 H         1 UNK         0.0589 
    149 H149      -47.6749  -22.3232    6.1256 H         1 UNK         0.0808 
    150 H150      -49.3913  -22.7270    6.1555 H         1 UNK         0.0808 
    151 H151      -48.7493  -21.5384    7.2758 H         1 UNK         0.0808 
    152 H152      -48.3516  -24.9112    6.1527 H         1 UNK         0.3098 
    153 H153      -47.1582  -26.9832    5.7636 H         1 UNK         0.0720 
    154 H154      -46.9229  -29.3061    6.6106 H         1 UNK         0.0791 
    155 H155      -47.3448  -28.7844    8.2414 H         1 UNK         0.0791 
    156 H156      -45.8554  -28.2262    7.4935 H         1 UNK         0.0791 
    157 H157      -49.4116  -28.3537    7.0252 H         1 UNK         0.3028 
@<TRIPOS>BOND
     1    1    2 1    
     2    1   82 1    
     3    1   83 1    
     4    1   84 1    
     5    2    3 2    
     6    2    4 am   BACKBONE|DICT|INTERRES
     7    4    5 1    
     8    4   85 1    
     9    5    6 1    
    10    5   80 1    
    11    5   86 1    
    12    6    7 1    
    13    6   87 1    
    14    6   88 1    
    15    7    8 1    
    16    8    9 1    
    17    8   89 1    
    18    8   90 1    
    19    9   10 ar   
    20    9   14 ar   
    21   10   11 ar   
    22   10   91 1    
    23   11   12 ar   
    24   11   58 1    
    25   12   13 ar   
    26   12   92 1    
    27   13   14 ar   
    28   13   15 1    
    29   14   93 1    
    30   15   16 1    
    31   15   94 1    
    32   15   95 1    
    33   16   17 1    
    34   17   18 1    
    35   17   96 1    
    36   17   97 1    
    37   18   19 1    
    38   18   22 1    
    39   18   98 1    
    40   19   20 am   BACKBONE|DICT|INTERRES
    41   19   21 2    
    42   20   99 1    
    43   20  100 1    
    44   22   23 am   BACKBONE|DICT|INTERRES
    45   22  101 1    
    46   23   24 2    
    47   23   25 1    
    48   25   26 1    
    49   25   27 1    
    50   25  102 1    
    51   26  103 1    
    52   26  104 1    
    53   26  105 1    
    54   27   28 am   BACKBONE|DICT|INTERRES
    55   27  106 1    
    56   28   29 2    
    57   28   30 1    
    58   30   31 1    
    59   30   32 1    
    60   30  107 1    
    61   31  108 1    
    62   31  109 1    
    63   31  110 1    
    64   32   33 am   BACKBONE|DICT|INTERRES
    65   32  111 1    
    66   33   34 2    
    67   33   35 1    
    68   35   36 1    
    69   35   37 1    
    70   35  112 1    
    71   36  113 1    
    72   36  114 1    
    73   36  115 1    
    74   37   38 am   BACKBONE|DICT|INTERRES
    75   37  116 1    
    76   38   39 2    
    77   38   40 1    
    78   40   41 1    
    79   40   42 1    
    80   40  117 1    
    81   41  118 1    
    82   41  119 1    
    83   41  120 1    
    84   42   43 am   BACKBONE|DICT|INTERRES
    85   42  121 1    
    86   43   44 2    
    87   43   45 1    
    88   45   46 1    
    89   45   47 1    
    90   45  122 1    
    91   46  123 1    
    92   46  124 1    
    93   46  125 1    
    94   47   48 am   BACKBONE|DICT|INTERRES
    95   47  126 1    
    96   48   49 2    
    97   48   50 1    
    98   50   51 1    
    99   50   52 1    
   100   50  127 1    
   101   51  128 1    
   102   51  129 1    
   103   51  130 1    
   104   52   53 am   BACKBONE|DICT|INTERRES
   105   52  131 1    
   106   53   54 2    
   107   53   55 1    
   108   55   56 1    
   109   55   59 1    
   110   55  132 1    
   111   56   57 1    
   112   56  133 1    
   113   56  134 1    
   114   57   58 1    
   115   58  135 1    
   116   58  136 1    
   117   59   60 am   BACKBONE|DICT|INTERRES
   118   59  137 1    
   119   60   61 2    
   120   60   62 1    
   121   62   63 1    
   122   62   64 1    
   123   62  138 1    
   124   63  139 1    
   125   63  140 1    
   126   63  141 1    
   127   64   65 am   BACKBONE|DICT|INTERRES
   128   64  142 1    
   129   65   66 2    
   130   65   67 1    
   131   67   68 1    
   132   67   69 1    
   133   67  143 1    
   134   68  144 1    
   135   68  145 1    
   136   68  146 1    
   137   69   70 am   BACKBONE|DICT|INTERRES
   138   69  147 1    
   139   70   71 2    
   140   70   72 1    
   141   72   73 1    
   142   72   74 1    
   143   72  148 1    
   144   73  149 1    
   145   73  150 1    
   146   73  151 1    
   147   74   75 am   BACKBONE|DICT|INTERRES
   148   74  152 1    
   149   75   76 2    
   150   75   77 1    
   151   77   78 1    
   152   77   79 1    
   153   77  153 1    
   154   78  154 1    
   155   78  155 1    
   156   78  156 1    
   157   79   80 am   BACKBONE|DICT|INTERRES
   158   79  157 1    
   159   80   81 2    
@<TRIPOS>SUBSTRUCTURE
     1 UNK         1 GROUP             0       ****    0 ROOT    
