@<TRIPOS>MOLECULE
3R207
157   159    1
SMALL
USER_CHARGES


@<TRIPOS>ATOM
      1 CA        -51.2013  -21.1702    3.8831 C.3       0 UNK        -0.1975 
      2 C         -51.1071  -22.3751    4.8079 C.2       0 UNK         0.4852 
      3 O         -51.9902  -22.5746    5.6429 O.2       0 UNK        -0.5216 
      4 N         -50.0459  -23.1768    4.6654 N.am      1 UNK        -0.4461 
      5 CA        -49.7775  -24.3573    5.4820 C.3       1 UNK         0.0864 
      6 C6        -50.6156  -25.5911    5.0473 C.3       14 UNK        -0.0898 
      7 S7        -50.4347  -26.9923    6.1996 S.3       14 UNK        -0.2598 
      8 C8        -51.9967  -26.8619    7.1389 C.3       14 UNK         0.0286 
      9 C9        -52.0764  -27.7036    8.4147 C.ar      14 UNK        -0.0844 
     10 C10       -51.1300  -28.6821    8.7471 C.ar      14 UNK        -0.0881 
     11 C11       -51.2397  -29.4154    9.9314 C.ar      14 UNK        -0.0643 
     12 C12       -52.3161  -29.1770   10.7917 C.ar      14 UNK        -0.0930 
     13 C13       -53.2806  -28.2186   10.4652 C.ar      14 UNK        -0.0827 
     14 C14       -53.1517  -27.4867    9.2814 C.ar      14 UNK        -0.1249 
     15 C15       -54.4775  -27.9857   11.3734 C.3       14 UNK         0.0141 
     16 S16       -55.8012  -29.1717   10.9895 S.3       14 UNK        -0.2313 
     17 C17       -57.2985  -28.3510   11.6397 C.3       14 UNK        -0.0915 
     18 CA        -57.2505  -27.8949   13.1306 C.3       13 UNK         0.0968 
     19 C         -58.5911  -27.2531   13.5971 C.2       13 UNK         0.5732 
     20 N         -59.0161  -27.4344   14.8420 N.am      13 UNK        -0.7310 
     21 O         -59.2457  -26.5509   12.8299 O.2       13 UNK        -0.5035 
     22 N         -56.7062  -28.8977   14.0608 N.am      13 UNK        -0.4233 
     23 C         -57.1168  -30.1619   14.2341 C.2       13 UNK         0.4989 
     24 O         -58.0630  -30.6652   13.6266 O.2       13 UNK        -0.4996 
     25 CA        -56.3687  -31.0063   15.2911 C.3       12 UNK         0.0216 
     26 CB        -56.1335  -32.4583   14.8216 C.3       12 UNK        -0.1964 
     27 N         -55.1245  -30.3892   15.7798 N.am      12 UNK        -0.4276 
     28 C         -53.9950  -30.1607   15.0923 C.2       12 UNK         0.5020 
     29 O         -53.7826  -30.5434   13.9413 O.2       12 UNK        -0.5489 
     30 CA        -52.9502  -29.2808   15.7975 C.3       11 UNK         0.0294 
     31 CB        -51.5444  -29.8972   15.7262 C.3       11 UNK        -0.2019 
     32 N         -52.9241  -27.9357   15.2181 N.am      11 UNK        -0.4493 
     33 C         -53.9247  -27.0460   15.2870 C.2       11 UNK         0.4932 
     34 O         -55.0172  -27.2873   15.8040 O.2       11 UNK        -0.5029 
     35 CA        -53.6430  -25.6556   14.6873 C.3       10 UNK         0.0280 
     36 CB        -54.7367  -24.6180   15.0140 C.3       10 UNK        -0.1976 
     37 N         -52.3140  -25.1621   15.0629 N.am      10 UNK        -0.4242 
     38 C         -51.8315  -24.9532   16.2985 C.2       10 UNK         0.5072 
     39 O         -52.5020  -25.0362   17.3283 O.2       10 UNK        -0.5224 
     40 CA        -50.3297  -24.6305   16.4165 C.3       9 UNK         0.0343 
     41 CB        -49.5515  -25.8944   16.8174 C.3       9 UNK        -0.2003 
     42 N         -49.7504  -24.0814   15.1875 N.am      9 UNK        -0.4272 
     43 C         -50.0049  -22.8511   14.7186 C.2       9 UNK         0.4988 
     44 O         -50.6954  -22.0203   15.3098 O.2       9 UNK        -0.5108 
     45 CA        -49.4097  -22.4950   13.3476 C.3       8 UNK         0.0248 
     46 CB        -47.9472  -22.0454   13.4942 C.3       8 UNK        -0.2001 
     47 N         -49.4938  -23.5982   12.3869 N.am      8 UNK        -0.4140 
     48 C         -50.6351  -24.1064   11.8975 C.2       8 UNK         0.5028 
     49 O         -51.7544  -23.6823   12.1834 O.2       8 UNK        -0.5428 
     50 CA        -50.5086  -25.3198   10.9642 C.3       7 UNK         0.0264 
     51 CB        -50.0046  -24.9029    9.5717 C.3       7 UNK        -0.1988 
     52 N         -49.6289  -26.3451   11.5223 N.am      7 UNK        -0.4454 
     53 C         -49.9107  -27.0945   12.5990 C.2       7 UNK         0.5027 
     54 O         -50.9680  -27.0334   13.2275 O.2       7 UNK        -0.5083 
     55 CA        -48.8070  -28.0474   13.0984 C.3       6 UNK         0.0844 
     56 C56       -49.0204  -29.5018   12.6159 C.3       14 UNK        -0.0967 
     57 S57       -48.6424  -29.7828   10.8540 S.3       14 UNK        -0.2604 
     58 C58       -50.2080  -30.4889   10.2460 C.3       14 UNK         0.0134 
     59 N         -47.4574  -27.5476   12.8193 N.am      6 UNK        -0.4116 
     60 C         -46.9251  -26.4632   13.3980 C.2       5 UNK         0.5034 
     61 O         -47.5133  -25.7664   14.2263 O.2       5 UNK        -0.5045 
     62 CA        -45.5137  -26.0686   12.9416 C.3       5 UNK         0.0224 
     63 CB        -44.4713  -27.1089   13.3842 C.3       5 UNK        -0.1978 
     64 N         -45.4063  -25.8437   11.4966 N.am      5 UNK        -0.4737 
     65 C         -46.0791  -24.9149   10.8067 C.2       4 UNK         0.5027 
     66 O         -46.9838  -24.2343   11.2842 O.2       4 UNK        -0.5211 
     67 CA        -45.6592  -24.6754    9.3485 C.3       4 UNK         0.0297 
     68 CB        -44.1660  -24.3070    9.2316 C.3       4 UNK        -0.1993 
     69 N         -46.0176  -25.7564    8.4273 N.am      4 UNK        -0.4486 
     70 C         -45.5759  -27.0241    8.4063 C.2       3 UNK         0.4961 
     71 O         -44.8115  -27.5028    9.2452 O.2       3 UNK        -0.5105 
     72 CA        -46.0495  -27.9133    7.2379 C.3       3 UNK         0.0299 
     73 CB        -47.1969  -28.8246    7.6935 C.3       3 UNK        -0.1972 
     74 N         -46.4833  -27.1530    6.0622 N.am      3 UNK        -0.4305 
     75 C         -45.6747  -26.4230    5.2789 C.2       2 UNK         0.5006 
     76 O         -44.4491  -26.4005    5.3970 O.2       2 UNK        -0.5106 
     77 CA        -46.3346  -25.5496    4.1929 C.3       2 UNK         0.0296 
     78 CB        -46.1789  -26.2063    2.8112 C.3       2 UNK        -0.2002 
     79 N         -47.7529  -25.2396    4.4178 N.am      2 UNK        -0.4032 
     80 C         -48.2589  -24.5902    5.4779 C.2       1 UNK         0.5000 
     81 O         -47.5797  -24.1860    6.4231 O.2       1 UNK        -0.5238 
     82 H82       -52.1185  -21.2187    3.2969 H         1 UNK         0.0889 
     83 H83       -50.3601  -21.1185    3.1921 H         1 UNK         0.0889 
     84 H84       -51.2178  -20.2501    4.4666 H         1 UNK         0.0889 
     85 H85       -49.3315  -22.9458    3.9875 H         1 UNK         0.3028 
     86 H86       -50.0463  -24.1172    6.5136 H         1 UNK         0.0864 
     87 H87       -50.3516  -25.9234    4.0424 H         1 UNK         0.0720 
     88 H88       -51.6712  -25.3213    4.9903 H         1 UNK         0.0720 
     89 H89       -52.8225  -27.1399    6.4826 H         1 UNK         0.0814 
     90 H90       -52.1494  -25.8149    7.4062 H         1 UNK         0.0814 
     91 H91       -50.2998  -28.8914    8.0900 H         1 UNK         0.1469 
     92 H92       -52.4184  -29.7475   11.7052 H         1 UNK         0.1381 
     93 H93       -53.8991  -26.7464    9.0297 H         1 UNK         0.1206 
     94 H94       -54.8454  -26.9653   11.2565 H         1 UNK         0.0813 
     95 H95       -54.1829  -28.0985   12.4172 H         1 UNK         0.0813 
     96 H96       -58.1331  -29.0368   11.4858 H         1 UNK         0.0638 
     97 H97       -57.5005  -27.4934   10.9955 H         1 UNK         0.0638 
     98 H98       -56.5396  -27.0704   13.1812 H         1 UNK         0.0568 
     99 H99       -59.8791  -27.0051   15.1358 H         1 UNK         0.3450 
    100 H100      -58.4796  -27.9872   15.4905 H         1 UNK         0.3450 
    101 H101      -55.9758  -28.5494   14.6729 H         1 UNK         0.2987 
    102 H102      -57.0342  -31.0498   16.1545 H         1 UNK         0.0766 
    103 H103      -55.6052  -33.0403   15.5767 H         1 UNK         0.0798 
    104 H104      -55.5536  -32.4978   13.8991 H         1 UNK         0.0798 
    105 H105      -57.0798  -32.9647   14.6279 H         1 UNK         0.0798 
    106 H106      -55.1879  -29.9904   16.7075 H         1 UNK         0.3198 
    107 H107      -53.2167  -29.1838   16.8523 H         1 UNK         0.0843 
    108 H108      -51.2248  -30.0429   14.6965 H         1 UNK         0.0831 
    109 H109      -51.5242  -30.8734   16.2120 H         1 UNK         0.0831 
    110 H110      -50.8057  -29.2694   16.2248 H         1 UNK         0.0831 
    111 H111      -52.1025  -27.6772   14.6779 H         1 UNK         0.3133 
    112 H112      -53.6227  -25.7852   13.6042 H         1 UNK         0.0566 
    113 H113      -54.5117  -23.6523   14.5614 H         1 UNK         0.0814 
    114 H114      -55.7063  -24.9380   14.6308 H         1 UNK         0.0814 
    115 H115      -54.8463  -24.4683   16.0885 H         1 UNK         0.0814 
    116 H116      -51.6598  -25.0942   14.2936 H         1 UNK         0.3091 
    117 H117      -50.2123  -23.8897   17.2103 H         1 UNK         0.0702 
    118 H118      -48.4918  -25.6806   16.9589 H         1 UNK         0.0785 
    119 H119      -49.6378  -26.6754   16.0616 H         1 UNK         0.0785 
    120 H120      -49.9279  -26.3052   17.7553 H         1 UNK         0.0785 
    121 H121      -49.1050  -24.6787   14.6776 H         1 UNK         0.2998 
    122 H122      -49.9845  -21.6592   12.9433 H         1 UNK         0.0697 
    123 H123      -47.3111  -22.8546   13.8562 H         1 UNK         0.0825 
    124 H124      -47.8597  -21.2178   14.1994 H         1 UNK         0.0825 
    125 H125      -47.5410  -21.7047   12.5416 H         1 UNK         0.0825 
    126 H126      -48.6060  -23.9782   12.0598 H         1 UNK         0.3029 
    127 H127      -51.5009  -25.7608   10.8514 H         1 UNK         0.0897 
    128 H128      -49.8773  -25.7679    8.9221 H         1 UNK         0.0792 
    129 H129      -49.0488  -24.3811    9.6156 H         1 UNK         0.0792 
    130 H130      -50.7172  -24.2340    9.0880 H         1 UNK         0.0792 
    131 H131      -48.7259  -26.4579   11.0873 H         1 UNK         0.3086 
    132 H132      -48.9086  -28.0702   14.1856 H         1 UNK         0.0583 
    133 H133      -48.3854  -30.1709   13.1986 H         1 UNK         0.1020 
    134 H134      -50.0413  -29.8223   12.8221 H         1 UNK         0.1020 
    135 H135      -49.9994  -31.0576    9.3386 H         1 UNK         0.0694 
    136 H136      -50.5992  -31.2091   10.9663 H         1 UNK         0.0694 
    137 H137      -46.9216  -28.0534   12.1285 H         1 UNK         0.2989 
    138 H138      -45.2748  -25.1235   13.4347 H         1 UNK         0.1055 
    139 H139      -44.5414  -27.3020   14.4558 H         1 UNK         0.0806 
    140 H140      -43.4576  -26.7597   13.1866 H         1 UNK         0.0806 
    141 H141      -44.6008  -28.0622   12.8704 H         1 UNK         0.0806 
    142 H142      -44.7586  -26.4255   10.9747 H         1 UNK         0.3061 
    143 H143      -46.2265  -23.8079    9.0066 H         1 UNK         0.0734 
    144 H144      -43.9148  -24.0091    8.2136 H         1 UNK         0.0832 
    145 H145      -43.9202  -23.4680    9.8839 H         1 UNK         0.0832 
    146 H146      -43.5102  -25.1335    9.5057 H         1 UNK         0.0832 
    147 H147      -46.6424  -25.4645    7.6816 H         1 UNK         0.3156 
    148 H148      -45.2092  -28.5433    6.9390 H         1 UNK         0.0589 
    149 H149      -48.0390  -28.2473    8.0764 H         1 UNK         0.0808 
    150 H150      -47.5588  -29.4556    6.8816 H         1 UNK         0.0808 
    151 H151      -46.8642  -29.4880    8.4924 H         1 UNK         0.0808 
    152 H152      -47.4760  -27.1303    5.8778 H         1 UNK         0.3098 
    153 H153      -45.7954  -24.6000    4.1815 H         1 UNK         0.0720 
    154 H154      -46.5410  -25.5535    2.0167 H         1 UNK         0.0791 
    155 H155      -46.7244  -27.1489    2.7487 H         1 UNK         0.0791 
    156 H156      -45.1312  -26.4218    2.5960 H         1 UNK         0.0791 
    157 H157      -48.3911  -25.5426    3.6961 H         1 UNK         0.3028 
@<TRIPOS>BOND
     1    1    2 1    
     2    1   82 1    
     3    1   83 1    
     4    1   84 1    
     5    2    3 2    
     6    2    4 am   BACKBONE|DICT|INTERRES
     7    4    5 1    
     8    4   85 1    
     9    5    6 1    
    10    5   80 1    
    11    5   86 1    
    12    6    7 1    
    13    6   87 1    
    14    6   88 1    
    15    7    8 1    
    16    8    9 1    
    17    8   89 1    
    18    8   90 1    
    19    9   10 ar   
    20    9   14 ar   
    21   10   11 ar   
    22   10   91 1    
    23   11   12 ar   
    24   11   58 1    
    25   12   13 ar   
    26   12   92 1    
    27   13   14 ar   
    28   13   15 1    
    29   14   93 1    
    30   15   16 1    
    31   15   94 1    
    32   15   95 1    
    33   16   17 1    
    34   17   18 1    
    35   17   96 1    
    36   17   97 1    
    37   18   19 1    
    38   18   22 1    
    39   18   98 1    
    40   19   20 am   BACKBONE|DICT|INTERRES
    41   19   21 2    
    42   20   99 1    
    43   20  100 1    
    44   22   23 am   BACKBONE|DICT|INTERRES
    45   22  101 1    
    46   23   24 2    
    47   23   25 1    
    48   25   26 1    
    49   25   27 1    
    50   25  102 1    
    51   26  103 1    
    52   26  104 1    
    53   26  105 1    
    54   27   28 am   BACKBONE|DICT|INTERRES
    55   27  106 1    
    56   28   29 2    
    57   28   30 1    
    58   30   31 1    
    59   30   32 1    
    60   30  107 1    
    61   31  108 1    
    62   31  109 1    
    63   31  110 1    
    64   32   33 am   BACKBONE|DICT|INTERRES
    65   32  111 1    
    66   33   34 2    
    67   33   35 1    
    68   35   36 1    
    69   35   37 1    
    70   35  112 1    
    71   36  113 1    
    72   36  114 1    
    73   36  115 1    
    74   37   38 am   BACKBONE|DICT|INTERRES
    75   37  116 1    
    76   38   39 2    
    77   38   40 1    
    78   40   41 1    
    79   40   42 1    
    80   40  117 1    
    81   41  118 1    
    82   41  119 1    
    83   41  120 1    
    84   42   43 am   BACKBONE|DICT|INTERRES
    85   42  121 1    
    86   43   44 2    
    87   43   45 1    
    88   45   46 1    
    89   45   47 1    
    90   45  122 1    
    91   46  123 1    
    92   46  124 1    
    93   46  125 1    
    94   47   48 am   BACKBONE|DICT|INTERRES
    95   47  126 1    
    96   48   49 2    
    97   48   50 1    
    98   50   51 1    
    99   50   52 1    
   100   50  127 1    
   101   51  128 1    
   102   51  129 1    
   103   51  130 1    
   104   52   53 am   BACKBONE|DICT|INTERRES
   105   52  131 1    
   106   53   54 2    
   107   53   55 1    
   108   55   56 1    
   109   55   59 1    
   110   55  132 1    
   111   56   57 1    
   112   56  133 1    
   113   56  134 1    
   114   57   58 1    
   115   58  135 1    
   116   58  136 1    
   117   59   60 am   BACKBONE|DICT|INTERRES
   118   59  137 1    
   119   60   61 2    
   120   60   62 1    
   121   62   63 1    
   122   62   64 1    
   123   62  138 1    
   124   63  139 1    
   125   63  140 1    
   126   63  141 1    
   127   64   65 am   BACKBONE|DICT|INTERRES
   128   64  142 1    
   129   65   66 2    
   130   65   67 1    
   131   67   68 1    
   132   67   69 1    
   133   67  143 1    
   134   68  144 1    
   135   68  145 1    
   136   68  146 1    
   137   69   70 am   BACKBONE|DICT|INTERRES
   138   69  147 1    
   139   70   71 2    
   140   70   72 1    
   141   72   73 1    
   142   72   74 1    
   143   72  148 1    
   144   73  149 1    
   145   73  150 1    
   146   73  151 1    
   147   74   75 am   BACKBONE|DICT|INTERRES
   148   74  152 1    
   149   75   76 2    
   150   75   77 1    
   151   77   78 1    
   152   77   79 1    
   153   77  153 1    
   154   78  154 1    
   155   78  155 1    
   156   78  156 1    
   157   79   80 am   BACKBONE|DICT|INTERRES
   158   79  157 1    
   159   80   81 2    
@<TRIPOS>SUBSTRUCTURE
     1 UNK         1 GROUP             0       ****    0 ROOT    
