@<TRIPOS>MOLECULE
3R207
157   159    1
SMALL
USER_CHARGES


@<TRIPOS>ATOM
      1 CA        -46.8990  -28.6443   11.8725 C.3       0 UNK        -0.1975 
      2 C         -46.6074  -28.6244   10.3793 C.2       0 UNK         0.4852 
      3 O         -45.4413  -28.6271    9.9815 O.2       0 UNK        -0.5216 
      4 N         -47.6605  -28.6128    9.5507 N.am      1 UNK        -0.4461 
      5 CA        -47.5804  -28.5378    8.0875 C.3       1 UNK         0.0864 
      6 C6        -48.9663  -28.7061    7.4200 C.3       14 UNK        -0.0898 
      7 S7        -49.7434  -30.3098    7.7764 S.3       14 UNK        -0.2598 
      8 C8        -51.2423  -30.1953    6.7465 C.3       14 UNK         0.0286 
      9 C9        -52.3442  -29.3694    7.4002 C.ar      14 UNK        -0.0844 
     10 C10       -52.7403  -28.1404    6.8594 C.ar      14 UNK        -0.0881 
     11 C11       -53.8060  -27.4271    7.4224 C.ar      14 UNK        -0.0643 
     12 C12       -54.4724  -27.9540    8.5343 C.ar      14 UNK        -0.0930 
     13 C13       -54.0859  -29.1792    9.0854 C.ar      14 UNK        -0.0827 
     14 C14       -53.0185  -29.8775    8.5140 C.ar      14 UNK        -0.1249 
     15 C15       -54.8460  -29.7815   10.2621 C.3       14 UNK         0.0141 
     16 S16       -54.7842  -28.7247   11.7425 S.3       14 UNK        -0.2313 
     17 C17       -56.3805  -27.8353   11.6702 C.3       14 UNK        -0.0915 
     18 CA        -57.1969  -27.9414   12.9869 C.3       13 UNK         0.0968 
     19 C         -57.8240  -29.3542   13.1831 C.2       13 UNK         0.5732 
     20 N         -57.4906  -30.1018   14.2300 N.am      13 UNK        -0.7310 
     21 O         -58.6445  -29.7747   12.3708 O.2       13 UNK        -0.5035 
     22 N         -56.4135  -27.4560   14.1297 N.am      13 UNK        -0.4233 
     23 C         -56.9106  -27.0080   15.2880 C.2       13 UNK         0.4989 
     24 O         -58.1129  -26.8275   15.4879 O.2       13 UNK        -0.4996 
     25 CA        -55.8893  -26.7132   16.4104 C.3       12 UNK         0.0216 
     26 CB        -56.4991  -26.8861   17.8179 C.3       12 UNK        -0.1964 
     27 N         -54.6300  -27.4719   16.3010 N.am      12 UNK        -0.4276 
     28 C         -54.4947  -28.8080   16.2769 C.2       12 UNK         0.5020 
     29 O         -55.4495  -29.5859   16.3149 O.2       12 UNK        -0.5489 
     30 CA        -53.0776  -29.3913   16.1419 C.3       11 UNK         0.0294 
     31 CB        -52.9332  -30.1531   14.8132 C.3       11 UNK        -0.2019 
     32 N         -52.0077  -28.3930   16.2218 N.am      11 UNK        -0.4493 
     33 C         -51.4136  -28.0009   17.3567 C.2       11 UNK         0.4932 
     34 O         -51.7854  -28.3520   18.4765 O.2       11 UNK        -0.5029 
     35 CA        -50.1902  -27.0809   17.2281 C.3       10 UNK         0.0280 
     36 CB        -48.9434  -27.8991   16.8511 C.3       10 UNK        -0.1976 
     37 N         -50.3973  -26.0322   16.2277 N.am      10 UNK        -0.4242 
     38 C         -50.3222  -24.7147   16.4680 C.2       10 UNK         0.5072 
     39 O         -50.0430  -24.2319   17.5667 O.2       10 UNK        -0.5224 
     40 CA        -50.5996  -23.7557   15.2907 C.3       9 UNK         0.0343 
     41 CB        -49.2772  -23.2977   14.6540 C.3       9 UNK        -0.2003 
     42 N         -51.4562  -24.3180   14.2444 N.am      9 UNK        -0.4272 
     43 C         -52.7163  -24.7396   14.4200 C.2       9 UNK         0.4988 
     44 O         -53.3373  -24.6279   15.4760 O.2       9 UNK        -0.5108 
     45 CA        -53.3869  -25.4614   13.2388 C.3       8 UNK         0.0248 
     46 CB        -54.2431  -24.4707   12.4343 C.3       8 UNK        -0.2001 
     47 N         -52.4734  -26.1555   12.3256 N.am      8 UNK        -0.4140 
     48 C         -51.5048  -27.0278   12.6433 C.2       8 UNK         0.5028 
     49 O         -51.2297  -27.3507   13.7998 O.2       8 UNK        -0.5428 
     50 CA        -50.6794  -27.6273   11.4898 C.3       7 UNK         0.0264 
     51 CB        -50.9056  -29.1449   11.3998 C.3       7 UNK        -0.1988 
     52 N         -50.9209  -27.0082   10.1782 N.am      7 UNK        -0.4454 
     53 C         -50.5597  -25.7536    9.8668 C.2       7 UNK         0.5027 
     54 O         -50.0188  -24.9905   10.6692 O.2       7 UNK        -0.5083 
     55 CA        -50.9169  -25.2554    8.4586 C.3       6 UNK         0.0844 
     56 C56       -52.3770  -24.7398    8.3944 C.3       14 UNK        -0.0967 
     57 S57       -53.0073  -24.8254    6.6865 S.3       14 UNK        -0.2604 
     58 C58       -54.2906  -26.1172    6.8048 C.3       14 UNK         0.0134 
     59 N         -49.9522  -24.2176    8.1082 N.am      6 UNK        -0.4116 
     60 C         -49.3058  -24.0826    6.9469 C.2       5 UNK         0.5034 
     61 O         -49.5086  -24.7869    5.9574 O.2       5 UNK        -0.5045 
     62 CA        -48.2145  -22.9958    6.8783 C.3       5 UNK         0.0224 
     63 CB        -48.8226  -21.5888    6.7149 C.3       5 UNK        -0.1978 
     64 N         -47.2483  -23.0611    7.9867 N.am      5 UNK        -0.4737 
     65 C         -47.4446  -22.8301    9.2947 C.2       4 UNK         0.5027 
     66 O         -48.4863  -22.3560    9.7485 O.2       4 UNK        -0.5211 
     67 CA        -46.3126  -23.2309   10.2599 C.3       4 UNK         0.0297 
     68 CB        -46.8581  -23.8642   11.5532 C.3       4 UNK        -0.1993 
     69 N         -45.3954  -24.1803    9.6262 N.am      4 UNK        -0.4486 
     70 C         -44.0696  -24.0222    9.5172 C.2       3 UNK         0.4961 
     71 O         -43.4487  -23.0809   10.0120 O.2       3 UNK        -0.5105 
     72 CA        -43.2933  -25.0784    8.7043 C.3       3 UNK         0.0299 
     73 CB        -42.6487  -26.1080    9.6461 C.3       3 UNK        -0.1972 
     74 N         -44.1030  -25.7833    7.7053 N.am      3 UNK        -0.4305 
     75 C         -44.7270  -25.2079    6.6663 C.2       2 UNK         0.5006 
     76 O         -44.6524  -24.0077    6.4032 O.2       2 UNK        -0.5106 
     77 CA        -45.6417  -26.0989    5.8061 C.3       2 UNK         0.0296 
     78 CB        -44.8898  -26.5865    4.5573 C.3       2 UNK        -0.2002 
     79 N         -46.2295  -27.2523    6.4994 N.am      2 UNK        -0.4032 
     80 C         -46.9505  -27.2080    7.6298 C.2       1 UNK         0.5000 
     81 O         -47.1401  -26.1815    8.2881 O.2       1 UNK        -0.5238 
     82 H82       -46.9271  -27.6273   12.2632 H         1 UNK         0.0889 
     83 H83       -46.1204  -29.1917   12.4032 H         1 UNK         0.0889 
     84 H84       -47.8510  -29.1278   12.0892 H         1 UNK         0.0889 
     85 H85       -48.5945  -28.6084    9.9292 H         1 UNK         0.3028 
     86 H86       -46.9330  -29.3528    7.7562 H         1 UNK         0.0864 
     87 H87       -48.8848  -28.6088    6.3354 H         1 UNK         0.0720 
     88 H88       -49.6448  -27.9234    7.7480 H         1 UNK         0.0720 
     89 H89       -51.6190  -31.2042    6.5724 H         1 UNK         0.0814 
     90 H90       -50.9852  -29.7986    5.7632 H         1 UNK         0.0814 
     91 H91       -52.2381  -27.7459    5.9863 H         1 UNK         0.1469 
     92 H92       -55.3092  -27.4204    8.9631 H         1 UNK         0.1381 
     93 H93       -52.7211  -30.8346    8.9211 H         1 UNK         0.1206 
     94 H94       -54.4196  -30.7492   10.5301 H         1 UNK         0.0813 
     95 H95       -55.8774  -29.9829    9.9710 H         1 UNK         0.0813 
     96 H96       -56.9742  -28.1809   10.8227 H         1 UNK         0.0638 
     97 H97       -56.1671  -26.7879   11.4604 H         1 UNK         0.0638 
     98 H98       -58.0488  -27.2677   12.8788 H         1 UNK         0.0568 
     99 H99       -57.9154  -31.0085   14.3363 H         1 UNK         0.3450 
    100 H100      -56.8095  -29.7852   14.9133 H         1 UNK         0.3450 
    101 H101      -55.4210  -27.6176   14.0635 H         1 UNK         0.2987 
    102 H102      -55.6250  -25.6614   16.2984 H         1 UNK         0.0766 
    103 H103      -57.3509  -26.2205   17.9630 H         1 UNK         0.0798 
    104 H104      -55.7726  -26.6517   18.5959 H         1 UNK         0.0798 
    105 H105      -56.8508  -27.9051   17.9834 H         1 UNK         0.0798 
    106 H106      -53.7878  -26.9126   16.2585 H         1 UNK         0.3198 
    107 H107      -52.9556  -30.1119   16.9537 H         1 UNK         0.0843 
    108 H108      -53.0163  -29.4863   13.9559 H         1 UNK         0.0831 
    109 H109      -53.7043  -30.9176   14.7074 H         1 UNK         0.0831 
    110 H110      -51.9689  -30.6571   14.7490 H         1 UNK         0.0831 
    111 H111      -51.6474  -28.0552   15.3282 H         1 UNK         0.3133 
    112 H112      -50.0173  -26.6409   18.2124 H         1 UNK         0.0566 
    113 H113      -48.0508  -27.2735   16.8381 H         1 UNK         0.0814 
    114 H114      -49.0429  -28.3591   15.8668 H         1 UNK         0.0814 
    115 H115      -48.7677  -28.6996   17.5711 H         1 UNK         0.0814 
    116 H116      -50.6437  -26.3426   15.2912 H         1 UNK         0.3091 
    117 H117      -51.1088  -22.8796   15.6973 H         1 UNK         0.0702 
    118 H118      -49.4471  -22.5549   13.8742 H         1 UNK         0.0785 
    119 H119      -48.7341  -24.1331   14.2099 H         1 UNK         0.0785 
    120 H120      -48.6223  -22.8410   15.3975 H         1 UNK         0.0785 
    121 H121      -51.0314  -24.4566   13.3378 H         1 UNK         0.2998 
    122 H122      -54.0412  -26.2230   13.6594 H         1 UNK         0.0697 
    123 H123      -53.6369  -23.6707   12.0070 H         1 UNK         0.0825 
    124 H124      -54.9984  -24.0040   13.0685 H         1 UNK         0.0825 
    125 H125      -54.7682  -24.9610   11.6159 H         1 UNK         0.0825 
    126 H126      -52.6096  -25.9729   11.3444 H         1 UNK         0.3029 
    127 H127      -49.6339  -27.4530   11.7494 H         1 UNK         0.0897 
    128 H128      -51.9413  -29.3840   11.1637 H         1 UNK         0.0792 
    129 H129      -50.6725  -29.6322   12.3478 H         1 UNK         0.0792 
    130 H130      -50.2768  -29.6063   10.6403 H         1 UNK         0.0792 
    131 H131      -51.4108  -27.5713    9.4942 H         1 UNK         0.3086 
    132 H132      -50.8040  -26.0978    7.7777 H         1 UNK         0.0583 
    133 H133      -53.0430  -25.3151    9.0395 H         1 UNK         0.1020 
    134 H134      -52.4438  -23.7096    8.7496 H         1 UNK         0.1020 
    135 H135      -55.1311  -25.7118    7.3705 H         1 UNK         0.0694 
    136 H136      -54.6707  -26.3225    5.8033 H         1 UNK         0.0694 
    137 H137      -49.6461  -23.6388    8.8881 H         1 UNK         0.2989 
    138 H138      -47.6330  -23.2002    5.9775 H         1 UNK         0.1055 
    139 H139      -49.4575  -21.3121    7.5567 H         1 UNK         0.0806 
    140 H140      -49.4407  -21.5379    5.8176 H         1 UNK         0.0806 
    141 H141      -48.0458  -20.8305    6.6170 H         1 UNK         0.0806 
    142 H142      -46.3413  -23.4290    7.7250 H         1 UNK         0.3061 
    143 H143      -45.7921  -22.3075   10.5209 H         1 UNK         0.0734 
    144 H144      -47.4076  -24.7834   11.3464 H         1 UNK         0.0832 
    145 H145      -46.0530  -24.1038   12.2477 H         1 UNK         0.0832 
    146 H146      -47.5385  -23.1857   12.0688 H         1 UNK         0.0832 
    147 H147      -45.8393  -24.9821    9.1825 H         1 UNK         0.3156 
    148 H148      -42.4963  -24.5565    8.1708 H         1 UNK         0.0589 
    149 H149      -43.4000  -26.6795   10.1929 H         1 UNK         0.0808 
    150 H150      -42.0119  -25.6178   10.3839 H         1 UNK         0.0808 
    151 H151      -42.0229  -26.8127    9.0981 H         1 UNK         0.0808 
    152 H152      -44.2448  -26.7720    7.8579 H         1 UNK         0.3098 
    153 H153      -46.4741  -25.4736    5.4768 H         1 UNK         0.0720 
    154 H154      -44.4633  -25.7477    4.0050 H         1 UNK         0.0791 
    155 H155      -45.5543  -27.1150    3.8733 H         1 UNK         0.0791 
    156 H156      -44.0692  -27.2570    4.8160 H         1 UNK         0.0791 
    157 H157      -46.1221  -28.1435    6.0361 H         1 UNK         0.3028 
@<TRIPOS>BOND
     1    1    2 1    
     2    1   82 1    
     3    1   83 1    
     4    1   84 1    
     5    2    3 2    
     6    2    4 am   BACKBONE|DICT|INTERRES
     7    4    5 1    
     8    4   85 1    
     9    5    6 1    
    10    5   80 1    
    11    5   86 1    
    12    6    7 1    
    13    6   87 1    
    14    6   88 1    
    15    7    8 1    
    16    8    9 1    
    17    8   89 1    
    18    8   90 1    
    19    9   10 ar   
    20    9   14 ar   
    21   10   11 ar   
    22   10   91 1    
    23   11   12 ar   
    24   11   58 1    
    25   12   13 ar   
    26   12   92 1    
    27   13   14 ar   
    28   13   15 1    
    29   14   93 1    
    30   15   16 1    
    31   15   94 1    
    32   15   95 1    
    33   16   17 1    
    34   17   18 1    
    35   17   96 1    
    36   17   97 1    
    37   18   19 1    
    38   18   22 1    
    39   18   98 1    
    40   19   20 am   BACKBONE|DICT|INTERRES
    41   19   21 2    
    42   20   99 1    
    43   20  100 1    
    44   22   23 am   BACKBONE|DICT|INTERRES
    45   22  101 1    
    46   23   24 2    
    47   23   25 1    
    48   25   26 1    
    49   25   27 1    
    50   25  102 1    
    51   26  103 1    
    52   26  104 1    
    53   26  105 1    
    54   27   28 am   BACKBONE|DICT|INTERRES
    55   27  106 1    
    56   28   29 2    
    57   28   30 1    
    58   30   31 1    
    59   30   32 1    
    60   30  107 1    
    61   31  108 1    
    62   31  109 1    
    63   31  110 1    
    64   32   33 am   BACKBONE|DICT|INTERRES
    65   32  111 1    
    66   33   34 2    
    67   33   35 1    
    68   35   36 1    
    69   35   37 1    
    70   35  112 1    
    71   36  113 1    
    72   36  114 1    
    73   36  115 1    
    74   37   38 am   BACKBONE|DICT|INTERRES
    75   37  116 1    
    76   38   39 2    
    77   38   40 1    
    78   40   41 1    
    79   40   42 1    
    80   40  117 1    
    81   41  118 1    
    82   41  119 1    
    83   41  120 1    
    84   42   43 am   BACKBONE|DICT|INTERRES
    85   42  121 1    
    86   43   44 2    
    87   43   45 1    
    88   45   46 1    
    89   45   47 1    
    90   45  122 1    
    91   46  123 1    
    92   46  124 1    
    93   46  125 1    
    94   47   48 am   BACKBONE|DICT|INTERRES
    95   47  126 1    
    96   48   49 2    
    97   48   50 1    
    98   50   51 1    
    99   50   52 1    
   100   50  127 1    
   101   51  128 1    
   102   51  129 1    
   103   51  130 1    
   104   52   53 am   BACKBONE|DICT|INTERRES
   105   52  131 1    
   106   53   54 2    
   107   53   55 1    
   108   55   56 1    
   109   55   59 1    
   110   55  132 1    
   111   56   57 1    
   112   56  133 1    
   113   56  134 1    
   114   57   58 1    
   115   58  135 1    
   116   58  136 1    
   117   59   60 am   BACKBONE|DICT|INTERRES
   118   59  137 1    
   119   60   61 2    
   120   60   62 1    
   121   62   63 1    
   122   62   64 1    
   123   62  138 1    
   124   63  139 1    
   125   63  140 1    
   126   63  141 1    
   127   64   65 am   BACKBONE|DICT|INTERRES
   128   64  142 1    
   129   65   66 2    
   130   65   67 1    
   131   67   68 1    
   132   67   69 1    
   133   67  143 1    
   134   68  144 1    
   135   68  145 1    
   136   68  146 1    
   137   69   70 am   BACKBONE|DICT|INTERRES
   138   69  147 1    
   139   70   71 2    
   140   70   72 1    
   141   72   73 1    
   142   72   74 1    
   143   72  148 1    
   144   73  149 1    
   145   73  150 1    
   146   73  151 1    
   147   74   75 am   BACKBONE|DICT|INTERRES
   148   74  152 1    
   149   75   76 2    
   150   75   77 1    
   151   77   78 1    
   152   77   79 1    
   153   77  153 1    
   154   78  154 1    
   155   78  155 1    
   156   78  156 1    
   157   79   80 am   BACKBONE|DICT|INTERRES
   158   79  157 1    
   159   80   81 2    
@<TRIPOS>SUBSTRUCTURE
     1 UNK         1 GROUP             0       ****    0 ROOT    
