@<TRIPOS>MOLECULE
3R207
157   159    1
SMALL
USER_CHARGES


@<TRIPOS>ATOM
      1 CA        -48.3860  -30.8922    9.1070 C.3       0 UNK        -0.1975 
      2 C         -48.3874  -30.4362    7.6572 C.2       0 UNK         0.4852 
      3 O         -47.4596  -30.7647    6.9151 O.2       0 UNK        -0.5216 
      4 N         -49.4139  -29.6821    7.2387 N.am      1 UNK        -0.4461 
      5 CA        -49.5319  -29.1375    5.8816 C.3       1 UNK         0.0864 
      6 C6        -50.9367  -28.5555    5.5790 C.3       14 UNK        -0.0898 
      7 S7        -51.5338  -27.3196    6.7818 S.3       14 UNK        -0.2598 
      8 C8        -53.3277  -27.4406    6.5161 C.3       14 UNK         0.0286 
      9 C9        -54.0683  -26.4714    7.4210 C.ar      14 UNK        -0.0844 
     10 C10       -54.3050  -25.1587    7.0053 C.ar      14 UNK        -0.0881 
     11 C11       -54.9545  -24.2536    7.8498 C.ar      14 UNK        -0.0643 
     12 C12       -55.3797  -24.6731    9.1143 C.ar      14 UNK        -0.0930 
     13 C13       -55.1359  -25.9812    9.5436 C.ar      14 UNK        -0.0827 
     14 C14       -54.4942  -26.8799    8.6866 C.ar      14 UNK        -0.1249 
     15 C15       -55.5426  -26.4197   10.9420 C.3       14 UNK         0.0141 
     16 S16       -54.3506  -25.8743   12.2096 S.3       14 UNK        -0.2313 
     17 C17       -52.7961  -26.6763   11.6790 C.3       14 UNK        -0.0915 
     18 CA        -52.7901  -28.2176   11.8589 C.3       13 UNK         0.0968 
     19 C         -51.4740  -28.8586   11.3298 C.2       13 UNK         0.5732 
     20 N         -50.7550  -29.6629   12.1063 N.am      13 UNK        -0.7310 
     21 O         -51.1086  -28.6481   10.1767 O.2       13 UNK        -0.5035 
     22 N         -53.1219  -28.6116   13.2360 N.am      13 UNK        -0.4233 
     23 C         -53.8447  -29.6922   13.5564 C.2       13 UNK         0.4989 
     24 O         -54.3772  -30.4285   12.7232 O.2       13 UNK        -0.4996 
     25 CA        -53.9955  -30.0069   15.0588 C.3       12 UNK         0.0216 
     26 CB        -54.4569  -31.4558   15.3251 C.3       12 UNK        -0.1964 
     27 N         -52.7955  -29.6996   15.8466 N.am      12 UNK        -0.4276 
     28 C         -51.5534  -30.1786   15.6629 C.2       12 UNK         0.5020 
     29 O         -51.2577  -30.9694   14.7660 O.2       12 UNK        -0.5489 
     30 CA        -50.4420  -29.6678   16.6004 C.3       11 UNK         0.0294 
     31 CB        -49.1710  -29.3128   15.8072 C.3       11 UNK        -0.2019 
     32 N         -50.8729  -28.4859   17.3480 N.am      11 UNK        -0.4493 
     33 C         -51.2545  -28.4734   18.6329 C.2       11 UNK         0.4932 
     34 O         -51.2031  -29.4560   19.3724 O.2       11 UNK        -0.5029 
     35 CA        -51.8142  -27.1477   19.1875 C.3       10 UNK         0.0280 
     36 CB        -50.7291  -26.3985   19.9775 C.3       10 UNK        -0.1976 
     37 N         -52.3583  -26.2582   18.1557 N.am      10 UNK        -0.4242 
     38 C         -53.4189  -26.5301   17.3804 C.2       10 UNK         0.5072 
     39 O         -54.1026  -27.5477   17.4908 O.2       10 UNK        -0.5224 
     40 CA        -53.7136  -25.5433   16.2375 C.3       9 UNK         0.0343 
     41 CB        -54.6859  -24.4469   16.6976 C.3       9 UNK        -0.2003 
     42 N         -52.5040  -24.9240   15.6873 N.am      9 UNK        -0.4272 
     43 C         -51.5060  -25.5783   15.0793 C.2       9 UNK         0.4988 
     44 O         -51.5060  -26.8010   14.9190 O.2       9 UNK        -0.5108 
     45 CA        -50.3045  -24.7339   14.6074 C.3       8 UNK         0.0248 
     46 CB        -49.3101  -25.5411   13.7510 C.3       8 UNK        -0.2001 
     47 N         -50.7019  -23.5219   13.8800 N.am      8 UNK        -0.4140 
     48 C         -51.1382  -22.3886   14.4538 C.2       8 UNK         0.5028 
     49 O         -51.3182  -22.2796   15.6679 O.2       8 UNK        -0.5428 
     50 CA        -51.4278  -21.1715   13.5553 C.3       7 UNK         0.0264 
     51 CB        -50.2844  -20.1487   13.6594 C.3       7 UNK        -0.1988 
     52 N         -51.6292  -21.5140   12.1482 N.am      7 UNK        -0.4454 
     53 C         -52.7236  -22.1086   11.6520 C.2       7 UNK         0.5027 
     54 O         -53.7268  -22.3475   12.3242 O.2       7 UNK        -0.5083 
     55 CA        -52.7019  -22.4938   10.1540 C.3       6 UNK         0.0844 
     56 C56       -53.5897  -21.5070    9.3515 C.3       14 UNK        -0.0967 
     57 S57       -53.6424  -21.8396    7.5567 S.3       14 UNK        -0.2604 
     58 C58       -55.1697  -22.8187    7.3965 C.3       14 UNK         0.0134 
     59 N         -51.3505  -22.6239    9.5852 N.am      6 UNK        -0.4116 
     60 C         -50.4112  -23.4793   10.0101 C.2       5 UNK         0.5034 
     61 O         -50.5453  -24.2157   10.9914 O.2       5 UNK        -0.5045 
     62 CA        -49.0733  -23.4628    9.2632 C.3       5 UNK         0.0224 
     63 CB        -48.2532  -22.2114    9.6341 C.3       5 UNK        -0.1978 
     64 N         -48.3445  -24.6698    9.6369 N.am      5 UNK        -0.4737 
     65 C         -47.3262  -25.2252    8.9757 C.2       4 UNK         0.5027 
     66 O         -46.8139  -24.7261    7.9711 O.2       4 UNK        -0.5211 
     67 CA        -46.7701  -26.5389    9.5532 C.3       4 UNK         0.0297 
     68 CB        -47.8446  -27.4172   10.2272 C.3       4 UNK        -0.1993 
     69 N         -46.1242  -27.3077    8.4911 N.am      4 UNK        -0.4486 
     70 C         -44.9310  -27.9096    8.5834 C.2       3 UNK         0.4961 
     71 O         -44.2388  -27.8843    9.6023 O.2       3 UNK        -0.5105 
     72 CA        -44.4074  -28.6898    7.3596 C.3       3 UNK         0.0299 
     73 CB        -44.1616  -30.1661    7.7180 C.3       3 UNK        -0.1972 
     74 N         -45.3064  -28.6238    6.2047 N.am      3 UNK        -0.4305 
     75 C         -45.2891  -27.6490    5.2823 C.2       2 UNK         0.5006 
     76 O         -44.4539  -26.7441    5.2650 O.2       2 UNK        -0.5106 
     77 CA        -46.3868  -27.6652    4.1969 C.3       2 UNK         0.0296 
     78 CB        -45.8254  -28.2143    2.8749 C.3       2 UNK        -0.2002 
     79 N         -47.5918  -28.4213    4.5576 N.am      2 UNK        -0.4032 
     80 C         -48.3902  -28.1396    5.5970 C.2       1 UNK         0.5000 
     81 O         -48.2075  -27.1840    6.3526 O.2       1 UNK        -0.5238 
     82 H82       -49.2202  -30.4691    9.6630 H         1 UNK         0.0889 
     83 H83       -47.4596  -30.5903    9.5942 H         1 UNK         0.0889 
     84 H84       -48.4591  -31.9781    9.1573 H         1 UNK         0.0889 
     85 H85       -50.1224  -29.3775    7.8950 H         1 UNK         0.3028 
     86 H86       -49.4006  -29.9831    5.2023 H         1 UNK         0.0864 
     87 H87       -51.6542  -29.3771    5.5531 H         1 UNK         0.0720 
     88 H88       -50.9630  -28.1119    4.5819 H         1 UNK         0.0720 
     89 H89       -53.5575  -27.2308    5.4703 H         1 UNK         0.0814 
     90 H90       -53.6584  -28.4623    6.7093 H         1 UNK         0.0814 
     91 H91       -53.9620  -24.8326    6.0327 H         1 UNK         0.1469 
     92 H92       -55.8684  -23.9742    9.7792 H         1 UNK         0.1381 
     93 H93       -54.2963  -27.8909    9.0146 H         1 UNK         0.1206 
     94 H94       -55.6562  -27.5034   10.9904 H         1 UNK         0.0813 
     95 H95       -56.5224  -26.0048   11.1826 H         1 UNK         0.0813 
     96 H96       -52.5930  -26.3999   10.6435 H         1 UNK         0.0638 
     97 H97       -51.9890  -26.2304   12.2570 H         1 UNK         0.0638 
     98 H98       -53.5632  -28.6085   11.1974 H         1 UNK         0.0568 
     99 H99       -51.0693  -29.9202   13.0348 H         1 UNK         0.3450 
    100 H100      -49.9117  -30.0695   11.7406 H         1 UNK         0.3450 
    101 H101      -52.6748  -28.0642   13.9652 H         1 UNK         0.2987 
    102 H102      -54.7776  -29.3402   15.4251 H         1 UNK         0.0766 
    103 H103      -54.5816  -31.6424   16.3918 H         1 UNK         0.0798 
    104 H104      -55.4175  -31.6564   14.8490 H         1 UNK         0.0798 
    105 H105      -53.7432  -32.1840   14.9382 H         1 UNK         0.0798 
    106 H106      -52.9432  -29.0308   16.5948 H         1 UNK         0.3198 
    107 H107      -50.1995  -30.4826   17.2857 H         1 UNK         0.0843 
    108 H108      -48.7516  -30.1962   15.3242 H         1 UNK         0.0831 
    109 H109      -48.3969  -28.9019   16.4553 H         1 UNK         0.0831 
    110 H110      -49.3781  -28.5842   15.0231 H         1 UNK         0.0831 
    111 H111      -50.9872  -27.6454   16.7931 H         1 UNK         0.3133 
    112 H112      -52.6268  -27.3971   19.8730 H         1 UNK         0.0566 
    113 H113      -49.8942  -26.1046   19.3399 H         1 UNK         0.0814 
    114 H114      -50.3248  -27.0242   20.7746 H         1 UNK         0.0814 
    115 H115      -51.1279  -25.4989   20.4469 H         1 UNK         0.0814 
    116 H116      -51.8608  -25.3949   17.9910 H         1 UNK         0.3091 
    117 H117      -54.1894  -26.1072   15.4323 H         1 UNK         0.0702 
    118 H118      -55.6050  -24.8813   17.0936 H         1 UNK         0.0785 
    119 H119      -54.9670  -23.7965   15.8688 H         1 UNK         0.0785 
    120 H120      -54.2529  -23.8243   17.4816 H         1 UNK         0.0785 
    121 H121      -52.3997  -23.9195   15.7977 H         1 UNK         0.2998 
    122 H122      -49.7707  -24.4265   15.5090 H         1 UNK         0.0697 
    123 H123      -49.7864  -25.9734   12.8719 H         1 UNK         0.0825 
    124 H124      -48.8815  -26.3634   14.3237 H         1 UNK         0.0825 
    125 H125      -48.4807  -24.9207   13.4116 H         1 UNK         0.0825 
    126 H126      -50.6510  -23.5766   12.8670 H         1 UNK         0.3029 
    127 H127      -52.3410  -20.7028   13.9292 H         1 UNK         0.0897 
    128 H128      -50.5056  -19.2456   13.0902 H         1 UNK         0.0792 
    129 H129      -50.1260  -19.8447   14.6953 H         1 UNK         0.0792 
    130 H130      -49.3416  -20.5566   13.2923 H         1 UNK         0.0792 
    131 H131      -50.8584  -21.3356   11.5217 H         1 UNK         0.3086 
    132 H132      -53.1495  -23.4864   10.0933 H         1 UNK         0.0583 
    133 H133      -54.6093  -21.5087    9.7424 H         1 UNK         0.1020 
    134 H134      -53.2275  -20.4849    9.4806 H         1 UNK         0.1020 
    135 H135      -55.9793  -22.3468    7.9552 H         1 UNK         0.0694 
    136 H136      -55.4806  -22.8140    6.3507 H         1 UNK         0.0694 
    137 H137      -51.1644  -22.0535    8.7729 H         1 UNK         0.2989 
    138 H138      -49.2706  -23.4825    8.1888 H         1 UNK         0.1055 
    139 H139      -47.2978  -22.1915    9.1095 H         1 UNK         0.0806 
    140 H140      -48.0454  -22.1693   10.7042 H         1 UNK         0.0806 
    141 H141      -48.7819  -21.2961    9.3656 H         1 UNK         0.0806 
    142 H142      -48.7507  -25.1494   10.4318 H         1 UNK         0.3061 
    143 H143      -46.0349  -26.2513   10.3074 H         1 UNK         0.0734 
    144 H144      -48.2843  -26.9290   11.0967 H         1 UNK         0.0832 
    145 H145      -48.6535  -27.6564    9.5353 H         1 UNK         0.0832 
    146 H146      -47.4188  -28.3550   10.5821 H         1 UNK         0.0832 
    147 H147      -46.6190  -27.2968    7.6029 H         1 UNK         0.3156 
    148 H148      -43.4444  -28.2522    7.0886 H         1 UNK         0.0589 
    149 H149      -45.0695  -30.6541    8.0730 H         1 UNK         0.0808 
    150 H150      -43.7909  -30.7279    6.8606 H         1 UNK         0.0808 
    151 H151      -43.4161  -30.2571    8.5090 H         1 UNK         0.0808 
    152 H152      -46.0345  -29.3295    6.1661 H         1 UNK         0.3098 
    153 H153      -46.6895  -26.6285    4.0347 H         1 UNK         0.0720 
    154 H154      -46.5577  -28.1415    2.0704 H         1 UNK         0.0791 
    155 H155      -44.9457  -27.6511    2.5599 H         1 UNK         0.0791 
    156 H156      -45.5269  -29.2595    2.9664 H         1 UNK         0.0791 
    157 H157      -47.7890  -29.2411    4.0013 H         1 UNK         0.3028 
@<TRIPOS>BOND
     1    1    2 1    
     2    1   82 1    
     3    1   83 1    
     4    1   84 1    
     5    2    3 2    
     6    2    4 am   BACKBONE|DICT|INTERRES
     7    4    5 1    
     8    4   85 1    
     9    5    6 1    
    10    5   80 1    
    11    5   86 1    
    12    6    7 1    
    13    6   87 1    
    14    6   88 1    
    15    7    8 1    
    16    8    9 1    
    17    8   89 1    
    18    8   90 1    
    19    9   10 ar   
    20    9   14 ar   
    21   10   11 ar   
    22   10   91 1    
    23   11   12 ar   
    24   11   58 1    
    25   12   13 ar   
    26   12   92 1    
    27   13   14 ar   
    28   13   15 1    
    29   14   93 1    
    30   15   16 1    
    31   15   94 1    
    32   15   95 1    
    33   16   17 1    
    34   17   18 1    
    35   17   96 1    
    36   17   97 1    
    37   18   19 1    
    38   18   22 1    
    39   18   98 1    
    40   19   20 am   BACKBONE|DICT|INTERRES
    41   19   21 2    
    42   20   99 1    
    43   20  100 1    
    44   22   23 am   BACKBONE|DICT|INTERRES
    45   22  101 1    
    46   23   24 2    
    47   23   25 1    
    48   25   26 1    
    49   25   27 1    
    50   25  102 1    
    51   26  103 1    
    52   26  104 1    
    53   26  105 1    
    54   27   28 am   BACKBONE|DICT|INTERRES
    55   27  106 1    
    56   28   29 2    
    57   28   30 1    
    58   30   31 1    
    59   30   32 1    
    60   30  107 1    
    61   31  108 1    
    62   31  109 1    
    63   31  110 1    
    64   32   33 am   BACKBONE|DICT|INTERRES
    65   32  111 1    
    66   33   34 2    
    67   33   35 1    
    68   35   36 1    
    69   35   37 1    
    70   35  112 1    
    71   36  113 1    
    72   36  114 1    
    73   36  115 1    
    74   37   38 am   BACKBONE|DICT|INTERRES
    75   37  116 1    
    76   38   39 2    
    77   38   40 1    
    78   40   41 1    
    79   40   42 1    
    80   40  117 1    
    81   41  118 1    
    82   41  119 1    
    83   41  120 1    
    84   42   43 am   BACKBONE|DICT|INTERRES
    85   42  121 1    
    86   43   44 2    
    87   43   45 1    
    88   45   46 1    
    89   45   47 1    
    90   45  122 1    
    91   46  123 1    
    92   46  124 1    
    93   46  125 1    
    94   47   48 am   BACKBONE|DICT|INTERRES
    95   47  126 1    
    96   48   49 2    
    97   48   50 1    
    98   50   51 1    
    99   50   52 1    
   100   50  127 1    
   101   51  128 1    
   102   51  129 1    
   103   51  130 1    
   104   52   53 am   BACKBONE|DICT|INTERRES
   105   52  131 1    
   106   53   54 2    
   107   53   55 1    
   108   55   56 1    
   109   55   59 1    
   110   55  132 1    
   111   56   57 1    
   112   56  133 1    
   113   56  134 1    
   114   57   58 1    
   115   58  135 1    
   116   58  136 1    
   117   59   60 am   BACKBONE|DICT|INTERRES
   118   59  137 1    
   119   60   61 2    
   120   60   62 1    
   121   62   63 1    
   122   62   64 1    
   123   62  138 1    
   124   63  139 1    
   125   63  140 1    
   126   63  141 1    
   127   64   65 am   BACKBONE|DICT|INTERRES
   128   64  142 1    
   129   65   66 2    
   130   65   67 1    
   131   67   68 1    
   132   67   69 1    
   133   67  143 1    
   134   68  144 1    
   135   68  145 1    
   136   68  146 1    
   137   69   70 am   BACKBONE|DICT|INTERRES
   138   69  147 1    
   139   70   71 2    
   140   70   72 1    
   141   72   73 1    
   142   72   74 1    
   143   72  148 1    
   144   73  149 1    
   145   73  150 1    
   146   73  151 1    
   147   74   75 am   BACKBONE|DICT|INTERRES
   148   74  152 1    
   149   75   76 2    
   150   75   77 1    
   151   77   78 1    
   152   77   79 1    
   153   77  153 1    
   154   78  154 1    
   155   78  155 1    
   156   78  156 1    
   157   79   80 am   BACKBONE|DICT|INTERRES
   158   79  157 1    
   159   80   81 2    
@<TRIPOS>SUBSTRUCTURE
     1 UNK         1 GROUP             0       ****    0 ROOT    
