@<TRIPOS>MOLECULE
3R207
157   159    1
SMALL
USER_CHARGES


@<TRIPOS>ATOM
      1 CA        -44.0175  -29.4473    7.2725 C.3       0 UNK        -0.1975 
      2 C         -44.9741  -29.4581    6.0895 C.2       0 UNK         0.4852 
      3 O         -44.5553  -29.1938    4.9621 O.2       0 UNK        -0.5216 
      4 N         -46.2544  -29.7657    6.3384 N.am      1 UNK        -0.4461 
      5 CA        -47.3280  -29.8137    5.3361 C.3       1 UNK         0.0864 
      6 C6        -48.5696  -30.5862    5.8556 C.3       14 UNK        -0.0898 
      7 S7        -49.1775  -29.9910    7.4712 S.3       14 UNK        -0.2598 
      8 C8        -50.9481  -30.4010    7.3961 C.3       14 UNK         0.0286 
      9 C9        -51.7403  -29.4400    8.2659 C.ar      14 UNK        -0.0844 
     10 C10       -52.0089  -28.1568    7.7887 C.ar      14 UNK        -0.0881 
     11 C11       -52.6887  -27.2304    8.5806 C.ar      14 UNK        -0.0643 
     12 C12       -53.1234  -27.6009    9.8553 C.ar      14 UNK        -0.0930 
     13 C13       -52.8796  -28.8908   10.3385 C.ar      14 UNK        -0.0827 
     14 C14       -52.1829  -29.8070    9.5411 C.ar      14 UNK        -0.1249 
     15 C15       -53.3550  -29.2878   11.7284 C.3       14 UNK         0.0141 
     16 S16       -55.0411  -29.9683   11.6954 S.3       14 UNK        -0.2313 
     17 C17       -56.0306  -28.4579   11.4076 C.3       14 UNK        -0.0915 
     18 CA        -57.4706  -28.5364   11.9760 C.3       13 UNK         0.0968 
     19 C         -58.3704  -29.5004   11.1455 C.2       13 UNK         0.5732 
     20 N         -58.8212  -30.6258   11.6877 N.am      13 UNK        -0.7310 
     21 O         -58.6756  -29.2113    9.9907 O.2       13 UNK        -0.5035 
     22 N         -57.4610  -28.7655   13.4290 N.am      13 UNK        -0.4233 
     23 C         -58.5055  -28.5998   14.2463 C.2       13 UNK         0.4989 
     24 O         -59.5959  -28.1529   13.8883 O.2       13 UNK        -0.4996 
     25 CA        -58.3104  -29.0146   15.7132 C.3       12 UNK         0.0216 
     26 CB        -57.8142  -30.4706   15.8496 C.3       12 UNK        -0.1964 
     27 N         -57.4770  -28.0833   16.4827 N.am      12 UNK        -0.4276 
     28 C         -56.1745  -27.8028   16.3341 C.2       12 UNK         0.5020 
     29 O         -55.4451  -28.2972   15.4698 O.2       12 UNK        -0.5489 
     30 CA        -55.5910  -26.8523   17.3923 C.3       11 UNK         0.0294 
     31 CB        -55.3102  -27.6167   18.6975 C.3       11 UNK        -0.2019 
     32 N         -54.3482  -26.2217   16.9541 N.am      11 UNK        -0.4493 
     33 C         -54.2489  -25.1588   16.1517 C.2       11 UNK         0.4932 
     34 O         -55.2205  -24.5832   15.6599 O.2       11 UNK        -0.5029 
     35 CA        -52.8326  -24.6119   15.8807 C.3       10 UNK         0.0280 
     36 CB        -52.3070  -23.8191   17.0928 C.3       10 UNK        -0.1976 
     37 N         -51.8415  -25.5988   15.4285 N.am      10 UNK        -0.4242 
     38 C         -51.3703  -26.6857   16.0596 C.2       10 UNK         0.5072 
     39 O         -51.7291  -27.0520   17.1802 O.2       10 UNK        -0.5224 
     40 CA        -50.3065  -27.5032   15.3113 C.3       9 UNK         0.0343 
     41 CB        -50.9153  -28.2211   14.0968 C.3       9 UNK        -0.2003 
     42 N         -49.1724  -26.6824   14.8859 N.am      9 UNK        -0.4272 
     43 C         -48.2689  -26.1472   15.7203 C.2       9 UNK         0.4988 
     44 O         -48.2683  -26.3243   16.9392 O.2       9 UNK        -0.5108 
     45 CA        -47.1724  -25.2695   15.0934 C.3       8 UNK         0.0248 
     46 CB        -46.0559  -26.1413   14.4973 C.3       8 UNK        -0.2001 
     47 N         -47.6898  -24.3513   14.0759 N.am      8 UNK        -0.4140 
     48 C         -48.5126  -23.3244   14.3378 C.2       8 UNK         0.5028 
     49 O         -48.8720  -23.0045   15.4713 O.2       8 UNK        -0.5428 
     50 CA        -49.0335  -22.5172   13.1372 C.3       7 UNK         0.0264 
     51 CB        -48.0124  -21.4481   12.7166 C.3       7 UNK        -0.1988 
     52 N         -49.3724  -23.3474   11.9806 N.am      7 UNK        -0.4454 
     53 C         -50.3395  -24.2779   11.9558 C.2       7 UNK         0.5027 
     54 O         -51.0737  -24.5414   12.9085 O.2       7 UNK        -0.5083 
     55 CA        -50.4813  -25.0739   10.6439 C.3       6 UNK         0.0844 
     56 C56       -51.2080  -24.1926    9.5924 C.3       14 UNK        -0.0967 
     57 S57       -51.3597  -24.9166    7.9289 S.3       14 UNK        -0.2604 
     58 C58       -52.9272  -25.8296    8.0472 C.3       14 UNK         0.0134 
     59 N         -49.1836  -25.6110   10.2101 N.am      6 UNK        -0.4116 
     60 C         -48.4156  -26.4257   10.9559 C.2       5 UNK         0.5034 
     61 O         -48.7542  -26.8830   12.0468 O.2       5 UNK        -0.5045 
     62 CA        -46.9980  -26.7273   10.4513 C.3       5 UNK         0.0224 
     63 CB        -46.9845  -27.9457    9.5188 C.3       5 UNK        -0.1978 
     64 N         -46.4054  -25.5696    9.7835 N.am      5 UNK        -0.4737 
     65 C         -45.9442  -24.4878   10.4254 C.2       4 UNK         0.5027 
     66 O         -45.9209  -24.3809   11.6509 O.2       4 UNK        -0.5211 
     67 CA        -45.4696  -23.3129    9.5524 C.3       4 UNK         0.0297 
     68 CB        -44.0059  -23.5135    9.1295 C.3       4 UNK        -0.1993 
     69 N         -46.3024  -23.1153    8.3625 N.am      4 UNK        -0.4486 
     70 C         -47.5944  -22.7614    8.3988 C.2       3 UNK         0.4961 
     71 O         -48.2014  -22.5063    9.4396 O.2       3 UNK        -0.5105 
     72 CA        -48.3506  -22.7213    7.0573 C.3       3 UNK         0.0299 
     73 CB        -48.2126  -21.3322    6.4145 C.3       3 UNK        -0.1972 
     74 N         -47.9735  -23.7514    6.0760 N.am      3 UNK        -0.4305 
     75 C         -47.8782  -25.0721    6.2955 C.2       2 UNK         0.5006 
     76 O         -48.0018  -25.5932    7.4049 O.2       2 UNK        -0.5106 
     77 CA        -47.5673  -25.9544    5.0774 C.3       2 UNK         0.0296 
     78 CB        -46.2656  -25.5212    4.3723 C.3       2 UNK        -0.2002 
     79 N         -47.4424  -27.3494    5.5004 N.am      2 UNK        -0.4032 
     80 C         -47.6858  -28.4280    4.7441 C.2       1 UNK         0.5000 
     81 O         -48.1364  -28.3658    3.5980 O.2       1 UNK        -0.5238 
     82 H82       -44.4628  -29.8959    8.1603 H         1 UNK         0.0889 
     83 H83       -43.7289  -28.4242    7.5125 H         1 UNK         0.0889 
     84 H84       -43.1151  -30.0084    7.0311 H         1 UNK         0.0889 
     85 H85       -46.5451  -29.9855    7.2810 H         1 UNK         0.3028 
     86 H86       -46.9359  -30.3899    4.4948 H         1 UNK         0.0864 
     87 H87       -49.3725  -30.5543    5.1169 H         1 UNK         0.0720 
     88 H88       -48.3178  -31.6418    5.9692 H         1 UNK         0.0720 
     89 H89       -51.3117  -30.3370    6.3697 H         1 UNK         0.0814 
     90 H90       -51.0971  -31.4334    7.7160 H         1 UNK         0.0814 
     91 H91       -51.6567  -27.8644    6.8085 H         1 UNK         0.1469 
     92 H92       -53.6464  -26.8840   10.4725 H         1 UNK         0.1381 
     93 H93       -51.9789  -30.8006    9.9162 H         1 UNK         0.1206 
     94 H94       -52.6817  -30.0348   12.1513 H         1 UNK         0.0813 
     95 H95       -53.3224  -28.4317   12.4033 H         1 UNK         0.0813 
     96 H96       -56.0450  -28.2473   10.3366 H         1 UNK         0.0638 
     97 H97       -55.5196  -27.6123   11.8699 H         1 UNK         0.0638 
     98 H98       -57.9128  -27.5489   11.8316 H         1 UNK         0.0568 
     99 H99       -59.4068  -31.2371   11.1413 H         1 UNK         0.3450 
    100 H100      -58.5641  -30.8770   12.6278 H         1 UNK         0.3450 
    101 H101      -56.5793  -29.0568   13.8352 H         1 UNK         0.2987 
    102 H102      -59.2982  -28.9745   16.1757 H         1 UNK         0.0766 
    103 H103      -57.7999  -30.7833   16.8937 H         1 UNK         0.0798 
    104 H104      -56.8091  -30.6100   15.4507 H         1 UNK         0.0798 
    105 H105      -58.4729  -31.1582   15.3175 H         1 UNK         0.0798 
    106 H106      -57.9696  -27.5972   17.2200 H         1 UNK         0.3198 
    107 H107      -56.3230  -26.0675   17.5962 H         1 UNK         0.0843 
    108 H108      -54.5786  -28.4120   18.5470 H         1 UNK         0.0831 
    109 H109      -56.2167  -28.0784   19.0909 H         1 UNK         0.0831 
    110 H110      -54.9264  -26.9519   19.4717 H         1 UNK         0.0831 
    111 H111      -53.4755  -26.6594   17.2456 H         1 UNK         0.3133 
    112 H112      -52.9274  -23.9073   15.0529 H         1 UNK         0.0566 
    113 H113      -51.3543  -23.3398   16.8664 H         1 UNK         0.0814 
    114 H114      -53.0067  -23.0323   17.3776 H         1 UNK         0.0814 
    115 H115      -52.1609  -24.4558   17.9659 H         1 UNK         0.0814 
    116 H116      -51.4685  -25.3983   14.5015 H         1 UNK         0.3091 
    117 H117      -49.9319  -28.2666   15.9966 H         1 UNK         0.0702 
    118 H118      -51.7765  -28.8224   14.3913 H         1 UNK         0.0785 
    119 H119      -51.2472  -27.5151   13.3344 H         1 UNK         0.0785 
    120 H120      -50.1930  -28.8924   13.6318 H         1 UNK         0.0785 
    121 H121      -49.0658  -26.5385   13.8844 H         1 UNK         0.2998 
    122 H122      -46.7354  -24.6652   15.8912 H         1 UNK         0.0697 
    123 H123      -46.4261  -26.7764   13.6928 H         1 UNK         0.0825 
    124 H124      -45.6262  -26.7960   15.2566 H         1 UNK         0.0825 
    125 H125      -45.2448  -25.5317   14.0987 H         1 UNK         0.0825 
    126 H126      -47.3741  -24.4960   13.1224 H         1 UNK         0.3029 
    127 H127      -49.9471  -22.0106   13.4559 H         1 UNK         0.0897 
    128 H128      -48.4066  -20.8148   11.9214 H         1 UNK         0.0792 
    129 H129      -47.0849  -21.8953   12.3569 H         1 UNK         0.0792 
    130 H130      -47.7593  -20.7975   13.5548 H         1 UNK         0.0792 
    131 H131      -48.8446  -23.1740   11.1277 H         1 UNK         0.3086 
    132 H132      -51.1154  -25.9357   10.8565 H         1 UNK         0.0583 
    133 H133      -52.2055  -23.9314    9.9508 H         1 UNK         0.1020 
    134 H134      -50.6932  -23.2392    9.4676 H         1 UNK         0.1020 
    135 H135      -53.6445  -25.2838    8.6616 H         1 UNK         0.0694 
    136 H136      -53.3680  -25.8993    7.0518 H         1 UNK         0.0694 
    137 H137      -48.8515  -25.3316    9.2936 H         1 UNK         0.2989 
    138 H138      -46.3818  -26.9698   11.3194 H         1 UNK         0.1055 
    139 H139      -47.3550  -28.8322   10.0355 H         1 UNK         0.0806 
    140 H140      -45.9756  -28.1664    9.1734 H         1 UNK         0.0806 
    141 H141      -47.6190  -27.7942    8.6474 H         1 UNK         0.0806 
    142 H142      -46.5135  -25.5288    8.7766 H         1 UNK         0.3061 
    143 H143      -45.5300  -22.4063   10.1586 H         1 UNK         0.0734 
    144 H144      -43.6294  -22.6511    8.5792 H         1 UNK         0.0832 
    145 H145      -43.3641  -23.6439   10.0021 H         1 UNK         0.0832 
    146 H146      -43.8823  -24.3957    8.5001 H         1 UNK         0.0832 
    147 H147      -45.8819  -23.3059    7.4648 H         1 UNK         0.3156 
    148 H148      -49.4057  -22.8741    7.2838 H         1 UNK         0.0589 
    149 H149      -47.1860  -21.1288    6.1072 H         1 UNK         0.0808 
    150 H150      -48.8528  -21.2337    5.5376 H         1 UNK         0.0808 
    151 H151      -48.5049  -20.5472    7.1138 H         1 UNK         0.0808 
    152 H152      -47.8443  -23.4241    5.1295 H         1 UNK         0.3098 
    153 H153      -48.4073  -25.8615    4.3859 H         1 UNK         0.0720 
    154 H154      -46.0405  -26.1702    3.5256 H         1 UNK         0.0791 
    155 H155      -45.4116  -25.5567    5.0502 H         1 UNK         0.0791 
    156 H156      -46.3350  -24.5060    3.9812 H         1 UNK         0.0791 
    157 H157      -47.1708  -27.4768    6.4655 H         1 UNK         0.3028 
@<TRIPOS>BOND
     1    1    2 1    
     2    1   82 1    
     3    1   83 1    
     4    1   84 1    
     5    2    3 2    
     6    2    4 am   BACKBONE|DICT|INTERRES
     7    4    5 1    
     8    4   85 1    
     9    5    6 1    
    10    5   80 1    
    11    5   86 1    
    12    6    7 1    
    13    6   87 1    
    14    6   88 1    
    15    7    8 1    
    16    8    9 1    
    17    8   89 1    
    18    8   90 1    
    19    9   10 ar   
    20    9   14 ar   
    21   10   11 ar   
    22   10   91 1    
    23   11   12 ar   
    24   11   58 1    
    25   12   13 ar   
    26   12   92 1    
    27   13   14 ar   
    28   13   15 1    
    29   14   93 1    
    30   15   16 1    
    31   15   94 1    
    32   15   95 1    
    33   16   17 1    
    34   17   18 1    
    35   17   96 1    
    36   17   97 1    
    37   18   19 1    
    38   18   22 1    
    39   18   98 1    
    40   19   20 am   BACKBONE|DICT|INTERRES
    41   19   21 2    
    42   20   99 1    
    43   20  100 1    
    44   22   23 am   BACKBONE|DICT|INTERRES
    45   22  101 1    
    46   23   24 2    
    47   23   25 1    
    48   25   26 1    
    49   25   27 1    
    50   25  102 1    
    51   26  103 1    
    52   26  104 1    
    53   26  105 1    
    54   27   28 am   BACKBONE|DICT|INTERRES
    55   27  106 1    
    56   28   29 2    
    57   28   30 1    
    58   30   31 1    
    59   30   32 1    
    60   30  107 1    
    61   31  108 1    
    62   31  109 1    
    63   31  110 1    
    64   32   33 am   BACKBONE|DICT|INTERRES
    65   32  111 1    
    66   33   34 2    
    67   33   35 1    
    68   35   36 1    
    69   35   37 1    
    70   35  112 1    
    71   36  113 1    
    72   36  114 1    
    73   36  115 1    
    74   37   38 am   BACKBONE|DICT|INTERRES
    75   37  116 1    
    76   38   39 2    
    77   38   40 1    
    78   40   41 1    
    79   40   42 1    
    80   40  117 1    
    81   41  118 1    
    82   41  119 1    
    83   41  120 1    
    84   42   43 am   BACKBONE|DICT|INTERRES
    85   42  121 1    
    86   43   44 2    
    87   43   45 1    
    88   45   46 1    
    89   45   47 1    
    90   45  122 1    
    91   46  123 1    
    92   46  124 1    
    93   46  125 1    
    94   47   48 am   BACKBONE|DICT|INTERRES
    95   47  126 1    
    96   48   49 2    
    97   48   50 1    
    98   50   51 1    
    99   50   52 1    
   100   50  127 1    
   101   51  128 1    
   102   51  129 1    
   103   51  130 1    
   104   52   53 am   BACKBONE|DICT|INTERRES
   105   52  131 1    
   106   53   54 2    
   107   53   55 1    
   108   55   56 1    
   109   55   59 1    
   110   55  132 1    
   111   56   57 1    
   112   56  133 1    
   113   56  134 1    
   114   57   58 1    
   115   58  135 1    
   116   58  136 1    
   117   59   60 am   BACKBONE|DICT|INTERRES
   118   59  137 1    
   119   60   61 2    
   120   60   62 1    
   121   62   63 1    
   122   62   64 1    
   123   62  138 1    
   124   63  139 1    
   125   63  140 1    
   126   63  141 1    
   127   64   65 am   BACKBONE|DICT|INTERRES
   128   64  142 1    
   129   65   66 2    
   130   65   67 1    
   131   67   68 1    
   132   67   69 1    
   133   67  143 1    
   134   68  144 1    
   135   68  145 1    
   136   68  146 1    
   137   69   70 am   BACKBONE|DICT|INTERRES
   138   69  147 1    
   139   70   71 2    
   140   70   72 1    
   141   72   73 1    
   142   72   74 1    
   143   72  148 1    
   144   73  149 1    
   145   73  150 1    
   146   73  151 1    
   147   74   75 am   BACKBONE|DICT|INTERRES
   148   74  152 1    
   149   75   76 2    
   150   75   77 1    
   151   77   78 1    
   152   77   79 1    
   153   77  153 1    
   154   78  154 1    
   155   78  155 1    
   156   78  156 1    
   157   79   80 am   BACKBONE|DICT|INTERRES
   158   79  157 1    
   159   80   81 2    
@<TRIPOS>SUBSTRUCTURE
     1 UNK         1 GROUP             0       ****    0 ROOT    
