@<TRIPOS>MOLECULE
3R207
157   159    1
SMALL
USER_CHARGES


@<TRIPOS>ATOM
      1 CA        -50.6601  -32.7658    6.5420 C.3       0 UNK        -0.1975 
      2 C         -49.5209  -31.8780    6.0626 C.2       0 UNK         0.4852 
      3 O         -48.5261  -32.3858    5.5422 O.2       0 UNK        -0.5216 
      4 N         -49.6646  -30.5575    6.2256 N.am      1 UNK        -0.4461 
      5 CA        -48.6431  -29.5547    5.9114 C.3       1 UNK         0.0864 
      6 C6        -49.2756  -28.1652    5.6261 C.3       14 UNK        -0.0898 
      7 S7        -50.3693  -27.5261    6.9463 S.3       14 UNK        -0.2598 
      8 C8        -51.9646  -27.4416    6.0771 C.3       14 UNK         0.0286 
      9 C9        -53.0053  -26.6922    6.8956 C.ar      14 UNK        -0.0844 
     10 C10       -53.2617  -25.3413    6.6392 C.ar      14 UNK        -0.0881 
     11 C11       -54.2368  -24.6488    7.3657 C.ar      14 UNK        -0.0643 
     12 C12       -54.9551  -25.3234    8.3586 C.ar      14 UNK        -0.0930 
     13 C13       -54.7165  -26.6777    8.6172 C.ar      14 UNK        -0.0827 
     14 C14       -53.7370  -27.3556    7.8851 C.ar      14 UNK        -0.1249 
     15 C15       -55.5548  -27.4133    9.6540 C.3       14 UNK         0.0141 
     16 S16       -54.8726  -27.2397   11.3305 S.3       14 UNK        -0.2313 
     17 C17       -53.6591  -28.6023   11.4000 C.3       14 UNK        -0.0915 
     18 CA        -54.0586  -29.7214   12.3991 C.3       13 UNK         0.0968 
     19 C         -53.0618  -30.9173   12.3526 C.2       13 UNK         0.5732 
     20 N         -52.4993  -31.3758   13.4661 N.am      13 UNK        -0.7310 
     21 O         -52.8044  -31.4574   11.2794 O.2       13 UNK        -0.5035 
     22 N         -54.2808  -29.1994   13.7580 N.am      13 UNK        -0.4233 
     23 C         -55.1953  -29.6860   14.6071 C.2       13 UNK         0.4989 
     24 O         -55.9906  -30.5799   14.3096 O.2       13 UNK        -0.4996 
     25 CA        -55.2362  -29.0749   16.0235 C.3       12 UNK         0.0216 
     26 CB        -55.9722  -29.9740   17.0400 C.3       12 UNK        -0.1964 
     27 N         -53.9226  -28.6847   16.5505 N.am      12 UNK        -0.4276 
     28 C         -52.8410  -29.4643   16.7176 C.2       12 UNK         0.5020 
     29 O         -52.8052  -30.6524   16.3925 O.2       12 UNK        -0.5489 
     30 CA        -51.5818  -28.8081   17.3208 C.3       11 UNK         0.0294 
     31 CB        -50.2943  -29.3513   16.6732 C.3       11 UNK        -0.2019 
     32 N         -51.6144  -27.3557   17.1475 N.am      11 UNK        -0.4493 
     33 C         -51.8034  -26.4470   18.1144 C.2       11 UNK         0.4932 
     34 O         -51.8778  -26.7262   19.3108 O.2       11 UNK        -0.5029 
     35 CA        -51.9688  -24.9761   17.6758 C.3       10 UNK         0.0280 
     36 CB        -50.6502  -24.2108   17.8672 C.3       10 UNK        -0.1976 
     37 N         -52.4198  -24.8234   16.2872 N.am      10 UNK        -0.4242 
     38 C         -53.6070  -25.2467   15.8207 C.2       10 UNK         0.5072 
     39 O         -54.4890  -25.7148   16.5409 O.2       10 UNK        -0.5224 
     40 CA        -53.8204  -25.2438   14.2944 C.3       9 UNK         0.0343 
     41 CB        -54.5904  -23.9897   13.8571 C.3       9 UNK        -0.2003 
     42 N         -52.5723  -25.3498   13.5311 N.am      9 UNK        -0.4272 
     43 C         -51.6989  -26.3653   13.6352 C.2       9 UNK         0.4988 
     44 O         -51.9536  -27.3957   14.2591 O.2       9 UNK        -0.5108 
     45 CA        -50.2963  -26.2087   13.0130 C.3       8 UNK         0.0248 
     46 CB        -50.1105  -27.1854   11.8422 C.3       8 UNK        -0.2001 
     47 N         -49.9749  -24.8513   12.5650 N.am      8 UNK        -0.4140 
     48 C         -49.9319  -23.7558   13.3417 C.2       8 UNK         0.5028 
     49 O         -50.0775  -23.7851   14.5650 O.2       8 UNK        -0.5428 
     50 CA        -49.8034  -22.3902   12.6345 C.3       7 UNK         0.0264 
     51 CB        -48.3455  -21.9123   12.6545 C.3       7 UNK        -0.1988 
     52 N         -50.2896  -22.4012   11.2495 N.am      7 UNK        -0.4454 
     53 C         -51.5381  -22.7288   10.8763 C.2       7 UNK         0.5027 
     54 O         -52.4534  -22.9011   11.6813 O.2       7 UNK        -0.5083 
     55 CA        -51.8101  -22.9771    9.3757 C.3       6 UNK         0.0844 
     56 C56       -52.7563  -21.8947    8.8022 C.3       14 UNK        -0.0967 
     57 S57       -53.0987  -22.1071    7.0211 S.3       14 UNK        -0.2604 
     58 C58       -54.5629  -23.1940    7.0385 C.3       14 UNK         0.0134 
     59 N         -50.6018  -23.1571    8.5605 N.am      6 UNK        -0.4116 
     60 C         -49.6912  -24.1276    8.7137 C.2       5 UNK         0.5034 
     61 O         -49.7107  -24.9348    9.6420 O.2       5 UNK        -0.5045 
     62 CA        -48.5569  -24.2083    7.6792 C.3       5 UNK         0.0224 
     63 CB        -48.6778  -23.2090    6.5050 C.3       5 UNK        -0.1978 
     64 N         -47.2424  -24.1130    8.3179 N.am      5 UNK        -0.4737 
     65 C         -46.7432  -23.0866    9.0216 C.2       4 UNK         0.5027 
     66 O         -47.3650  -22.0467    9.2493 O.2       4 UNK        -0.5211 
     67 CA        -45.2894  -23.2469    9.5198 C.3       4 UNK         0.0297 
     68 CB        -44.9009  -22.2430   10.6270 C.3       4 UNK        -0.1993 
     69 N         -44.9467  -24.6243    9.9021 N.am      4 UNK        -0.4486 
     70 C         -45.5009  -25.3531   10.8834 C.2       3 UNK         0.4961 
     71 O         -46.3476  -24.9207   11.6664 O.2       3 UNK        -0.5105 
     72 CA        -45.0217  -26.8188   10.9970 C.3       3 UNK         0.0299 
     73 CB        -45.9400  -27.6747   11.8940 C.3       3 UNK        -0.1972 
     74 N         -44.8075  -27.5124    9.7144 N.am      3 UNK        -0.4305 
     75 C         -45.6581  -27.5963    8.6780 C.2       2 UNK         0.5006 
     76 O         -46.6886  -26.9291    8.5848 O.2       2 UNK        -0.5106 
     77 CA        -45.2690  -28.5488    7.5260 C.3       2 UNK         0.0296 
     78 CB        -44.5720  -29.8407    8.0115 C.3       2 UNK        -0.2002 
     79 N         -46.4129  -28.8667    6.6563 N.am      2 UNK        -0.4032 
     80 C         -47.5501  -29.4941    7.0037 C.2       1 UNK         0.5000 
     81 O         -47.7548  -29.9950    8.1147 O.2       1 UNK        -0.5238 
     82 H82       -51.4754  -32.1854    6.9741 H         1 UNK         0.0889 
     83 H83       -50.3000  -33.4600    7.3008 H         1 UNK         0.0889 
     84 H84       -51.0600  -33.3457    5.7106 H         1 UNK         0.0889 
     85 H85       -50.4768  -30.1974    6.7056 H         1 UNK         0.3028 
     86 H86       -48.1426  -29.8722    4.9935 H         1 UNK         0.0864 
     87 H87       -48.5029  -27.4175    5.4390 H         1 UNK         0.0720 
     88 H88       -49.8406  -28.2245    4.6948 H         1 UNK         0.0720 
     89 H89       -51.8278  -26.9497    5.1127 H         1 UNK         0.0814 
     90 H90       -52.3150  -28.4519    5.8604 H         1 UNK         0.0814 
     91 H91       -52.7095  -24.8276    5.8641 H         1 UNK         0.1469 
     92 H92       -55.7200  -24.8018    8.9176 H         1 UNK         0.1381 
     93 H93       -53.5507  -28.4037    8.0744 H         1 UNK         0.1206 
     94 H94       -56.5691  -27.0115    9.6513 H         1 UNK         0.0813 
     95 H95       -55.6526  -28.4690    9.3966 H         1 UNK         0.0813 
     96 H96       -53.5267  -29.0131   10.3985 H         1 UNK         0.0638 
     97 H97       -52.6957  -28.1829   11.6756 H         1 UNK         0.0638 
     98 H98       -55.0020  -30.1302   12.0330 H         1 UNK         0.0568 
     99 H99       -52.7161  -30.9780   14.3733 H         1 UNK         0.3450 
    100 H100      -51.8646  -32.1551   13.4048 H         1 UNK         0.3450 
    101 H101      -53.6124  -28.5058   14.0767 H         1 UNK         0.2987 
    102 H102      -55.8087  -28.1510   15.9291 H         1 UNK         0.0766 
    103 H103      -56.0170  -29.5065   18.0236 H         1 UNK         0.0798 
    104 H104      -57.0000  -30.1630   16.7275 H         1 UNK         0.0798 
    105 H105      -55.4818  -30.9419   17.1505 H         1 UNK         0.0798 
    106 H106      -53.8487  -27.7086   16.8161 H         1 UNK         0.3198 
    107 H107      -51.5668  -29.0653   18.3818 H         1 UNK         0.0843 
    108 H108      -50.1922  -30.4242   16.8406 H         1 UNK         0.0831 
    109 H109      -49.4080  -28.8746   17.0920 H         1 UNK         0.0831 
    110 H110      -50.2863  -29.1874   15.5947 H         1 UNK         0.0831 
    111 H111      -51.6020  -27.0487   16.1798 H         1 UNK         0.3133 
    112 H112      -52.7239  -24.5236   18.3219 H         1 UNK         0.0566 
    113 H113      -49.8539  -24.6183   17.2428 H         1 UNK         0.0814 
    114 H114      -50.3130  -24.2649   18.9032 H         1 UNK         0.0814 
    115 H115      -50.7629  -23.1555   17.6178 H         1 UNK         0.0814 
    116 H116      -51.7375  -24.4547   15.6303 H         1 UNK         0.3091 
    117 H117      -54.4288  -26.1173   14.0547 H         1 UNK         0.0702 
    118 H118      -54.8273  -24.0246   12.7933 H         1 UNK         0.0785 
    119 H119      -54.0185  -23.0798   14.0438 H         1 UNK         0.0785 
    120 H120      -55.5346  -23.9016   14.3963 H         1 UNK         0.0785 
    121 H121      -52.3264  -24.5453   12.9642 H         1 UNK         0.2998 
    122 H122      -49.5748  -26.4697   13.7894 H         1 UNK         0.0697 
    123 H123      -50.8153  -26.9833   11.0346 H         1 UNK         0.0825 
    124 H124      -50.2562  -28.2183   12.1613 H         1 UNK         0.0825 
    125 H125      -49.1087  -27.1120   11.4214 H         1 UNK         0.0825 
    126 H126      -49.8360  -24.7423   11.5626 H         1 UNK         0.3029 
    127 H127      -50.4110  -21.6752   13.1931 H         1 UNK         0.0897 
    128 H128      -48.2412  -20.9216   12.2116 H         1 UNK         0.0792 
    129 H129      -47.9648  -21.8564   13.6752 H         1 UNK         0.0792 
    130 H130      -47.7022  -22.5971   12.1027 H         1 UNK         0.0792 
    131 H131      -49.5899  -22.2888   10.5269 H         1 UNK         0.3086 
    132 H132      -52.3408  -23.9302    9.3334 H         1 UNK         0.0583 
    133 H133      -53.7021  -21.8849    9.3481 H         1 UNK         0.1020 
    134 H134      -52.3222  -20.9023    8.9387 H         1 UNK         0.1020 
    135 H135      -55.3017  -22.7900    7.7323 H         1 UNK         0.0694 
    136 H136      -55.0252  -23.1628    6.0511 H         1 UNK         0.0694 
    137 H137      -50.5066  -22.5291    7.7762 H         1 UNK         0.2989 
    138 H138      -48.6105  -25.2137    7.2607 H         1 UNK         0.1055 
    139 H139      -49.6180  -23.3430    5.9678 H         1 UNK         0.0806 
    140 H140      -47.8774  -23.3630    5.7813 H         1 UNK         0.0806 
    141 H141      -48.6246  -22.1708    6.8347 H         1 UNK         0.0806 
    142 H142      -46.7250  -24.9879    8.3270 H         1 UNK         0.3061 
    143 H143      -44.6670  -23.0171    8.6537 H         1 UNK         0.0734 
    144 H144      -45.0808  -21.2158   10.3075 H         1 UNK         0.0832 
    145 H145      -45.4683  -22.4015   11.5427 H         1 UNK         0.0832 
    146 H146      -43.8426  -22.3209   10.8752 H         1 UNK         0.0832 
    147 H147      -44.2630  -25.0832    9.3160 H         1 UNK         0.3156 
    148 H148      -44.0466  -26.7699   11.4838 H         1 UNK         0.0589 
    149 H149      -46.9253  -27.8004   11.4467 H         1 UNK         0.0808 
    150 H150      -45.5207  -28.6675   12.0563 H         1 UNK         0.0808 
    151 H151      -46.0786  -27.2203   12.8759 H         1 UNK         0.0808 
    152 H152      -43.9597  -28.0600    9.6613 H         1 UNK         0.3098 
    153 H153      -44.5608  -28.0010    6.9027 H         1 UNK         0.0720 
    154 H154      -44.4007  -30.5303    7.1848 H         1 UNK         0.0791 
    155 H155      -43.5971  -29.6300    8.4517 H         1 UNK         0.0791 
    156 H156      -45.1652  -30.3650    8.7619 H         1 UNK         0.0791 
    157 H157      -46.3588  -28.4752    5.7266 H         1 UNK         0.3028 
@<TRIPOS>BOND
     1    1    2 1    
     2    1   82 1    
     3    1   83 1    
     4    1   84 1    
     5    2    3 2    
     6    2    4 am   BACKBONE|DICT|INTERRES
     7    4    5 1    
     8    4   85 1    
     9    5    6 1    
    10    5   80 1    
    11    5   86 1    
    12    6    7 1    
    13    6   87 1    
    14    6   88 1    
    15    7    8 1    
    16    8    9 1    
    17    8   89 1    
    18    8   90 1    
    19    9   10 ar   
    20    9   14 ar   
    21   10   11 ar   
    22   10   91 1    
    23   11   12 ar   
    24   11   58 1    
    25   12   13 ar   
    26   12   92 1    
    27   13   14 ar   
    28   13   15 1    
    29   14   93 1    
    30   15   16 1    
    31   15   94 1    
    32   15   95 1    
    33   16   17 1    
    34   17   18 1    
    35   17   96 1    
    36   17   97 1    
    37   18   19 1    
    38   18   22 1    
    39   18   98 1    
    40   19   20 am   BACKBONE|DICT|INTERRES
    41   19   21 2    
    42   20   99 1    
    43   20  100 1    
    44   22   23 am   BACKBONE|DICT|INTERRES
    45   22  101 1    
    46   23   24 2    
    47   23   25 1    
    48   25   26 1    
    49   25   27 1    
    50   25  102 1    
    51   26  103 1    
    52   26  104 1    
    53   26  105 1    
    54   27   28 am   BACKBONE|DICT|INTERRES
    55   27  106 1    
    56   28   29 2    
    57   28   30 1    
    58   30   31 1    
    59   30   32 1    
    60   30  107 1    
    61   31  108 1    
    62   31  109 1    
    63   31  110 1    
    64   32   33 am   BACKBONE|DICT|INTERRES
    65   32  111 1    
    66   33   34 2    
    67   33   35 1    
    68   35   36 1    
    69   35   37 1    
    70   35  112 1    
    71   36  113 1    
    72   36  114 1    
    73   36  115 1    
    74   37   38 am   BACKBONE|DICT|INTERRES
    75   37  116 1    
    76   38   39 2    
    77   38   40 1    
    78   40   41 1    
    79   40   42 1    
    80   40  117 1    
    81   41  118 1    
    82   41  119 1    
    83   41  120 1    
    84   42   43 am   BACKBONE|DICT|INTERRES
    85   42  121 1    
    86   43   44 2    
    87   43   45 1    
    88   45   46 1    
    89   45   47 1    
    90   45  122 1    
    91   46  123 1    
    92   46  124 1    
    93   46  125 1    
    94   47   48 am   BACKBONE|DICT|INTERRES
    95   47  126 1    
    96   48   49 2    
    97   48   50 1    
    98   50   51 1    
    99   50   52 1    
   100   50  127 1    
   101   51  128 1    
   102   51  129 1    
   103   51  130 1    
   104   52   53 am   BACKBONE|DICT|INTERRES
   105   52  131 1    
   106   53   54 2    
   107   53   55 1    
   108   55   56 1    
   109   55   59 1    
   110   55  132 1    
   111   56   57 1    
   112   56  133 1    
   113   56  134 1    
   114   57   58 1    
   115   58  135 1    
   116   58  136 1    
   117   59   60 am   BACKBONE|DICT|INTERRES
   118   59  137 1    
   119   60   61 2    
   120   60   62 1    
   121   62   63 1    
   122   62   64 1    
   123   62  138 1    
   124   63  139 1    
   125   63  140 1    
   126   63  141 1    
   127   64   65 am   BACKBONE|DICT|INTERRES
   128   64  142 1    
   129   65   66 2    
   130   65   67 1    
   131   67   68 1    
   132   67   69 1    
   133   67  143 1    
   134   68  144 1    
   135   68  145 1    
   136   68  146 1    
   137   69   70 am   BACKBONE|DICT|INTERRES
   138   69  147 1    
   139   70   71 2    
   140   70   72 1    
   141   72   73 1    
   142   72   74 1    
   143   72  148 1    
   144   73  149 1    
   145   73  150 1    
   146   73  151 1    
   147   74   75 am   BACKBONE|DICT|INTERRES
   148   74  152 1    
   149   75   76 2    
   150   75   77 1    
   151   77   78 1    
   152   77   79 1    
   153   77  153 1    
   154   78  154 1    
   155   78  155 1    
   156   78  156 1    
   157   79   80 am   BACKBONE|DICT|INTERRES
   158   79  157 1    
   159   80   81 2    
@<TRIPOS>SUBSTRUCTURE
     1 UNK         1 GROUP             0       ****    0 ROOT    
