@<TRIPOS>MOLECULE
3R207
157   159    1
SMALL
USER_CHARGES


@<TRIPOS>ATOM
      1 CA        -51.4871  -26.5962    5.7718 C.3       0 UNK        -0.1975 
      2 C         -51.5832  -27.4580    4.5134 C.2       0 UNK         0.4852 
      3 O         -52.3324  -27.1076    3.6032 O.2       0 UNK        -0.5216 
      4 N         -50.8646  -28.5862    4.4073 N.am      1 UNK        -0.4461 
      5 CA        -49.8877  -29.1135    5.3677 C.3       1 UNK         0.0864 
      6 C6        -49.5623  -30.6079    5.1016 C.3       14 UNK        -0.0898 
      7 S7        -50.8523  -31.8781    5.4195 S.3       14 UNK        -0.2598 
      8 C8        -52.4593  -31.0535    5.7383 C.3       14 UNK         0.0286 
      9 C9        -52.5686  -30.2341    7.0259 C.ar      14 UNK        -0.0844 
     10 C10       -51.6857  -30.3951    8.1019 C.ar      14 UNK        -0.0881 
     11 C11       -51.7667  -29.5607    9.2196 C.ar      14 UNK        -0.0643 
     12 C12       -52.7768  -28.5996    9.2881 C.ar      14 UNK        -0.0930 
     13 C13       -53.6924  -28.4507    8.2432 C.ar      14 UNK        -0.0827 
     14 C14       -53.5793  -29.2706    7.1167 C.ar      14 UNK        -0.1249 
     15 C15       -54.7648  -27.3668    8.2943 C.3       14 UNK         0.0141 
     16 S16       -55.6177  -27.2657    9.9028 S.3       14 UNK        -0.2313 
     17 C17       -56.4807  -28.8700    9.9410 C.3       14 UNK        -0.0915 
     18 CA        -57.6548  -28.8675   10.9514 C.3       13 UNK         0.0968 
     19 C         -58.4991  -30.1643   10.8224 C.2       13 UNK         0.5732 
     20 N         -59.4697  -30.1842    9.9192 N.am      13 UNK        -0.7310 
     21 O         -58.2598  -31.1606   11.5033 O.2       13 UNK        -0.5035 
     22 N         -57.1772  -28.6519   12.3244 N.am      13 UNK        -0.4233 
     23 C         -57.9519  -28.2941   13.3549 C.2       13 UNK         0.4989 
     24 O         -59.1484  -28.0209   13.2446 O.2       13 UNK        -0.4996 
     25 CA        -57.3042  -28.2389   14.7518 C.3       12 UNK         0.0216 
     26 CB        -57.8593  -29.3642   15.6424 C.3       12 UNK        -0.1964 
     27 N         -55.8393  -28.3251   14.7420 N.am      12 UNK        -0.4276 
     28 C         -55.0153  -27.3060   14.4667 C.2       12 UNK         0.5020 
     29 O         -55.3958  -26.1843   14.1226 O.2       12 UNK        -0.5489 
     30 CA        -53.5081  -27.6063   14.5768 C.3       11 UNK         0.0294 
     31 CB        -52.9206  -27.9086   13.1892 C.3       11 UNK        -0.2019 
     32 N         -52.7507  -26.5098   15.1875 N.am      11 UNK        -0.4493 
     33 C         -52.9568  -26.0147   16.4168 C.2       11 UNK         0.4932 
     34 O         -53.7949  -26.4566   17.2061 O.2       11 UNK        -0.5029 
     35 CA        -52.0443  -24.8452   16.8314 C.3       10 UNK         0.0280 
     36 CB        -52.3375  -24.3111   18.2496 C.3       10 UNK        -0.1976 
     37 N         -50.6242  -25.1750   16.6781 N.am      10 UNK        -0.4242 
     38 C         -49.9375  -26.1581   17.2822 C.2       10 UNK         0.5072 
     39 O         -50.4152  -26.9126   18.1308 O.2       10 UNK        -0.5224 
     40 CA        -48.4663  -26.3581   16.8673 C.3       9 UNK         0.0343 
     41 CB        -48.3243  -27.6399   16.0295 C.3       9 UNK        -0.2003 
     42 N         -47.9036  -25.2355   16.1126 N.am      9 UNK        -0.4272 
     43 C         -47.5800  -24.0420   16.6286 C.2       9 UNK         0.4988 
     44 O         -47.6480  -23.7720   17.8281 O.2       9 UNK        -0.5108 
     45 CA        -47.1428  -22.9531   15.6314 C.3       8 UNK         0.0248 
     46 CB        -45.6442  -23.0758   15.3134 C.3       8 UNK        -0.2001 
     47 N         -47.9205  -22.9618   14.3857 N.am      8 UNK        -0.4140 
     48 C         -49.2428  -22.7391   14.3170 C.2       8 UNK         0.5028 
     49 O         -49.9438  -22.4759   15.2936 O.2       8 UNK        -0.5428 
     50 CA        -49.9114  -22.8760   12.9406 C.3       7 UNK         0.0264 
     51 CB        -49.6423  -21.6336   12.0770 C.3       7 UNK        -0.1988 
     52 N         -49.4905  -24.0881   12.2343 N.am      7 UNK        -0.4454 
     53 C         -49.7731  -25.3358   12.6403 C.2       7 UNK         0.5027 
     54 O         -50.5036  -25.5861   13.6008 O.2       7 UNK        -0.5083 
     55 CA        -49.0977  -26.5037   11.8899 C.3       6 UNK         0.0844 
     56 C56       -49.9327  -26.9671   10.6747 C.3       14 UNK        -0.0967 
     57 S57       -49.3265  -28.5632   10.0182 S.3       14 UNK        -0.2604 
     58 C58       -50.7351  -29.6743   10.3298 C.3       14 UNK         0.0134 
     59 N         -47.7165  -26.1933   11.5168 N.am      6 UNK        -0.4116 
     60 C         -46.7188  -25.9678   12.3800 C.2       5 UNK         0.5034 
     61 O         -46.8416  -26.0201   13.6021 O.2       5 UNK        -0.5045 
     62 CA        -45.3663  -25.5673   11.7771 C.3       5 UNK         0.0224 
     63 CB        -44.6068  -26.7998   11.2607 C.3       5 UNK        -0.1978 
     64 N         -45.5231  -24.5887   10.6997 N.am      5 UNK        -0.4737 
     65 C         -45.8889  -23.3141   10.8891 C.2       4 UNK         0.5027 
     66 O         -46.1126  -22.8245   11.9964 O.2       4 UNK        -0.5211 
     67 CA        -46.0639  -22.4509    9.6280 C.3       4 UNK         0.0297 
     68 CB        -44.7049  -21.9267    9.1380 C.3       4 UNK        -0.1993 
     69 N         -46.7454  -23.1543    8.5363 N.am      4 UNK        -0.4486 
     70 C         -48.0204  -23.5624    8.5909 C.2       3 UNK         0.4961 
     71 O         -48.7486  -23.4063    9.5688 O.2       3 UNK        -0.5105 
     72 CA        -48.5760  -24.3040    7.3647 C.3       3 UNK         0.0299 
     73 CB        -48.8976  -23.3137    6.2336 C.3       3 UNK        -0.1972 
     74 N         -47.7462  -25.3969    6.8416 N.am      3 UNK        -0.4305 
     75 C         -47.1403  -26.3566    7.5559 C.2       2 UNK         0.5006 
     76 O         -47.0336  -26.3492    8.7815 O.2       2 UNK        -0.5106 
     77 CA        -46.6493  -27.5754    6.7629 C.3       2 UNK         0.0296 
     78 CB        -45.6225  -28.4122    7.5491 C.3       2 UNK        -0.2002 
     79 N         -47.8119  -28.4095    6.4599 N.am      2 UNK        -0.4032 
     80 C         -48.5972  -28.2642    5.3845 C.2       1 UNK         0.5000 
     81 O         -48.3438  -27.4878    4.4587 O.2       1 UNK        -0.5238 
     82 H82       -52.3143  -25.8877    5.8093 H         1 UNK         0.0889 
     83 H83       -50.5605  -26.0254    5.7685 H         1 UNK         0.0889 
     84 H84       -51.5311  -27.1905    6.6827 H         1 UNK         0.0889 
     85 H85       -50.9359  -29.1113    3.5483 H         1 UNK         0.3028 
     86 H86       -50.3000  -29.0268    6.3686 H         1 UNK         0.0864 
     87 H87       -48.7100  -30.9192    5.7088 H         1 UNK         0.0720 
     88 H88       -49.2321  -30.7314    4.0684 H         1 UNK         0.0720 
     89 H89       -52.7194  -30.4406    4.8753 H         1 UNK         0.0814 
     90 H90       -53.2218  -31.8320    5.7834 H         1 UNK         0.0814 
     91 H91       -50.9002  -31.1360    8.0579 H         1 UNK         0.1469 
     92 H92       -52.8484  -27.9546   10.1505 H         1 UNK         0.1381 
     93 H93       -54.2671  -29.1412    6.2919 H         1 UNK         0.1206 
     94 H94       -55.5085  -27.5182    7.5103 H         1 UNK         0.0813 
     95 H95       -54.2933  -26.4050    8.0891 H         1 UNK         0.0813 
     96 H96       -55.7589  -29.6530   10.1812 H         1 UNK         0.0638 
     97 H97       -56.8453  -29.0835    8.9343 H         1 UNK         0.0638 
     98 H98       -58.3086  -28.0295   10.7003 H         1 UNK         0.0568 
     99 H99       -60.0200  -31.0218    9.8109 H         1 UNK         0.3450 
    100 H100      -59.6680  -29.3776    9.3479 H         1 UNK         0.3450 
    101 H101      -56.2091  -28.8692   12.4984 H         1 UNK         0.2987 
    102 H102      -57.5894  -27.2837   15.1984 H         1 UNK         0.0766 
    103 H103      -57.4662  -29.2991   16.6572 H         1 UNK         0.0798 
    104 H104      -57.6136  -30.3510   15.2475 H         1 UNK         0.0798 
    105 H105      -58.9463  -29.3057   15.7159 H         1 UNK         0.0798 
    106 H106      -55.4408  -29.2146   15.0087 H         1 UNK         0.3198 
    107 H107      -53.3688  -28.4839   15.2115 H         1 UNK         0.0843 
    108 H108      -53.0198  -27.0522   12.5208 H         1 UNK         0.0831 
    109 H109      -53.4288  -28.7515   12.7189 H         1 UNK         0.0831 
    110 H110      -51.8626  -28.1620   13.2567 H         1 UNK         0.0831 
    111 H111      -52.0140  -26.0966   14.6190 H         1 UNK         0.3133 
    112 H112      -52.2451  -24.0351   16.1287 H         1 UNK         0.0566 
    113 H113      -51.6977  -23.4624   18.4918 H         1 UNK         0.0814 
    114 H114      -53.3709  -23.9722   18.3312 H         1 UNK         0.0814 
    115 H115      -52.1856  -25.0746   19.0130 H         1 UNK         0.0814 
    116 H116      -50.1319  -24.6166   15.9916 H         1 UNK         0.3091 
    117 H117      -47.8826  -26.4799   17.7820 H         1 UNK         0.0702 
    118 H118      -47.2826  -27.8333   15.7725 H         1 UNK         0.0785 
    119 H119      -48.8924  -27.5756   15.1007 H         1 UNK         0.0785 
    120 H120      -48.6900  -28.5097   16.5767 H         1 UNK         0.0785 
    121 H121      -47.7240  -25.4007   15.1243 H         1 UNK         0.2998 
    122 H122      -47.3074  -21.9858   16.1107 H         1 UNK         0.0697 
    123 H123      -45.4132  -24.0138   14.8082 H         1 UNK         0.0825 
    124 H124      -45.0470  -23.0404   16.2255 H         1 UNK         0.0825 
    125 H125      -45.3068  -22.2604   14.6733 H         1 UNK         0.0825 
    126 H126      -47.4039  -23.1282   13.5267 H         1 UNK         0.3029 
    127 H127      -50.9893  -22.9443   13.1039 H         1 UNK         0.0897 
    128 H128      -50.2037  -21.6730   11.1435 H         1 UNK         0.0792 
    129 H129      -49.9431  -20.7229   12.5967 H         1 UNK         0.0792 
    130 H130      -48.5856  -21.5343   11.8267 H         1 UNK         0.0792 
    131 H131      -48.9578  -23.9516   11.3781 H         1 UNK         0.3086 
    132 H132      -49.0557  -27.3349   12.5971 H         1 UNK         0.0583 
    133 H133      -50.9806  -27.0620   10.9545 H         1 UNK         0.1020 
    134 H134      -49.8986  -26.2240    9.8757 H         1 UNK         0.1020 
    135 H135      -50.3652  -30.6991   10.3882 H         1 UNK         0.0694 
    136 H136      -51.1820  -29.4594   11.3006 H         1 UNK         0.0694 
    137 H137      -47.5088  -26.1716   10.5194 H         1 UNK         0.2989 
    138 H138      -44.7722  -25.1089   12.5709 H         1 UNK         0.1055 
    139 H139      -44.4504  -27.5229   12.0624 H         1 UNK         0.0806 
    140 H140      -43.6246  -26.5276   10.8743 H         1 UNK         0.0806 
    141 H141      -45.1507  -27.3103   10.4654 H         1 UNK         0.0806 
    142 H142      -45.4618  -24.9387    9.7531 H         1 UNK         0.3061 
    143 H143      -46.6783  -21.5909    9.9038 H         1 UNK         0.0734 
    144 H144      -44.8230  -21.2372    8.3019 H         1 UNK         0.0832 
    145 H145      -44.1885  -21.3846    9.9316 H         1 UNK         0.0832 
    146 H146      -44.0485  -22.7365    8.8171 H         1 UNK         0.0832 
    147 H147      -46.2133  -23.3428    7.6992 H         1 UNK         0.3156 
    148 H148      -49.5158  -24.7618    7.6792 H         1 UNK         0.0589 
    149 H149      -47.9940  -22.8641    5.8202 H         1 UNK         0.0808 
    150 H150      -49.5304  -22.5009    6.5936 H         1 UNK         0.0808 
    151 H151      -49.4330  -23.7982    5.4171 H         1 UNK         0.0808 
    152 H152      -47.7737  -25.5262    5.8386 H         1 UNK         0.3098 
    153 H153      -46.1739  -27.2282    5.8430 H         1 UNK         0.0720 
    154 H154      -44.7543  -27.8097    7.8191 H         1 UNK         0.0791 
    155 H155      -45.2623  -29.2533    6.9568 H         1 UNK         0.0791 
    156 H156      -46.0433  -28.8110    8.4735 H         1 UNK         0.0791 
    157 H157      -48.1052  -29.0334    7.1991 H         1 UNK         0.3028 
@<TRIPOS>BOND
     1    1    2 1    
     2    1   82 1    
     3    1   83 1    
     4    1   84 1    
     5    2    3 2    
     6    2    4 am   BACKBONE|DICT|INTERRES
     7    4    5 1    
     8    4   85 1    
     9    5    6 1    
    10    5   80 1    
    11    5   86 1    
    12    6    7 1    
    13    6   87 1    
    14    6   88 1    
    15    7    8 1    
    16    8    9 1    
    17    8   89 1    
    18    8   90 1    
    19    9   10 ar   
    20    9   14 ar   
    21   10   11 ar   
    22   10   91 1    
    23   11   12 ar   
    24   11   58 1    
    25   12   13 ar   
    26   12   92 1    
    27   13   14 ar   
    28   13   15 1    
    29   14   93 1    
    30   15   16 1    
    31   15   94 1    
    32   15   95 1    
    33   16   17 1    
    34   17   18 1    
    35   17   96 1    
    36   17   97 1    
    37   18   19 1    
    38   18   22 1    
    39   18   98 1    
    40   19   20 am   BACKBONE|DICT|INTERRES
    41   19   21 2    
    42   20   99 1    
    43   20  100 1    
    44   22   23 am   BACKBONE|DICT|INTERRES
    45   22  101 1    
    46   23   24 2    
    47   23   25 1    
    48   25   26 1    
    49   25   27 1    
    50   25  102 1    
    51   26  103 1    
    52   26  104 1    
    53   26  105 1    
    54   27   28 am   BACKBONE|DICT|INTERRES
    55   27  106 1    
    56   28   29 2    
    57   28   30 1    
    58   30   31 1    
    59   30   32 1    
    60   30  107 1    
    61   31  108 1    
    62   31  109 1    
    63   31  110 1    
    64   32   33 am   BACKBONE|DICT|INTERRES
    65   32  111 1    
    66   33   34 2    
    67   33   35 1    
    68   35   36 1    
    69   35   37 1    
    70   35  112 1    
    71   36  113 1    
    72   36  114 1    
    73   36  115 1    
    74   37   38 am   BACKBONE|DICT|INTERRES
    75   37  116 1    
    76   38   39 2    
    77   38   40 1    
    78   40   41 1    
    79   40   42 1    
    80   40  117 1    
    81   41  118 1    
    82   41  119 1    
    83   41  120 1    
    84   42   43 am   BACKBONE|DICT|INTERRES
    85   42  121 1    
    86   43   44 2    
    87   43   45 1    
    88   45   46 1    
    89   45   47 1    
    90   45  122 1    
    91   46  123 1    
    92   46  124 1    
    93   46  125 1    
    94   47   48 am   BACKBONE|DICT|INTERRES
    95   47  126 1    
    96   48   49 2    
    97   48   50 1    
    98   50   51 1    
    99   50   52 1    
   100   50  127 1    
   101   51  128 1    
   102   51  129 1    
   103   51  130 1    
   104   52   53 am   BACKBONE|DICT|INTERRES
   105   52  131 1    
   106   53   54 2    
   107   53   55 1    
   108   55   56 1    
   109   55   59 1    
   110   55  132 1    
   111   56   57 1    
   112   56  133 1    
   113   56  134 1    
   114   57   58 1    
   115   58  135 1    
   116   58  136 1    
   117   59   60 am   BACKBONE|DICT|INTERRES
   118   59  137 1    
   119   60   61 2    
   120   60   62 1    
   121   62   63 1    
   122   62   64 1    
   123   62  138 1    
   124   63  139 1    
   125   63  140 1    
   126   63  141 1    
   127   64   65 am   BACKBONE|DICT|INTERRES
   128   64  142 1    
   129   65   66 2    
   130   65   67 1    
   131   67   68 1    
   132   67   69 1    
   133   67  143 1    
   134   68  144 1    
   135   68  145 1    
   136   68  146 1    
   137   69   70 am   BACKBONE|DICT|INTERRES
   138   69  147 1    
   139   70   71 2    
   140   70   72 1    
   141   72   73 1    
   142   72   74 1    
   143   72  148 1    
   144   73  149 1    
   145   73  150 1    
   146   73  151 1    
   147   74   75 am   BACKBONE|DICT|INTERRES
   148   74  152 1    
   149   75   76 2    
   150   75   77 1    
   151   77   78 1    
   152   77   79 1    
   153   77  153 1    
   154   78  154 1    
   155   78  155 1    
   156   78  156 1    
   157   79   80 am   BACKBONE|DICT|INTERRES
   158   79  157 1    
   159   80   81 2    
@<TRIPOS>SUBSTRUCTURE
     1 UNK         1 GROUP             0       ****    0 ROOT    
