@<TRIPOS>MOLECULE
3R207
157   159    1
SMALL
USER_CHARGES


@<TRIPOS>ATOM
      1 CA        -51.2760  -31.8587    5.0599 C.3       0 UNK        -0.1975 
      2 C         -50.6008  -30.6775    4.3784 C.2       0 UNK         0.4852 
      3 O         -49.5519  -30.8464    3.7564 O.2       0 UNK        -0.5216 
      4 N         -51.1929  -29.4806    4.4972 N.am      1 UNK        -0.4461 
      5 CA        -50.6926  -28.2239    3.9231 C.3       1 UNK         0.0864 
      6 C6        -51.8174  -27.1548    3.8375 C.3       14 UNK        -0.0898 
      7 S7        -52.2362  -26.3069    5.4026 S.3       14 UNK        -0.2598 
      8 C8        -53.4513  -27.4224    6.1732 C.3       14 UNK         0.0286 
      9 C9        -53.0529  -27.6845    7.6163 C.ar      14 UNK        -0.0844 
     10 C10       -53.4565  -26.8022    8.6210 C.ar      14 UNK        -0.0881 
     11 C11       -53.0140  -26.9717    9.9354 C.ar      14 UNK        -0.0643 
     12 C12       -52.1668  -28.0417   10.2432 C.ar      14 UNK        -0.0930 
     13 C13       -51.7970  -28.9624    9.2555 C.ar      14 UNK        -0.0827 
     14 C14       -52.2430  -28.7754    7.9443 C.ar      14 UNK        -0.1249 
     15 C15       -50.8925  -30.1457    9.5825 C.3       14 UNK         0.0141 
     16 S16       -51.4738  -31.1497   10.9864 S.3       14 UNK        -0.2313 
     17 C17       -53.1456  -31.6668   10.4549 C.3       14 UNK        -0.0915 
     18 CA        -54.2689  -30.7826   11.0634 C.3       13 UNK         0.0968 
     19 C         -55.6751  -31.3054   10.6765 C.2       13 UNK         0.5732 
     20 N         -56.1425  -30.9896    9.4764 N.am      13 UNK        -0.7310 
     21 O         -56.3312  -32.0199   11.4332 O.2       13 UNK        -0.5035 
     22 N         -54.1100  -30.6413   12.5165 N.am      13 UNK        -0.4233 
     23 C         -54.3827  -29.5316   13.2073 C.2       13 UNK         0.4989 
     24 O         -54.8917  -28.5224   12.7147 O.2       13 UNK        -0.4996 
     25 CA        -53.9625  -29.5561   14.6883 C.3       12 UNK         0.0216 
     26 CB        -52.4388  -29.7429   14.8258 C.3       12 UNK        -0.1964 
     27 N         -54.3468  -28.3220   15.3750 N.am      12 UNK        -0.4276 
     28 C         -55.5634  -28.0862   15.8871 C.2       12 UNK         0.5020 
     29 O         -56.4719  -28.9193   15.8900 O.2       12 UNK        -0.5489 
     30 CA        -55.8218  -26.7105   16.5337 C.3       11 UNK         0.0294 
     31 CB        -55.8969  -26.8427   18.0643 C.3       11 UNK        -0.2019 
     32 N         -54.8119  -25.7055   16.1973 N.am      11 UNK        -0.4493 
     33 C         -54.7317  -25.0576   15.0270 C.2       11 UNK         0.4932 
     34 O         -55.5597  -25.1731   14.1240 O.2       11 UNK        -0.5029 
     35 CA        -53.5228  -24.1238   14.8266 C.3       10 UNK         0.0280 
     36 CB        -53.9408  -22.6551   15.0023 C.3       10 UNK        -0.1976 
     37 N         -52.3794  -24.4091   15.7054 N.am      10 UNK        -0.4242 
     38 C         -51.6560  -25.5360   15.6741 C.2       10 UNK         0.5072 
     39 O         -51.9006  -26.4787   14.9205 O.2       10 UNK        -0.5224 
     40 CA        -50.4934  -25.6310   16.6696 C.3       9 UNK         0.0343 
     41 CB        -50.2592  -27.0771   17.1478 C.3       9 UNK        -0.2003 
     42 N         -49.2738  -25.1184   16.0499 N.am      9 UNK        -0.4272 
     43 C         -48.3049  -24.4573   16.6972 C.2       9 UNK         0.4988 
     44 O         -48.3561  -24.1685   17.8937 O.2       9 UNK        -0.5108 
     45 CA        -47.0600  -24.0529   15.8868 C.3       8 UNK         0.0248 
     46 CB        -46.1169  -25.2516   15.6908 C.3       8 UNK        -0.2001 
     47 N         -47.3931  -23.4655   14.5884 N.am      8 UNK        -0.4140 
     48 C         -47.8972  -22.2340   14.4219 C.2       8 UNK         0.5028 
     49 O         -48.0770  -21.4358   15.3429 O.2       8 UNK        -0.5428 
     50 CA        -48.2774  -21.8209   12.9881 C.3       7 UNK         0.0264 
     51 CB        -47.0712  -21.2132   12.2546 C.3       7 UNK        -0.1988 
     52 N         -48.8259  -22.9303   12.2042 N.am      7 UNK        -0.4454 
     53 C         -49.9879  -23.5401   12.4778 C.2       7 UNK         0.5027 
     54 O         -50.7500  -23.1564   13.3625 O.2       7 UNK        -0.5083 
     55 CA        -50.3390  -24.8063   11.6661 C.3       6 UNK         0.0844 
     56 C56       -51.1208  -24.4736   10.3733 C.3       14 UNK        -0.0967 
     57 S57       -52.9105  -24.2747   10.6701 S.3       14 UNK        -0.2604 
     58 C58       -53.4409  -25.9886   11.0177 C.3       14 UNK         0.0134 
     59 N         -49.1691  -25.6414   11.3874 N.am      6 UNK        -0.4116 
     60 C         -48.4389  -26.2614   12.3237 C.2       5 UNK         0.5034 
     61 O         -48.7017  -26.2425   13.5242 O.2       5 UNK        -0.5045 
     62 CA        -47.1613  -26.9664   11.8477 C.3       5 UNK         0.0224 
     63 CB        -47.4691  -28.3839   11.3424 C.3       5 UNK        -0.1978 
     64 N         -46.4819  -26.1930   10.8054 N.am      5 UNK        -0.4737 
     65 C         -45.8331  -25.0428   11.0379 C.2       4 UNK         0.5027 
     66 O         -45.6817  -24.5641   12.1617 O.2       4 UNK        -0.5211 
     67 CA        -45.3022  -24.2798    9.8112 C.3       4 UNK         0.0297 
     68 CB        -43.9176  -24.8086    9.4059 C.3       4 UNK        -0.1993 
     69 N         -46.2092  -24.3426    8.6605 N.am      4 UNK        -0.4486 
     70 C         -47.4308  -23.7899    8.6255 C.2       3 UNK         0.4961 
     71 O         -47.9026  -23.1242    9.5446 O.2       3 UNK        -0.5105 
     72 CA        -48.2959  -24.0627    7.3812 C.3       3 UNK         0.0299 
     73 CB        -48.0705  -22.9767    6.3185 C.3       3 UNK        -0.1972 
     74 N         -48.0806  -25.3853    6.7851 N.am      3 UNK        -0.4305 
     75 C         -48.2502  -26.5500    7.4239 C.2       2 UNK         0.5006 
     76 O         -48.6189  -26.6390    8.5971 O.2       2 UNK        -0.5106 
     77 CA        -47.9396  -27.8160    6.6129 C.3       2 UNK         0.0296 
     78 CB        -47.5412  -29.0017    7.5093 C.3       2 UNK        -0.2002 
     79 N         -49.0981  -28.1934    5.8102 N.am      2 UNK        -0.4032 
     80 C         -49.4032  -27.6972    4.6025 C.2       1 UNK         0.5000 
     81 O         -48.7106  -26.8593    4.0200 O.2       1 UNK        -0.5238 
     82 H82       -51.4890  -32.6399    4.3306 H         1 UNK         0.0889 
     83 H83       -52.2149  -31.5765    5.5359 H         1 UNK         0.0889 
     84 H84       -50.6202  -32.2759    5.8236 H         1 UNK         0.0889 
     85 H85       -52.0691  -29.4114    4.9911 H         1 UNK         0.3028 
     86 H86       -50.4041  -28.4528    2.8946 H         1 UNK         0.0864 
     87 H87       -52.7227  -27.5854    3.4064 H         1 UNK         0.0720 
     88 H88       -51.5113  -26.3782    3.1343 H         1 UNK         0.0720 
     89 H89       -53.5330  -28.3598    5.6236 H         1 UNK         0.0814 
     90 H90       -54.4386  -26.9598    6.1304 H         1 UNK         0.0814 
     91 H91       -54.0856  -25.9576    8.3750 H         1 UNK         0.1469 
     92 H92       -51.8139  -28.1738   11.2569 H         1 UNK         0.1381 
     93 H93       -51.9400  -29.4698    7.1760 H         1 UNK         0.1206 
     94 H94       -49.9017  -29.7669    9.8268 H         1 UNK         0.0813 
     95 H95       -50.7700  -30.7973    8.7160 H         1 UNK         0.0813 
     96 H96       -53.1945  -31.6547    9.3646 H         1 UNK         0.0638 
     97 H97       -53.2777  -32.7082   10.7541 H         1 UNK         0.0638 
     98 H98       -54.1808  -29.7923   10.6165 H         1 UNK         0.0568 
     99 H99       -57.0497  -31.3302    9.1992 H         1 UNK         0.3450 
    100 H100      -55.6103  -30.4095    8.8470 H         1 UNK         0.3450 
    101 H101      -53.7221  -31.4408   12.9932 H         1 UNK         0.2987 
    102 H102      -54.4594  -30.4011   15.1698 H         1 UNK         0.0766 
    103 H103      -52.1164  -29.6501   15.8631 H         1 UNK         0.0798 
    104 H104      -51.8870  -29.0081   14.2378 H         1 UNK         0.0798 
    105 H105      -52.1259  -30.7289   14.4811 H         1 UNK         0.0798 
    106 H106      -53.6720  -27.5657   15.3359 H         1 UNK         0.3198 
    107 H107      -56.7918  -26.3607   16.1731 H         1 UNK         0.0843 
    108 H108      -54.9543  -27.1924   18.4872 H         1 UNK         0.0831 
    109 H109      -56.6685  -27.5565   18.3567 H         1 UNK         0.0831 
    110 H110      -56.1458  -25.8911   18.5345 H         1 UNK         0.0831 
    111 H111      -54.0963  -25.5297   16.8871 H         1 UNK         0.3133 
    112 H112      -53.1871  -24.2597   13.7968 H         1 UNK         0.0566 
    113 H113      -53.1196  -21.9802   14.7594 H         1 UNK         0.0814 
    114 H114      -54.7693  -22.4033   14.3386 H         1 UNK         0.0814 
    115 H115      -54.2632  -22.4446   16.0227 H         1 UNK         0.0814 
    116 H116      -52.0972  -23.6696   16.3327 H         1 UNK         0.3091 
    117 H117      -50.7530  -25.0242   17.5398 H         1 UNK         0.0702 
    118 H118      -51.1701  -27.5024   17.5711 H         1 UNK         0.0785 
    119 H119      -49.4908  -27.1194   17.9197 H         1 UNK         0.0785 
    120 H120      -49.9453  -27.7252   16.3281 H         1 UNK         0.0785 
    121 H121      -49.1432  -25.3606   15.0680 H         1 UNK         0.2998 
    122 H122      -46.5196  -23.3005   16.4655 H         1 UNK         0.0697 
    123 H123      -46.5907  -26.0574   15.1304 H         1 UNK         0.0825 
    124 H124      -45.8080  -25.6637   16.6523 H         1 UNK         0.0825 
    125 H125      -45.2123  -24.9611   15.1560 H         1 UNK         0.0825 
    126 H126      -47.2335  -24.0384   13.7689 H         1 UNK         0.3029 
    127 H127      -49.0507  -21.0530   13.0621 H         1 UNK         0.0897 
    128 H128      -47.3473  -20.8632   11.2596 H         1 UNK         0.0792 
    129 H129      -46.2603  -21.9329   12.1425 H         1 UNK         0.0792 
    130 H130      -46.6739  -20.3571   12.8014 H         1 UNK         0.0792 
    131 H131      -48.3024  -23.2179   11.3804 H         1 UNK         0.3086 
    132 H132      -50.9750  -25.4147   12.3114 H         1 UNK         0.0583 
    133 H133      -50.7370  -23.5686    9.8980 H         1 UNK         0.1020 
    134 H134      -50.9865  -25.2589    9.6275 H         1 UNK         0.1020 
    135 H135      -53.0633  -26.2962   11.9942 H         1 UNK         0.0694 
    136 H136      -54.5282  -26.0083   11.1029 H         1 UNK         0.0694 
    137 H137      -48.9024  -25.7564   10.4150 H         1 UNK         0.2989 
    138 H138      -46.4903  -27.0511   12.7057 H         1 UNK         0.1055 
    139 H139      -48.1454  -28.3694   10.4894 H         1 UNK         0.0806 
    140 H140      -47.9447  -28.9801   12.1225 H         1 UNK         0.0806 
    141 H141      -46.5604  -28.9061   11.0428 H         1 UNK         0.0806 
    142 H142      -46.6246  -26.4897    9.8500 H         1 UNK         0.3061 
    143 H143      -45.1962  -23.2308   10.0967 H         1 UNK         0.0734 
    144 H144      -43.4910  -24.2226    8.5916 H         1 UNK         0.0832 
    145 H145      -43.2199  -24.7516   10.2429 H         1 UNK         0.0832 
    146 H146      -43.9576  -25.8508    9.0867 H         1 UNK         0.0832 
    147 H147      -45.8973  -24.8662    7.8557 H         1 UNK         0.3156 
    148 H148      -49.3406  -24.0177    7.6957 H         1 UNK         0.0589 
    149 H149      -47.0498  -22.9910    5.9344 H         1 UNK         0.0808 
    150 H150      -48.7497  -23.1005    5.4746 H         1 UNK         0.0808 
    151 H151      -48.2495  -21.9832    6.7326 H         1 UNK         0.0808 
    152 H152      -47.8272  -25.4115    5.8059 H         1 UNK         0.3098 
    153 H153      -47.0940  -27.6028    5.9552 H         1 UNK         0.0720 
    154 H154      -46.6941  -28.7444    8.1465 H         1 UNK         0.0791 
    155 H155      -47.2471  -29.8655    6.9128 H         1 UNK         0.0791 
    156 H156      -48.3582  -29.3099    8.1596 H         1 UNK         0.0791 
    157 H157      -49.7470  -28.8393    6.2320 H         1 UNK         0.3028 
@<TRIPOS>BOND
     1    1    2 1    
     2    1   82 1    
     3    1   83 1    
     4    1   84 1    
     5    2    3 2    
     6    2    4 am   BACKBONE|DICT|INTERRES
     7    4    5 1    
     8    4   85 1    
     9    5    6 1    
    10    5   80 1    
    11    5   86 1    
    12    6    7 1    
    13    6   87 1    
    14    6   88 1    
    15    7    8 1    
    16    8    9 1    
    17    8   89 1    
    18    8   90 1    
    19    9   10 ar   
    20    9   14 ar   
    21   10   11 ar   
    22   10   91 1    
    23   11   12 ar   
    24   11   58 1    
    25   12   13 ar   
    26   12   92 1    
    27   13   14 ar   
    28   13   15 1    
    29   14   93 1    
    30   15   16 1    
    31   15   94 1    
    32   15   95 1    
    33   16   17 1    
    34   17   18 1    
    35   17   96 1    
    36   17   97 1    
    37   18   19 1    
    38   18   22 1    
    39   18   98 1    
    40   19   20 am   BACKBONE|DICT|INTERRES
    41   19   21 2    
    42   20   99 1    
    43   20  100 1    
    44   22   23 am   BACKBONE|DICT|INTERRES
    45   22  101 1    
    46   23   24 2    
    47   23   25 1    
    48   25   26 1    
    49   25   27 1    
    50   25  102 1    
    51   26  103 1    
    52   26  104 1    
    53   26  105 1    
    54   27   28 am   BACKBONE|DICT|INTERRES
    55   27  106 1    
    56   28   29 2    
    57   28   30 1    
    58   30   31 1    
    59   30   32 1    
    60   30  107 1    
    61   31  108 1    
    62   31  109 1    
    63   31  110 1    
    64   32   33 am   BACKBONE|DICT|INTERRES
    65   32  111 1    
    66   33   34 2    
    67   33   35 1    
    68   35   36 1    
    69   35   37 1    
    70   35  112 1    
    71   36  113 1    
    72   36  114 1    
    73   36  115 1    
    74   37   38 am   BACKBONE|DICT|INTERRES
    75   37  116 1    
    76   38   39 2    
    77   38   40 1    
    78   40   41 1    
    79   40   42 1    
    80   40  117 1    
    81   41  118 1    
    82   41  119 1    
    83   41  120 1    
    84   42   43 am   BACKBONE|DICT|INTERRES
    85   42  121 1    
    86   43   44 2    
    87   43   45 1    
    88   45   46 1    
    89   45   47 1    
    90   45  122 1    
    91   46  123 1    
    92   46  124 1    
    93   46  125 1    
    94   47   48 am   BACKBONE|DICT|INTERRES
    95   47  126 1    
    96   48   49 2    
    97   48   50 1    
    98   50   51 1    
    99   50   52 1    
   100   50  127 1    
   101   51  128 1    
   102   51  129 1    
   103   51  130 1    
   104   52   53 am   BACKBONE|DICT|INTERRES
   105   52  131 1    
   106   53   54 2    
   107   53   55 1    
   108   55   56 1    
   109   55   59 1    
   110   55  132 1    
   111   56   57 1    
   112   56  133 1    
   113   56  134 1    
   114   57   58 1    
   115   58  135 1    
   116   58  136 1    
   117   59   60 am   BACKBONE|DICT|INTERRES
   118   59  137 1    
   119   60   61 2    
   120   60   62 1    
   121   62   63 1    
   122   62   64 1    
   123   62  138 1    
   124   63  139 1    
   125   63  140 1    
   126   63  141 1    
   127   64   65 am   BACKBONE|DICT|INTERRES
   128   64  142 1    
   129   65   66 2    
   130   65   67 1    
   131   67   68 1    
   132   67   69 1    
   133   67  143 1    
   134   68  144 1    
   135   68  145 1    
   136   68  146 1    
   137   69   70 am   BACKBONE|DICT|INTERRES
   138   69  147 1    
   139   70   71 2    
   140   70   72 1    
   141   72   73 1    
   142   72   74 1    
   143   72  148 1    
   144   73  149 1    
   145   73  150 1    
   146   73  151 1    
   147   74   75 am   BACKBONE|DICT|INTERRES
   148   74  152 1    
   149   75   76 2    
   150   75   77 1    
   151   77   78 1    
   152   77   79 1    
   153   77  153 1    
   154   78  154 1    
   155   78  155 1    
   156   78  156 1    
   157   79   80 am   BACKBONE|DICT|INTERRES
   158   79  157 1    
   159   80   81 2    
@<TRIPOS>SUBSTRUCTURE
     1 UNK         1 GROUP             0       ****    0 ROOT    
