@<TRIPOS>MOLECULE
3R207
157   159    1
SMALL
USER_CHARGES


@<TRIPOS>ATOM
      1 CA        -47.4446  -31.6324    7.4987 C.3       0 UNK        -0.1975 
      2 C         -47.7676  -30.1814    7.1769 C.2       0 UNK         0.4852 
      3 O         -46.9574  -29.2996    7.4628 O.2       0 UNK        -0.5216 
      4 N         -48.9312  -29.9320    6.5558 N.am      1 UNK        -0.4461 
      5 CA        -49.4949  -28.6069    6.2348 C.3       1 UNK         0.0864 
      6 C6        -49.9948  -27.8460    7.4958 C.3       14 UNK        -0.0898 
      7 S7        -51.2603  -28.7845    8.4186 S.3       14 UNK        -0.2598 
      8 C8        -52.8062  -28.2236    7.6334 C.3       14 UNK         0.0286 
      9 C9        -53.3023  -26.8955    8.1908 C.ar      14 UNK        -0.0844 
     10 C10       -52.9338  -25.6914    7.5839 C.ar      14 UNK        -0.0881 
     11 C11       -53.4198  -24.4743    8.0670 C.ar      14 UNK        -0.0643 
     12 C12       -54.2882  -24.4685    9.1632 C.ar      14 UNK        -0.0930 
     13 C13       -54.6641  -25.6622    9.7876 C.ar      14 UNK        -0.0827 
     14 C14       -54.1689  -26.8735    9.2891 C.ar      14 UNK        -0.1249 
     15 C15       -55.6477  -25.6158   10.9565 C.3       14 UNK         0.0141 
     16 S16       -55.1605  -26.6406   12.3856 S.3       14 UNK        -0.2313 
     17 C17       -56.2314  -28.1005   12.1506 C.3       14 UNK        -0.0915 
     18 CA        -56.2133  -29.0725   13.3588 C.3       13 UNK         0.0968 
     19 C         -57.2672  -30.2024   13.1678 C.2       13 UNK         0.5732 
     20 N         -56.8753  -31.4567   12.9754 N.am      13 UNK        -0.7310 
     21 O         -58.4659  -29.9336   13.2002 O.2       13 UNK        -0.5035 
     22 N         -54.8508  -29.5421   13.6477 N.am      13 UNK        -0.4233 
     23 C         -54.4486  -30.1342   14.7765 C.2       13 UNK         0.4989 
     24 O         -55.1975  -30.3774   15.7230 O.2       13 UNK        -0.4996 
     25 CA        -52.9572  -30.5052   14.8878 C.3       12 UNK         0.0216 
     26 CB        -52.6979  -31.9302   14.3595 C.3       12 UNK        -0.1964 
     27 N         -52.0326  -29.5238   14.2928 N.am      12 UNK        -0.4276 
     28 C         -51.8514  -29.2101   13.0006 C.2       12 UNK         0.5020 
     29 O         -52.4888  -29.7343   12.0862 O.2       12 UNK        -0.5489 
     30 CA        -50.8246  -28.1127   12.6618 C.3       11 UNK         0.0294 
     31 CB        -51.4603  -27.0035   11.8062 C.3       11 UNK        -0.2019 
     32 N         -50.2085  -27.4969   13.8408 N.am      11 UNK        -0.4493 
     33 C         -49.1152  -27.9517   14.4658 C.2       11 UNK         0.4932 
     34 O         -48.5312  -28.9877   14.1487 O.2       11 UNK        -0.5029 
     35 CA        -48.5904  -27.1303   15.6529 C.3       10 UNK         0.0280 
     36 CB        -47.7995  -25.9084   15.1594 C.3       10 UNK        -0.1976 
     37 N         -49.6768  -26.6808   16.5270 N.am      10 UNK        -0.4242 
     38 C         -49.7843  -26.9749   17.8318 C.2       10 UNK         0.5072 
     39 O         -48.9709  -27.6650   18.4484 O.2       10 UNK        -0.5224 
     40 CA        -50.9938  -26.4020   18.6008 C.3       9 UNK         0.0343 
     41 CB        -50.5874  -25.1322   19.3664 C.3       9 UNK        -0.2003 
     42 N         -52.1461  -26.0962   17.7511 N.am      9 UNK        -0.4272 
     43 C         -52.8648  -27.0070   17.0812 C.2       9 UNK         0.4988 
     44 O         -52.7012  -28.2195   17.2032 O.2       9 UNK        -0.5108 
     45 CA        -53.9057  -26.4891   16.0692 C.3       8 UNK         0.0248 
     46 CB        -55.3303  -26.6499   16.6218 C.3       8 UNK        -0.2001 
     47 N         -53.7085  -25.1030   15.6204 N.am      8 UNK        -0.4140 
     48 C         -52.6161  -24.6495   14.9921 C.2       8 UNK         0.5028 
     49 O         -51.5956  -25.3223   14.8210 O.2       8 UNK        -0.5428 
     50 CA        -52.6386  -23.1997   14.5083 C.3       7 UNK         0.0264 
     51 CB        -51.9232  -22.2744   15.5067 C.3       7 UNK        -0.1988 
     52 N         -51.9512  -23.1733   13.2251 N.am      7 UNK        -0.4454 
     53 C         -52.2292  -22.3770   12.1921 C.2       7 UNK         0.5027 
     54 O         -53.0287  -21.4408   12.2589 O.2       7 UNK        -0.5083 
     55 CA        -51.5153  -22.6987   10.8574 C.3       6 UNK         0.0844 
     56 C56       -52.0708  -21.8524    9.6819 C.3       14 UNK        -0.0967 
     57 S57       -51.4970  -22.4652    8.0602 S.3       14 UNK        -0.2604 
     58 C58       -53.0312  -23.1727    7.3786 C.3       14 UNK         0.0134 
     59 N         -50.0553  -22.5780   10.9239 N.am      6 UNK        -0.4116 
     60 C         -49.1929  -23.3397   11.6094 C.2       5 UNK         0.5034 
     61 O         -49.5204  -24.2210   12.4037 O.2       5 UNK        -0.5045 
     62 CA        -47.7060  -23.0859   11.2947 C.3       5 UNK         0.0224 
     63 CB        -46.7537  -24.0226   12.0689 C.3       5 UNK        -0.1978 
     64 N         -47.4440  -23.1494    9.8478 N.am      5 UNK        -0.4737 
     65 C         -47.6617  -24.1956    9.0334 C.2       4 UNK         0.5027 
     66 O         -48.0677  -25.2941    9.4139 O.2       4 UNK        -0.5211 
     67 CA        -47.4064  -23.9914    7.5282 C.3       4 UNK         0.0297 
     68 CB        -46.8975  -22.5850    7.1339 C.3       4 UNK        -0.1993 
     69 N         -46.5375  -25.0470    7.0010 N.am      4 UNK        -0.4486 
     70 C         -45.2581  -25.2892    7.3316 C.2       3 UNK         0.4961 
     71 O         -44.5954  -24.5633    8.0743 O.2       3 UNK        -0.5105 
     72 CA        -44.5888  -26.5555    6.7575 C.3       3 UNK         0.0299 
     73 CB        -44.1547  -27.4990    7.8925 C.3       3 UNK        -0.1972 
     74 N         -45.4464  -27.2937    5.8264 N.am      3 UNK        -0.4305 
     75 C         -45.6122  -26.9766    4.5325 C.2       2 UNK         0.5006 
     76 O         -44.9859  -26.0794    3.9674 O.2       2 UNK        -0.5106 
     77 CA        -46.6660  -27.7652    3.7275 C.3       2 UNK         0.0296 
     78 CB        -45.9867  -28.8469    2.8718 C.3       2 UNK        -0.2002 
     79 N         -47.7113  -28.3882    4.5458 N.am      2 UNK        -0.4032 
     80 C         -48.5644  -27.7377    5.3527 C.2       1 UNK         0.5000 
     81 O         -48.6023  -26.5083    5.4340 O.2       1 UNK        -0.5238 
     82 H82       -46.5201  -31.9293    7.0044 H         1 UNK         0.0889 
     83 H83       -48.2359  -32.3086    7.1758 H         1 UNK         0.0889 
     84 H84       -47.3113  -31.7548    8.5732 H         1 UNK         0.0889 
     85 H85       -49.5382  -30.7108    6.3395 H         1 UNK         0.3028 
     86 H86       -50.3655  -28.7999    5.6066 H         1 UNK         0.0864 
     87 H87       -50.4020  -26.8695    7.2370 H         1 UNK         0.0720 
     88 H88       -49.1615  -27.6455    8.1718 H         1 UNK         0.0720 
     89 H89       -53.5678  -28.9889    7.7909 H         1 UNK         0.0814 
     90 H90       -52.6702  -28.1573    6.5531 H         1 UNK         0.0814 
     91 H91       -52.2786  -25.6975    6.7242 H         1 UNK         0.1469 
     92 H92       -54.6861  -23.5307    9.5236 H         1 UNK         0.1381 
     93 H93       -54.4564  -27.8058    9.7521 H         1 UNK         0.1206 
     94 H94       -56.6354  -25.9083   10.5988 H         1 UNK         0.0813 
     95 H95       -55.7514  -24.5912   11.3166 H         1 UNK         0.0813 
     96 H96       -55.9276  -28.6225   11.2427 H         1 UNK         0.0638 
     97 H97       -57.2476  -27.7423   11.9749 H         1 UNK         0.0638 
     98 H98       -56.5418  -28.5097   14.2344 H         1 UNK         0.0568 
     99 H99       -57.5687  -32.1782   12.8573 H         1 UNK         0.3450 
    100 H100      -55.8952  -31.6858   12.9456 H         1 UNK         0.3450 
    101 H101      -54.1631  -29.4297   12.9074 H         1 UNK         0.2987 
    102 H102      -52.7229  -30.5166   15.9529 H         1 UNK         0.0766 
    103 H103      -53.3090  -32.6585   14.8942 H         1 UNK         0.0798 
    104 H104      -51.6559  -32.2193   14.4964 H         1 UNK         0.0798 
    105 H105      -52.9359  -32.0265   13.2999 H         1 UNK         0.0798 
    106 H106      -51.4908  -28.9963   14.9635 H         1 UNK         0.3198 
    107 H107      -50.0488  -28.5893   12.0588 H         1 UNK         0.0843 
    108 H108      -51.9919  -27.4185   10.9511 H         1 UNK         0.0831 
    109 H109      -50.7021  -26.3315   11.4060 H         1 UNK         0.0831 
    110 H110      -52.1753  -26.4086   12.3732 H         1 UNK         0.0831 
    111 H111      -50.6384  -26.6271   14.1585 H         1 UNK         0.3133 
    112 H112      -47.8993  -27.7729   16.2021 H         1 UNK         0.0566 
    113 H113      -47.3252  -25.3838   15.9887 H         1 UNK         0.0814 
    114 H114      -48.4429  -25.1976   14.6400 H         1 UNK         0.0814 
    115 H115      -47.0104  -26.2044   14.4668 H         1 UNK         0.0814 
    116 H116      -50.4027  -26.1184   16.0900 H         1 UNK         0.3091 
    117 H117      -51.3049  -27.1556   19.3273 H         1 UNK         0.0702 
    118 H118      -51.4064  -24.7596   19.9818 H         1 UNK         0.0785 
    119 H119      -50.2829  -24.3327   18.6895 H         1 UNK         0.0785 
    120 H120      -49.7477  -25.3311   20.0341 H         1 UNK         0.0785 
    121 H121      -52.3500  -25.1205   17.5939 H         1 UNK         0.2998 
    122 H122      -53.8166  -27.1213   15.1837 H         1 UNK         0.0697 
    123 H123      -55.5011  -26.0143   17.4914 H         1 UNK         0.0825 
    124 H124      -55.5154  -27.6808   16.9282 H         1 UNK         0.0825 
    125 H125      -56.0780  -26.4020   15.8679 H         1 UNK         0.0825 
    126 H126      -54.4925  -24.4779   15.7429 H         1 UNK         0.3029 
    127 H127      -53.6748  -22.8792   14.3793 H         1 UNK         0.0897 
    128 H128      -50.8865  -22.5767   15.6628 H         1 UNK         0.0792 
    129 H129      -52.4192  -22.2861   16.4779 H         1 UNK         0.0792 
    130 H130      -51.9204  -21.2421   15.1562 H         1 UNK         0.0792 
    131 H131      -51.2355  -23.8909   13.1061 H         1 UNK         0.3086 
    132 H132      -51.7399  -23.7468   10.6456 H         1 UNK         0.0583 
    133 H133      -53.1610  -21.8323    9.6885 H         1 UNK         0.1020 
    134 H134      -51.7652  -20.8096    9.7861 H         1 UNK         0.1020 
    135 H135      -53.8398  -22.4437    7.4516 H         1 UNK         0.0694 
    136 H136      -52.8862  -23.3516    6.3121 H         1 UNK         0.0694 
    137 H137      -49.6631  -21.8960   10.2927 H         1 UNK         0.2989 
    138 H138      -47.4909  -22.0644   11.6128 H         1 UNK         0.1055 
    139 H139      -46.9625  -25.0738   11.8667 H         1 UNK         0.0806 
    140 H140      -46.8545  -23.8724   13.1441 H         1 UNK         0.0806 
    141 H141      -45.7120  -23.8322   11.8110 H         1 UNK         0.0806 
    142 H142      -47.0932  -22.3001    9.4269 H         1 UNK         0.3061 
    143 H143      -48.3740  -24.1324    7.0433 H         1 UNK         0.0734 
    144 H144      -45.9490  -22.3352    7.6103 H         1 UNK         0.0832 
    145 H145      -46.7507  -22.5138    6.0561 H         1 UNK         0.0832 
    146 H146      -47.6210  -21.8149    7.4043 H         1 UNK         0.0832 
    147 H147      -47.0153  -25.7190    6.4088 H         1 UNK         0.3156 
    148 H148      -43.6891  -26.2351    6.2281 H         1 UNK         0.0589 
    149 H149      -45.0011  -27.8003    8.5109 H         1 UNK         0.0808 
    150 H150      -43.4313  -27.0138    8.5489 H         1 UNK         0.0808 
    151 H151      -43.6837  -28.4018    7.5035 H         1 UNK         0.0808 
    152 H152      -46.0062  -28.0384    6.2343 H         1 UNK         0.3098 
    153 H153      -47.1558  -27.0555    3.0576 H         1 UNK         0.0720 
    154 H154      -45.2220  -28.4116    2.2266 H         1 UNK         0.0791 
    155 H155      -46.7042  -29.3510    2.2240 H         1 UNK         0.0791 
    156 H156      -45.4998  -29.6031    3.4891 H         1 UNK         0.0791 
    157 H157      -47.7434  -29.3975    4.5462 H         1 UNK         0.3028 
@<TRIPOS>BOND
     1    1    2 1    
     2    1   82 1    
     3    1   83 1    
     4    1   84 1    
     5    2    3 2    
     6    2    4 am   BACKBONE|DICT|INTERRES
     7    4    5 1    
     8    4   85 1    
     9    5    6 1    
    10    5   80 1    
    11    5   86 1    
    12    6    7 1    
    13    6   87 1    
    14    6   88 1    
    15    7    8 1    
    16    8    9 1    
    17    8   89 1    
    18    8   90 1    
    19    9   10 ar   
    20    9   14 ar   
    21   10   11 ar   
    22   10   91 1    
    23   11   12 ar   
    24   11   58 1    
    25   12   13 ar   
    26   12   92 1    
    27   13   14 ar   
    28   13   15 1    
    29   14   93 1    
    30   15   16 1    
    31   15   94 1    
    32   15   95 1    
    33   16   17 1    
    34   17   18 1    
    35   17   96 1    
    36   17   97 1    
    37   18   19 1    
    38   18   22 1    
    39   18   98 1    
    40   19   20 am   BACKBONE|DICT|INTERRES
    41   19   21 2    
    42   20   99 1    
    43   20  100 1    
    44   22   23 am   BACKBONE|DICT|INTERRES
    45   22  101 1    
    46   23   24 2    
    47   23   25 1    
    48   25   26 1    
    49   25   27 1    
    50   25  102 1    
    51   26  103 1    
    52   26  104 1    
    53   26  105 1    
    54   27   28 am   BACKBONE|DICT|INTERRES
    55   27  106 1    
    56   28   29 2    
    57   28   30 1    
    58   30   31 1    
    59   30   32 1    
    60   30  107 1    
    61   31  108 1    
    62   31  109 1    
    63   31  110 1    
    64   32   33 am   BACKBONE|DICT|INTERRES
    65   32  111 1    
    66   33   34 2    
    67   33   35 1    
    68   35   36 1    
    69   35   37 1    
    70   35  112 1    
    71   36  113 1    
    72   36  114 1    
    73   36  115 1    
    74   37   38 am   BACKBONE|DICT|INTERRES
    75   37  116 1    
    76   38   39 2    
    77   38   40 1    
    78   40   41 1    
    79   40   42 1    
    80   40  117 1    
    81   41  118 1    
    82   41  119 1    
    83   41  120 1    
    84   42   43 am   BACKBONE|DICT|INTERRES
    85   42  121 1    
    86   43   44 2    
    87   43   45 1    
    88   45   46 1    
    89   45   47 1    
    90   45  122 1    
    91   46  123 1    
    92   46  124 1    
    93   46  125 1    
    94   47   48 am   BACKBONE|DICT|INTERRES
    95   47  126 1    
    96   48   49 2    
    97   48   50 1    
    98   50   51 1    
    99   50   52 1    
   100   50  127 1    
   101   51  128 1    
   102   51  129 1    
   103   51  130 1    
   104   52   53 am   BACKBONE|DICT|INTERRES
   105   52  131 1    
   106   53   54 2    
   107   53   55 1    
   108   55   56 1    
   109   55   59 1    
   110   55  132 1    
   111   56   57 1    
   112   56  133 1    
   113   56  134 1    
   114   57   58 1    
   115   58  135 1    
   116   58  136 1    
   117   59   60 am   BACKBONE|DICT|INTERRES
   118   59  137 1    
   119   60   61 2    
   120   60   62 1    
   121   62   63 1    
   122   62   64 1    
   123   62  138 1    
   124   63  139 1    
   125   63  140 1    
   126   63  141 1    
   127   64   65 am   BACKBONE|DICT|INTERRES
   128   64  142 1    
   129   65   66 2    
   130   65   67 1    
   131   67   68 1    
   132   67   69 1    
   133   67  143 1    
   134   68  144 1    
   135   68  145 1    
   136   68  146 1    
   137   69   70 am   BACKBONE|DICT|INTERRES
   138   69  147 1    
   139   70   71 2    
   140   70   72 1    
   141   72   73 1    
   142   72   74 1    
   143   72  148 1    
   144   73  149 1    
   145   73  150 1    
   146   73  151 1    
   147   74   75 am   BACKBONE|DICT|INTERRES
   148   74  152 1    
   149   75   76 2    
   150   75   77 1    
   151   77   78 1    
   152   77   79 1    
   153   77  153 1    
   154   78  154 1    
   155   78  155 1    
   156   78  156 1    
   157   79   80 am   BACKBONE|DICT|INTERRES
   158   79  157 1    
   159   80   81 2    
@<TRIPOS>SUBSTRUCTURE
     1 UNK         1 GROUP             0       ****    0 ROOT    
