@<TRIPOS>MOLECULE
3R207
157   159    1
SMALL
USER_CHARGES


@<TRIPOS>ATOM
      1 CA        -44.2309  -27.9945   10.3023 C.3       0 UNK        -0.1975 
      2 C         -45.1331  -28.5812    9.2267 C.2       0 UNK         0.4852 
      3 O         -44.7901  -29.6053    8.6346 O.2       0 UNK        -0.5216 
      4 N         -46.2853  -27.9455    8.9798 N.am      1 UNK        -0.4461 
      5 CA        -47.2848  -28.3556    7.9864 C.3       1 UNK         0.0864 
      6 C6        -48.6075  -27.5708    8.1563 C.3       14 UNK        -0.0898 
      7 S7        -49.5688  -28.1731    9.5886 S.3       14 UNK        -0.2598 
      8 C8        -51.1628  -28.5976    8.7988 C.3       14 UNK         0.0286 
      9 C9        -52.1658  -27.4456    8.8174 C.ar      14 UNK        -0.0844 
     10 C10       -51.7992  -26.1582    8.4079 C.ar      14 UNK        -0.0881 
     11 C11       -52.7074  -25.0965    8.4740 C.ar      14 UNK        -0.0643 
     12 C12       -54.0121  -25.3447    8.9100 C.ar      14 UNK        -0.0930 
     13 C13       -54.4104  -26.6329    9.2786 C.ar      14 UNK        -0.0827 
     14 C14       -53.4810  -27.6765    9.2352 C.ar      14 UNK        -0.1249 
     15 C15       -55.8518  -26.8923    9.6971 C.3       14 UNK         0.0141 
     16 S16       -56.0285  -26.9989   11.5053 S.3       14 UNK        -0.2313 
     17 C17       -55.6815  -28.7642   11.8145 C.3       14 UNK        -0.0915 
     18 CA        -56.6802  -29.3983   12.8150 C.3       13 UNK         0.0968 
     19 C         -56.4326  -30.9218   12.9565 C.2       13 UNK         0.5732 
     20 N         -57.1992  -31.7439   12.2529 N.am      13 UNK        -0.7310 
     21 O         -55.5267  -31.3634   13.6604 O.2       13 UNK        -0.5035 
     22 N         -56.6265  -28.7384   14.1249 N.am      13 UNK        -0.4233 
     23 C         -57.6665  -28.6411   14.9618 C.2       13 UNK         0.4989 
     24 O         -58.7885  -29.0858   14.7098 O.2       13 UNK        -0.4996 
     25 CA        -57.4185  -27.8944   16.2871 C.3       12 UNK         0.0216 
     26 CB        -58.5789  -28.0358   17.2965 C.3       12 UNK        -0.1964 
     27 N         -56.1338  -28.2350   16.9058 N.am      12 UNK        -0.4276 
     28 C         -55.7356  -29.4305   17.3715 C.2       12 UNK         0.5020 
     29 O         -56.4525  -30.4320   17.3886 O.2       12 UNK        -0.5489 
     30 CA        -54.2939  -29.5393   17.9099 C.3       11 UNK         0.0294 
     31 CB        -53.5387  -30.6977   17.2331 C.3       11 UNK        -0.2019 
     32 N         -53.5347  -28.3027   17.7089 N.am      11 UNK        -0.4493 
     33 C         -53.4027  -27.3173   18.6081 C.2       11 UNK         0.4932 
     34 O         -53.8340  -27.3799   19.7591 O.2       11 UNK        -0.5029 
     35 CA        -52.6981  -26.0285   18.1403 C.3       10 UNK         0.0280 
     36 CB        -51.2330  -26.0181   18.6035 C.3       10 UNK        -0.1976 
     37 N         -52.7552  -25.8336   16.6870 N.am      10 UNK        -0.4242 
     38 C         -53.8779  -25.5513   16.0049 C.2       10 UNK         0.5072 
     39 O         -54.9706  -25.3724   16.5425 O.2       10 UNK        -0.5224 
     40 CA        -53.7967  -25.5494   14.4666 C.3       9 UNK         0.0343 
     41 CB        -53.5487  -24.1309   13.9338 C.3       9 UNK        -0.2003 
     42 N         -52.7778  -26.4666   13.9468 N.am      9 UNK        -0.4272 
     43 C         -52.8131  -27.7972   14.1264 C.2       9 UNK         0.4988 
     44 O         -53.7521  -28.3680   14.6810 O.2       9 UNK        -0.5108 
     45 CA        -51.6012  -28.6358   13.6765 C.3       8 UNK         0.0248 
     46 CB        -51.9236  -29.4236   12.4001 C.3       8 UNK        -0.2001 
     47 N         -50.3795  -27.8573   13.4665 N.am      8 UNK        -0.4140 
     48 C         -49.7204  -27.1927   14.4259 C.2       8 UNK         0.5028 
     49 O         -50.0689  -27.1722   15.6067 O.2       8 UNK        -0.5428 
     50 CA        -48.5039  -26.3656   13.9819 C.3       7 UNK         0.0264 
     51 CB        -47.2197  -27.2062   14.0606 C.3       7 UNK        -0.1988 
     52 N         -48.6286  -25.8067   12.6325 N.am      7 UNK        -0.4454 
     53 C         -49.5776  -24.9594   12.2114 C.2       7 UNK         0.5027 
     54 O         -50.5128  -24.5921   12.9231 O.2       7 UNK        -0.5083 
     55 CA        -49.4506  -24.4384   10.7607 C.3       6 UNK         0.0844 
     56 C56       -50.6239  -23.5067   10.3585 C.3       14 UNK        -0.0967 
     57 S57       -50.6218  -23.1792    8.5612 S.3       14 UNK        -0.2604 
     58 C58       -52.3102  -23.6777    8.0665 C.3       14 UNK         0.0134 
     59 N         -48.1535  -23.7914   10.5232 N.am      6 UNK        -0.4116 
     60 C         -46.9646  -24.3987   10.4221 C.2       5 UNK         0.5034 
     61 O         -46.8111  -25.6202   10.4934 O.2       5 UNK        -0.5045 
     62 CA        -45.7577  -23.4713   10.2038 C.3       5 UNK         0.0224 
     63 CB        -44.4050  -24.2155   10.2613 C.3       5 UNK        -0.1978 
     64 N         -45.8913  -22.6972    8.9629 N.am      5 UNK        -0.4737 
     65 C         -45.9260  -23.1828    7.7144 C.2       4 UNK         0.5027 
     66 O         -45.8079  -24.3813    7.4330 O.2       4 UNK        -0.5211 
     67 CA        -46.1091  -22.1482    6.5901 C.3       4 UNK         0.0297 
     68 CB        -45.0502  -21.0297    6.6390 C.3       4 UNK        -0.1993 
     69 N         -46.0003  -22.8597    5.3267 N.am      4 UNK        -0.4486 
     70 C         -46.6439  -22.6110    4.1825 C.2       3 UNK         0.4961 
     71 O         -47.3662  -21.6306    3.9996 O.2       3 UNK        -0.5105 
     72 CA        -46.4451  -23.6375    3.0447 C.3       3 UNK         0.0299 
     73 CB        -45.6021  -23.0304    1.9110 C.3       3 UNK        -0.1972 
     74 N         -45.8071  -24.8801    3.5025 N.am      3 UNK        -0.4305 
     75 C         -46.4031  -25.8027    4.2718 C.2       2 UNK         0.5006 
     76 O         -47.6104  -25.7918    4.5226 O.2       2 UNK        -0.5106 
     77 CA        -45.4979  -26.8813    4.8989 C.3       2 UNK         0.0296 
     78 CB        -44.0165  -26.4617    5.0106 C.3       2 UNK        -0.2002 
     79 N         -45.9894  -27.1982    6.2401 N.am      2 UNK        -0.4032 
     80 C         -46.7706  -28.2454    6.5361 C.2       1 UNK         0.5000 
     81 O         -47.0918  -29.1139    5.7212 O.2       1 UNK        -0.5238 
     82 H82       -43.3828  -27.4860    9.8448 H         1 UNK         0.0889 
     83 H83       -43.8487  -28.7856   10.9469 H         1 UNK         0.0889 
     84 H84       -44.7619  -27.2801   10.9308 H         1 UNK         0.0889 
     85 H85       -46.5108  -27.1060    9.5122 H         1 UNK         0.3028 
     86 H86       -47.4913  -29.4153    8.1532 H         1 UNK         0.0864 
     87 H87       -48.4080  -26.5046    8.2791 H         1 UNK         0.0720 
     88 H88       -49.2236  -27.6514    7.2587 H         1 UNK         0.0720 
     89 H89       -51.5726  -29.4581    9.3292 H         1 UNK         0.0814 
     90 H90       -51.0102  -28.9327    7.7724 H         1 UNK         0.0814 
     91 H91       -50.7963  -25.9709    8.0560 H         1 UNK         0.1469 
     92 H92       -54.7262  -24.5335    8.9510 H         1 UNK         0.1381 
     93 H93       -53.7854  -28.6717    9.5273 H         1 UNK         0.1206 
     94 H94       -56.2269  -27.7983    9.2195 H         1 UNK         0.0813 
     95 H95       -56.4935  -26.0853    9.3403 H         1 UNK         0.0813 
     96 H96       -55.7128  -29.3079   10.8693 H         1 UNK         0.0638 
     97 H97       -54.6608  -28.8511   12.1774 H         1 UNK         0.0638 
     98 H98       -57.6806  -29.2578   12.3999 H         1 UNK         0.0568 
     99 H99       -57.0406  -32.7370   12.3209 H         1 UNK         0.3450 
    100 H100      -57.9390  -31.3941   11.6643 H         1 UNK         0.3450 
    101 H101      -55.7028  -28.4461   14.4278 H         1 UNK         0.2987 
    102 H102      -57.3498  -26.8385   16.0213 H         1 UNK         0.0766 
    103 H103      -58.7564  -29.0764   17.5696 H         1 UNK         0.0798 
    104 H104      -58.3789  -27.4779   18.2113 H         1 UNK         0.0798 
    105 H105      -59.5088  -27.6478   16.8790 H         1 UNK         0.0798 
    106 H106      -55.4687  -27.4722   16.9442 H         1 UNK         0.3198 
    107 H107      -54.3641  -29.7594   18.9772 H         1 UNK         0.0843 
    108 H108      -54.0249  -31.6524   17.4375 H         1 UNK         0.0831 
    109 H109      -52.5143  -30.7731   17.5979 H         1 UNK         0.0831 
    110 H110      -53.5035  -30.5808   16.1493 H         1 UNK         0.0831 
    111 H111      -53.1844  -28.1562   16.7700 H         1 UNK         0.3133 
    112 H112      -53.2076  -25.1853   18.6115 H         1 UNK         0.0566 
    113 H113      -50.7258  -25.1010   18.3034 H         1 UNK         0.0814 
    114 H114      -51.1684  -26.0831   19.6905 H         1 UNK         0.0814 
    115 H115      -50.6738  -26.8607   18.1953 H         1 UNK         0.0814 
    116 H116      -51.9000  -26.0138   16.1728 H         1 UNK         0.3091 
    117 H117      -54.7640  -25.8862   14.0883 H         1 UNK         0.0702 
    118 H118      -53.5086  -24.1176   12.8442 H         1 UNK         0.0785 
    119 H119      -52.6134  -23.7156   14.3106 H         1 UNK         0.0785 
    120 H120      -54.3501  -23.4563   14.2379 H         1 UNK         0.0785 
    121 H121      -51.9708  -26.0428   13.5027 H         1 UNK         0.2998 
    122 H122      -51.3961  -29.3538   14.4734 H         1 UNK         0.0697 
    123 H123      -52.2165  -28.7577   11.5892 H         1 UNK         0.0825 
    124 H124      -52.7445  -30.1213   12.5712 H         1 UNK         0.0825 
    125 H125      -51.0693  -30.0115   12.0637 H         1 UNK         0.0825 
    126 H126      -50.0267  -27.8052   12.5210 H         1 UNK         0.3029 
    127 H127      -48.4115  -25.5279   14.6764 H         1 UNK         0.0897 
    128 H128      -46.3375  -26.6048   13.8397 H         1 UNK         0.0792 
    129 H129      -47.0855  -27.6219   15.0604 H         1 UNK         0.0792 
    130 H130      -47.2399  -28.0412   13.3588 H         1 UNK         0.0792 
    131 H131      -47.8909  -26.0319   11.9691 H         1 UNK         0.3086 
    132 H132      -49.5018  -25.3204   10.1230 H         1 UNK         0.0583 
    133 H133      -51.5815  -23.9477   10.6413 H         1 UNK         0.1020 
    134 H134      -50.5671  -22.5572   10.8936 H         1 UNK         0.1020 
    135 H135      -53.0098  -22.9543    8.4883 H         1 UNK         0.0694 
    136 H136      -52.3946  -23.5917    6.9826 H         1 UNK         0.0694 
    137 H137      -48.1819  -22.7866   10.4360 H         1 UNK         0.2989 
    138 H138      -45.7657  -22.7544   11.0267 H         1 UNK         0.1055 
    139 H139      -43.5692  -23.5285   10.1301 H         1 UNK         0.0806 
    140 H140      -44.3256  -24.9875    9.4958 H         1 UNK         0.0806 
    141 H141      -44.2731  -24.7052   11.2269 H         1 UNK         0.0806 
    142 H142      -45.9962  -21.6989    9.0824 H         1 UNK         0.3061 
    143 H143      -47.1095  -21.7202    6.6840 H         1 UNK         0.0734 
    144 H144      -45.1501  -20.4217    7.5384 H         1 UNK         0.0832 
    145 H145      -44.0374  -21.4346    6.6263 H         1 UNK         0.0832 
    146 H146      -45.1490  -20.3552    5.7882 H         1 UNK         0.0832 
    147 H147      -45.5109  -23.7405    5.4148 H         1 UNK         0.3156 
    148 H148      -47.4321  -23.8808    2.6457 H         1 UNK         0.0589 
    149 H149      -44.6012  -22.7607    2.2507 H         1 UNK         0.0808 
    150 H150      -45.4997  -23.7240    1.0762 H         1 UNK         0.0808 
    151 H151      -46.0679  -22.1243    1.5208 H         1 UNK         0.0808 
    152 H152      -44.8168  -24.9708    3.3240 H         1 UNK         0.3098 
    153 H153      -45.5510  -27.7612    4.2547 H         1 UNK         0.0720 
    154 H154      -43.4337  -27.2300    5.5196 H         1 UNK         0.0791 
    155 H155      -43.8950  -25.5351    5.5735 H         1 UNK         0.0791 
    156 H156      -43.5604  -26.3248    4.0296 H         1 UNK         0.0791 
    157 H157      -45.8500  -26.4810    6.9443 H         1 UNK         0.3028 
@<TRIPOS>BOND
     1    1    2 1    
     2    1   82 1    
     3    1   83 1    
     4    1   84 1    
     5    2    3 2    
     6    2    4 am   BACKBONE|DICT|INTERRES
     7    4    5 1    
     8    4   85 1    
     9    5    6 1    
    10    5   80 1    
    11    5   86 1    
    12    6    7 1    
    13    6   87 1    
    14    6   88 1    
    15    7    8 1    
    16    8    9 1    
    17    8   89 1    
    18    8   90 1    
    19    9   10 ar   
    20    9   14 ar   
    21   10   11 ar   
    22   10   91 1    
    23   11   12 ar   
    24   11   58 1    
    25   12   13 ar   
    26   12   92 1    
    27   13   14 ar   
    28   13   15 1    
    29   14   93 1    
    30   15   16 1    
    31   15   94 1    
    32   15   95 1    
    33   16   17 1    
    34   17   18 1    
    35   17   96 1    
    36   17   97 1    
    37   18   19 1    
    38   18   22 1    
    39   18   98 1    
    40   19   20 am   BACKBONE|DICT|INTERRES
    41   19   21 2    
    42   20   99 1    
    43   20  100 1    
    44   22   23 am   BACKBONE|DICT|INTERRES
    45   22  101 1    
    46   23   24 2    
    47   23   25 1    
    48   25   26 1    
    49   25   27 1    
    50   25  102 1    
    51   26  103 1    
    52   26  104 1    
    53   26  105 1    
    54   27   28 am   BACKBONE|DICT|INTERRES
    55   27  106 1    
    56   28   29 2    
    57   28   30 1    
    58   30   31 1    
    59   30   32 1    
    60   30  107 1    
    61   31  108 1    
    62   31  109 1    
    63   31  110 1    
    64   32   33 am   BACKBONE|DICT|INTERRES
    65   32  111 1    
    66   33   34 2    
    67   33   35 1    
    68   35   36 1    
    69   35   37 1    
    70   35  112 1    
    71   36  113 1    
    72   36  114 1    
    73   36  115 1    
    74   37   38 am   BACKBONE|DICT|INTERRES
    75   37  116 1    
    76   38   39 2    
    77   38   40 1    
    78   40   41 1    
    79   40   42 1    
    80   40  117 1    
    81   41  118 1    
    82   41  119 1    
    83   41  120 1    
    84   42   43 am   BACKBONE|DICT|INTERRES
    85   42  121 1    
    86   43   44 2    
    87   43   45 1    
    88   45   46 1    
    89   45   47 1    
    90   45  122 1    
    91   46  123 1    
    92   46  124 1    
    93   46  125 1    
    94   47   48 am   BACKBONE|DICT|INTERRES
    95   47  126 1    
    96   48   49 2    
    97   48   50 1    
    98   50   51 1    
    99   50   52 1    
   100   50  127 1    
   101   51  128 1    
   102   51  129 1    
   103   51  130 1    
   104   52   53 am   BACKBONE|DICT|INTERRES
   105   52  131 1    
   106   53   54 2    
   107   53   55 1    
   108   55   56 1    
   109   55   59 1    
   110   55  132 1    
   111   56   57 1    
   112   56  133 1    
   113   56  134 1    
   114   57   58 1    
   115   58  135 1    
   116   58  136 1    
   117   59   60 am   BACKBONE|DICT|INTERRES
   118   59  137 1    
   119   60   61 2    
   120   60   62 1    
   121   62   63 1    
   122   62   64 1    
   123   62  138 1    
   124   63  139 1    
   125   63  140 1    
   126   63  141 1    
   127   64   65 am   BACKBONE|DICT|INTERRES
   128   64  142 1    
   129   65   66 2    
   130   65   67 1    
   131   67   68 1    
   132   67   69 1    
   133   67  143 1    
   134   68  144 1    
   135   68  145 1    
   136   68  146 1    
   137   69   70 am   BACKBONE|DICT|INTERRES
   138   69  147 1    
   139   70   71 2    
   140   70   72 1    
   141   72   73 1    
   142   72   74 1    
   143   72  148 1    
   144   73  149 1    
   145   73  150 1    
   146   73  151 1    
   147   74   75 am   BACKBONE|DICT|INTERRES
   148   74  152 1    
   149   75   76 2    
   150   75   77 1    
   151   77   78 1    
   152   77   79 1    
   153   77  153 1    
   154   78  154 1    
   155   78  155 1    
   156   78  156 1    
   157   79   80 am   BACKBONE|DICT|INTERRES
   158   79  157 1    
   159   80   81 2    
@<TRIPOS>SUBSTRUCTURE
     1 UNK         1 GROUP             0       ****    0 ROOT    
