@<TRIPOS>MOLECULE
3R207
157   159    1
SMALL
USER_CHARGES


@<TRIPOS>ATOM
      1 CA        -52.4351  -29.6050    6.6177 C.3       0 UNK        -0.1975 
      2 C         -51.5236  -29.1144    5.5032 C.2       0 UNK         0.4852 
      3 O         -51.3132  -29.8273    4.5217 O.2       0 UNK        -0.5216 
      4 N         -50.9824  -27.8985    5.6498 N.am      1 UNK        -0.4461 
      5 CA        -50.1176  -27.2241    4.6718 C.3       1 UNK         0.0864 
      6 C6        -49.9282  -25.7145    4.9839 C.3       14 UNK        -0.0898 
      7 S7        -51.4596  -24.8220    5.4219 S.3       14 UNK        -0.2598 
      8 C8        -51.1399  -24.3969    7.1665 C.3       14 UNK         0.0286 
      9 C9        -51.3942  -25.5748    8.0964 C.ar      14 UNK        -0.0844 
     10 C10       -50.3787  -26.4947    8.3752 C.ar      14 UNK        -0.0881 
     11 C11       -50.6161  -27.5882    9.2149 C.ar      14 UNK        -0.0643 
     12 C12       -51.8701  -27.7291    9.8146 C.ar      14 UNK        -0.0930 
     13 C13       -52.8869  -26.8051    9.5609 C.ar      14 UNK        -0.0827 
     14 C14       -52.6486  -25.7383    8.6903 C.ar      14 UNK        -0.1249 
     15 C15       -54.2467  -26.9675   10.2176 C.3       14 UNK         0.0141 
     16 S16       -54.3738  -25.9427   11.7127 S.3       14 UNK        -0.2313 
     17 C17       -56.0414  -26.3964   12.2965 C.3       14 UNK        -0.0915 
     18 CA        -56.0675  -26.9510   13.7522 C.3       13 UNK         0.0968 
     19 C         -57.5199  -27.2557   14.2287 C.2       13 UNK         0.5732 
     20 N         -57.8083  -28.3963   14.8460 N.am      13 UNK        -0.7310 
     21 O         -58.4061  -26.4198   14.0670 O.2       13 UNK        -0.5035 
     22 N         -55.0983  -28.0286   14.0110 N.am      13 UNK        -0.4233 
     23 C         -55.0111  -29.2025   13.3725 C.2       13 UNK         0.4989 
     24 O         -55.7058  -29.5289   12.4099 O.2       13 UNK        -0.4996 
     25 CA        -53.9997  -30.2095   13.9442 C.3       12 UNK         0.0216 
     26 CB        -52.5619  -29.8055   13.5783 C.3       12 UNK        -0.1964 
     27 N         -54.1099  -30.3714   15.3977 N.am      12 UNK        -0.4276 
     28 C         -55.2027  -30.7616   16.0681 C.2       12 UNK         0.5020 
     29 O         -56.2753  -31.0320   15.5275 O.2       12 UNK        -0.5489 
     30 CA        -55.1063  -30.8352   17.6037 C.3       11 UNK         0.0294 
     31 CB        -54.3990  -32.1257   18.0633 C.3       11 UNK        -0.2019 
     32 N         -54.5239  -29.6341   18.2205 N.am      11 UNK        -0.4493 
     33 C         -53.2697  -29.1742   18.1278 C.2       11 UNK         0.4932 
     34 O         -52.3529  -29.7646   17.5511 O.2       11 UNK        -0.5029 
     35 CA        -53.0087  -27.8000   18.7651 C.3       10 UNK         0.0280 
     36 CB        -52.3781  -27.9650   20.1570 C.3       10 UNK        -0.1976 
     37 N         -52.1415  -26.9590   17.9356 N.am      10 UNK        -0.4242 
     38 C         -52.3874  -26.5992   16.6677 C.2       10 UNK         0.5072 
     39 O         -53.3955  -26.9293   16.0345 O.2       10 UNK        -0.5224 
     40 CA        -51.2958  -25.7519   15.9927 C.3       9 UNK         0.0343 
     41 CB        -50.1787  -26.6523   15.4428 C.3       9 UNK        -0.2003 
     42 N         -51.8368  -24.9253   14.9109 N.am      9 UNK        -0.4272 
     43 C         -52.6159  -23.8499   15.1078 C.2       9 UNK         0.4988 
     44 O         -52.8812  -23.4062   16.2273 O.2       9 UNK        -0.5108 
     45 CA        -53.2166  -23.1599   13.8642 C.3       8 UNK         0.0248 
     46 CB        -53.5083  -21.6603   14.0903 C.3       8 UNK        -0.2001 
     47 N         -52.4432  -23.3690   12.6345 N.am      8 UNK        -0.4140 
     48 C         -51.1944  -22.9567   12.3784 C.2       8 UNK         0.5028 
     49 O         -50.5101  -22.2734   13.1438 O.2       8 UNK        -0.5428 
     50 CA        -50.6000  -23.4149   11.0363 C.3       7 UNK         0.0264 
     51 CB        -50.2865  -22.2125   10.1312 C.3       7 UNK        -0.1988 
     52 N         -49.3938  -24.2222   11.2373 N.am      7 UNK        -0.4454 
     53 C         -49.3926  -25.4125   11.8619 C.2       7 UNK         0.5027 
     54 O         -50.4170  -25.9300   12.3120 O.2       7 UNK        -0.5083 
     55 CA        -48.0489  -26.1471   12.0603 C.3       6 UNK         0.0844 
     56 C56       -48.1165  -27.6467   11.6648 C.3       14 UNK        -0.0967 
     57 S57       -47.9236  -27.9748    9.8777 S.3       14 UNK        -0.2604 
     58 C58       -49.5495  -28.6550    9.4264 C.3       14 UNK         0.0134 
     59 N         -46.9238  -25.4601   11.4207 N.am      6 UNK        -0.4116 
     60 C         -46.0198  -24.6990   12.0478 C.2       5 UNK         0.5034 
     61 O         -46.0227  -24.4809   13.2598 O.2       5 UNK        -0.5045 
     62 CA        -44.9169  -24.0657   11.1782 C.3       5 UNK         0.0224 
     63 CB        -43.6619  -24.9538   11.1786 C.3       5 UNK        -0.1978 
     64 N         -45.3032  -23.7871    9.7891 N.am      5 UNK        -0.4737 
     65 C         -46.3113  -22.9902    9.4075 C.2       4 UNK         0.5027 
     66 O         -47.0821  -22.4526   10.2003 O.2       4 UNK        -0.5211 
     67 CA        -46.4964  -22.7386    7.8995 C.3       4 UNK         0.0297 
     68 CB        -46.0844  -21.3007    7.5441 C.3       4 UNK        -0.1993 
     69 N         -45.7618  -23.6733    7.0388 N.am      4 UNK        -0.4486 
     70 C         -46.1116  -24.9502    6.8417 C.2       3 UNK         0.4961 
     71 O         -47.0811  -25.4728    7.3926 O.2       3 UNK        -0.5105 
     72 CA        -45.2411  -25.7424    5.8459 C.3       3 UNK         0.0299 
     73 CB        -43.7896  -25.9044    6.3475 C.3       3 UNK        -0.1972 
     74 N         -45.8482  -27.0292    5.4793 N.am      3 UNK        -0.4305 
     75 C         -45.9756  -28.1396    6.2221 C.2       2 UNK         0.5006 
     76 O         -45.4058  -28.3297    7.2977 O.2       2 UNK        -0.5106 
     77 CA        -46.9420  -29.2051    5.6635 C.3       2 UNK         0.0296 
     78 CB        -47.0041  -30.4722    6.5377 C.3       2 UNK        -0.2002 
     79 N         -48.2940  -28.6540    5.5327 N.am      2 UNK        -0.4032 
     80 C         -48.7248  -27.8773    4.5277 C.2       1 UNK         0.5000 
     81 O         -48.0343  -27.6129    3.5409 O.2       1 UNK        -0.5238 
     82 H82       -51.9037  -30.3085    7.2580 H         1 UNK         0.0889 
     83 H83       -53.3046  -30.1117    6.1997 H         1 UNK         0.0889 
     84 H84       -52.7940  -28.7814    7.2344 H         1 UNK         0.0889 
     85 H85       -51.2204  -27.3446    6.4636 H         1 UNK         0.3028 
     86 H86       -50.6089  -27.3063    3.6999 H         1 UNK         0.0864 
     87 H87       -49.5010  -25.2126    4.1137 H         1 UNK         0.0720 
     88 H88       -49.1983  -25.5715    5.7809 H         1 UNK         0.0720 
     89 H89       -51.7851  -23.5625    7.4454 H         1 UNK         0.0814 
     90 H90       -50.1171  -24.0347    7.2823 H         1 UNK         0.0814 
     91 H91       -49.4037  -26.3748    7.9251 H         1 UNK         0.1469 
     92 H92       -52.0607  -28.5649   10.4718 H         1 UNK         0.1381 
     93 H93       -53.4382  -25.0281    8.4856 H         1 UNK         0.1206 
     94 H94       -54.4193  -28.0131   10.4763 H         1 UNK         0.0813 
     95 H95       -55.0344  -26.6873    9.5165 H         1 UNK         0.0813 
     96 H96       -56.6569  -25.4979   12.2269 H         1 UNK         0.0638 
     97 H97       -56.4897  -27.1144   11.6083 H         1 UNK         0.0638 
     98 H98       -55.7376  -26.1388   14.4009 H         1 UNK         0.0568 
     99 H99       -58.7539  -28.5574   15.1534 H         1 UNK         0.3450 
    100 H100      -57.1133  -29.1220   14.9629 H         1 UNK         0.3450 
    101 H101      -54.4655  -27.8424   14.7861 H         1 UNK         0.2987 
    102 H102      -54.2077  -31.1816   13.4925 H         1 UNK         0.0766 
    103 H103      -52.4440  -29.7255   12.4977 H         1 UNK         0.0798 
    104 H104      -51.8390  -30.5423   13.9289 H         1 UNK         0.0798 
    105 H105      -52.2924  -28.8400   14.0078 H         1 UNK         0.0798 
    106 H106      -53.2888  -30.1492   15.9561 H         1 UNK         0.3198 
    107 H107      -56.1317  -30.8829   17.9750 H         1 UNK         0.0843 
    108 H108      -53.3707  -32.1842   17.7060 H         1 UNK         0.0831 
    109 H109      -54.9199  -33.0065   17.6856 H         1 UNK         0.0831 
    110 H110      -54.3809  -32.2021   19.1504 H         1 UNK         0.0831 
    111 H111      -55.1922  -29.0486   18.7038 H         1 UNK         0.3133 
    112 H112      -53.9600  -27.2749   18.8742 H         1 UNK         0.0566 
    113 H113      -52.2371  -27.0018   20.6479 H         1 UNK         0.0814 
    114 H114      -53.0155  -28.5668   20.8063 H         1 UNK         0.0814 
    115 H115      -51.4081  -28.4615   20.1035 H         1 UNK         0.0814 
    116 H116      -51.2701  -26.6692   18.3546 H         1 UNK         0.3091 
    117 H117      -50.8624  -25.0873   16.7432 H         1 UNK         0.0702 
    118 H118      -49.3595  -26.0566   15.0418 H         1 UNK         0.0785 
    119 H119      -50.5406  -27.3066   14.6493 H         1 UNK         0.0785 
    120 H120      -49.7613  -27.2890   16.2240 H         1 UNK         0.0785 
    121 H121      -51.6594  -25.2432   13.9645 H         1 UNK         0.2998 
    122 H122      -54.1763  -23.6505   13.6975 H         1 UNK         0.0697 
    123 H123      -52.6051  -21.1057   14.3461 H         1 UNK         0.0825 
    124 H124      -54.2170  -21.5178   14.9070 H         1 UNK         0.0825 
    125 H125      -53.9445  -21.2021   13.2028 H         1 UNK         0.0825 
    126 H126      -52.8878  -23.9756   11.9563 H         1 UNK         0.3029 
    127 H127      -51.3291  -24.0431   10.5222 H         1 UNK         0.0897 
    128 H128      -49.8401  -22.5266    9.1886 H         1 UNK         0.0792 
    129 H129      -49.5956  -21.5178   10.6107 H         1 UNK         0.0792 
    130 H130      -51.1947  -21.6571    9.8946 H         1 UNK         0.0792 
    131 H131      -48.5151  -23.8029   10.9546 H         1 UNK         0.3086 
    132 H132      -47.8946  -26.1326   13.1405 H         1 UNK         0.0583 
    133 H133      -47.3046  -28.1742   12.1673 H         1 UNK         0.1020 
    134 H134      -49.0284  -28.1151   12.0405 H         1 UNK         0.1020 
    135 H135      -49.4420  -29.2150    8.4976 H         1 UNK         0.0694 
    136 H136      -49.8586  -29.3798   10.1811 H         1 UNK         0.0694 
    137 H137      -46.8411  -25.5932   10.4215 H         1 UNK         0.2989 
    138 H138      -44.6609  -23.1097   11.6405 H         1 UNK         0.1055 
    139 H139      -42.8309  -24.4697   10.6653 H         1 UNK         0.0806 
    140 H140      -43.8463  -25.9128   10.6921 H         1 UNK         0.0806 
    141 H141      -43.3314  -25.1636   12.1971 H         1 UNK         0.0806 
    142 H142      -44.7280  -24.1939    9.0662 H         1 UNK         0.3061 
    143 H143      -47.5626  -22.8462    7.6873 H         1 UNK         0.0734 
    144 H144      -46.2874  -21.0755    6.4970 H         1 UNK         0.0832 
    145 H145      -46.6407  -20.5765    8.1413 H         1 UNK         0.0832 
    146 H146      -45.0235  -21.1265    7.7281 H         1 UNK         0.0832 
    147 H147      -44.9597  -23.3037    6.5479 H         1 UNK         0.3156 
    148 H148      -45.2124  -25.1630    4.9219 H         1 UNK         0.0589 
    149 H149      -43.2077  -26.5394    5.6795 H         1 UNK         0.0808 
    150 H150      -43.2796  -24.9421    6.3979 H         1 UNK         0.0808 
    151 H151      -43.7471  -26.3412    7.3458 H         1 UNK         0.0808 
    152 H152      -46.3963  -27.0116    4.6249 H         1 UNK         0.3098 
    153 H153      -46.5762  -29.4982    4.6771 H         1 UNK         0.0720 
    154 H154      -47.6797  -31.2151    6.1133 H         1 UNK         0.0791 
    155 H155      -47.3415  -30.2498    7.5508 H         1 UNK         0.0791 
    156 H156      -46.0209  -30.9376    6.6178 H         1 UNK         0.0791 
    157 H157      -48.9106  -28.7847    6.3198 H         1 UNK         0.3028 
@<TRIPOS>BOND
     1    1    2 1    
     2    1   82 1    
     3    1   83 1    
     4    1   84 1    
     5    2    3 2    
     6    2    4 am   BACKBONE|DICT|INTERRES
     7    4    5 1    
     8    4   85 1    
     9    5    6 1    
    10    5   80 1    
    11    5   86 1    
    12    6    7 1    
    13    6   87 1    
    14    6   88 1    
    15    7    8 1    
    16    8    9 1    
    17    8   89 1    
    18    8   90 1    
    19    9   10 ar   
    20    9   14 ar   
    21   10   11 ar   
    22   10   91 1    
    23   11   12 ar   
    24   11   58 1    
    25   12   13 ar   
    26   12   92 1    
    27   13   14 ar   
    28   13   15 1    
    29   14   93 1    
    30   15   16 1    
    31   15   94 1    
    32   15   95 1    
    33   16   17 1    
    34   17   18 1    
    35   17   96 1    
    36   17   97 1    
    37   18   19 1    
    38   18   22 1    
    39   18   98 1    
    40   19   20 am   BACKBONE|DICT|INTERRES
    41   19   21 2    
    42   20   99 1    
    43   20  100 1    
    44   22   23 am   BACKBONE|DICT|INTERRES
    45   22  101 1    
    46   23   24 2    
    47   23   25 1    
    48   25   26 1    
    49   25   27 1    
    50   25  102 1    
    51   26  103 1    
    52   26  104 1    
    53   26  105 1    
    54   27   28 am   BACKBONE|DICT|INTERRES
    55   27  106 1    
    56   28   29 2    
    57   28   30 1    
    58   30   31 1    
    59   30   32 1    
    60   30  107 1    
    61   31  108 1    
    62   31  109 1    
    63   31  110 1    
    64   32   33 am   BACKBONE|DICT|INTERRES
    65   32  111 1    
    66   33   34 2    
    67   33   35 1    
    68   35   36 1    
    69   35   37 1    
    70   35  112 1    
    71   36  113 1    
    72   36  114 1    
    73   36  115 1    
    74   37   38 am   BACKBONE|DICT|INTERRES
    75   37  116 1    
    76   38   39 2    
    77   38   40 1    
    78   40   41 1    
    79   40   42 1    
    80   40  117 1    
    81   41  118 1    
    82   41  119 1    
    83   41  120 1    
    84   42   43 am   BACKBONE|DICT|INTERRES
    85   42  121 1    
    86   43   44 2    
    87   43   45 1    
    88   45   46 1    
    89   45   47 1    
    90   45  122 1    
    91   46  123 1    
    92   46  124 1    
    93   46  125 1    
    94   47   48 am   BACKBONE|DICT|INTERRES
    95   47  126 1    
    96   48   49 2    
    97   48   50 1    
    98   50   51 1    
    99   50   52 1    
   100   50  127 1    
   101   51  128 1    
   102   51  129 1    
   103   51  130 1    
   104   52   53 am   BACKBONE|DICT|INTERRES
   105   52  131 1    
   106   53   54 2    
   107   53   55 1    
   108   55   56 1    
   109   55   59 1    
   110   55  132 1    
   111   56   57 1    
   112   56  133 1    
   113   56  134 1    
   114   57   58 1    
   115   58  135 1    
   116   58  136 1    
   117   59   60 am   BACKBONE|DICT|INTERRES
   118   59  137 1    
   119   60   61 2    
   120   60   62 1    
   121   62   63 1    
   122   62   64 1    
   123   62  138 1    
   124   63  139 1    
   125   63  140 1    
   126   63  141 1    
   127   64   65 am   BACKBONE|DICT|INTERRES
   128   64  142 1    
   129   65   66 2    
   130   65   67 1    
   131   67   68 1    
   132   67   69 1    
   133   67  143 1    
   134   68  144 1    
   135   68  145 1    
   136   68  146 1    
   137   69   70 am   BACKBONE|DICT|INTERRES
   138   69  147 1    
   139   70   71 2    
   140   70   72 1    
   141   72   73 1    
   142   72   74 1    
   143   72  148 1    
   144   73  149 1    
   145   73  150 1    
   146   73  151 1    
   147   74   75 am   BACKBONE|DICT|INTERRES
   148   74  152 1    
   149   75   76 2    
   150   75   77 1    
   151   77   78 1    
   152   77   79 1    
   153   77  153 1    
   154   78  154 1    
   155   78  155 1    
   156   78  156 1    
   157   79   80 am   BACKBONE|DICT|INTERRES
   158   79  157 1    
   159   80   81 2    
@<TRIPOS>SUBSTRUCTURE
     1 UNK         1 GROUP             0       ****    0 ROOT    
