@<TRIPOS>MOLECULE
3R207
157   159    1
SMALL
USER_CHARGES


@<TRIPOS>ATOM
      1 CA        -45.7146  -30.5764    2.6838 C.3       0 UNK        -0.1975 
      2 C         -46.6165  -29.8506    3.6714 C.2       0 UNK         0.4852 
      3 O         -46.1821  -29.5603    4.7856 O.2       0 UNK        -0.5216 
      4 N         -47.8626  -29.5692    3.2633 N.am      1 UNK        -0.4461 
      5 CA        -48.8960  -28.8451    4.0132 C.3       1 UNK         0.0864 
      6 C6        -49.3348  -29.5764    5.3118 C.3       14 UNK        -0.0898 
      7 S7        -51.0654  -29.1977    5.7483 S.3       14 UNK        -0.2598 
      8 C8        -50.8651  -28.1106    7.1931 C.3       14 UNK         0.0286 
      9 C9        -50.7552  -28.9020    8.4872 C.ar      14 UNK        -0.0844 
     10 C10       -49.5104  -29.3136    8.9659 C.ar      14 UNK        -0.0881 
     11 C11       -49.4047  -29.9997   10.1788 C.ar      14 UNK        -0.0643 
     12 C12       -50.5583  -30.2579   10.9284 C.ar      14 UNK        -0.0930 
     13 C13       -51.8145  -29.8594   10.4553 C.ar      14 UNK        -0.0827 
     14 C14       -51.9031  -29.1966    9.2259 C.ar      14 UNK        -0.1249 
     15 C15       -53.0776  -30.1536   11.2591 C.3       14 UNK         0.0141 
     16 S16       -54.0757  -28.6531   11.5061 S.3       14 UNK        -0.2313 
     17 C17       -55.4861  -29.2701   12.4803 C.3       14 UNK        -0.0915 
     18 CA        -56.6194  -28.2138   12.5542 C.3       13 UNK         0.0968 
     19 C         -57.8476  -28.7470   13.3395 C.2       13 UNK         0.5732 
     20 N         -58.6665  -29.5777   12.7088 N.am      13 UNK        -0.7310 
     21 O         -58.0522  -28.4487   14.5136 O.2       13 UNK        -0.5035 
     22 N         -56.1129  -26.9320   13.0618 N.am      13 UNK        -0.4233 
     23 C         -56.7097  -25.7469   12.9065 C.2       13 UNK         0.4989 
     24 O         -57.8084  -25.5918   12.3691 O.2       13 UNK        -0.4996 
     25 CA        -55.8992  -24.5305   13.3895 C.3       12 UNK         0.0216 
     26 CB        -56.6980  -23.2082   13.3741 C.3       12 UNK        -0.1964 
     27 N         -55.2516  -24.7620   14.6868 N.am      12 UNK        -0.4276 
     28 C         -55.8527  -24.9075   15.8776 C.2       12 UNK         0.5020 
     29 O         -57.0734  -24.8693   16.0445 O.2       12 UNK        -0.5489 
     30 CA        -54.9199  -25.0933   17.0890 C.3       11 UNK         0.0294 
     31 CB        -55.6730  -25.4173   18.3987 C.3       11 UNK        -0.2019 
     32 N         -53.8410  -26.0573   16.8473 N.am      11 UNK        -0.4493 
     33 C         -53.9520  -27.3789   16.6354 C.2       11 UNK         0.4932 
     34 O         -55.0298  -27.9695   16.5741 O.2       11 UNK        -0.5029 
     35 CA        -52.6543  -28.2006   16.4710 C.3       10 UNK         0.0280 
     36 CB        -52.6914  -29.0393   15.1825 C.3       10 UNK        -0.1976 
     37 N         -51.4319  -27.3931   16.4758 N.am      10 UNK        -0.4242 
     38 C         -50.8416  -26.8750   17.5624 C.2       10 UNK         0.5072 
     39 O         -51.2189  -27.0871   18.7150 O.2       10 UNK        -0.5224 
     40 CA        -49.6653  -25.9100   17.3180 C.3       9 UNK         0.0343 
     41 CB        -48.3443  -26.6862   17.2111 C.3       9 UNK        -0.2003 
     42 N         -49.8489  -25.0682   16.1285 N.am      9 UNK        -0.4272 
     43 C         -50.8488  -24.1858   15.9707 C.2       9 UNK         0.4988 
     44 O         -51.6975  -23.9527   16.8309 O.2       9 UNK        -0.5108 
     45 CA        -50.9645  -23.4952   14.6040 C.3       8 UNK         0.0248 
     46 CB        -49.9954  -22.3070   14.4951 C.3       8 UNK        -0.2001 
     47 N         -50.7398  -24.4347   13.5052 N.am      8 UNK        -0.4140 
     48 C         -51.5892  -25.4149   13.1645 C.2       8 UNK         0.5028 
     49 O         -52.6869  -25.5860   13.6983 O.2       8 UNK        -0.5428 
     50 CA        -51.1126  -26.3837   12.0702 C.3       7 UNK         0.0264 
     51 CB        -51.4014  -25.8047   10.6774 C.3       7 UNK        -0.1988 
     52 N         -49.6885  -26.7087   12.1956 N.am      7 UNK        -0.4454 
     53 C         -49.1876  -27.4452   13.2017 C.2       7 UNK         0.5027 
     54 O         -49.8887  -27.9574   14.0728 O.2       7 UNK        -0.5083 
     55 CA        -47.6551  -27.5836   13.3281 C.3       6 UNK         0.0844 
     56 C56       -47.1390  -28.9658   12.8616 C.3       14 UNK        -0.0967 
     57 S57       -46.9167  -29.1254   11.0568 S.3       14 UNK        -0.2604 
     58 C58       -48.0419  -30.4948   10.6389 C.3       14 UNK         0.0134 
     59 N         -46.9188  -26.4659   12.7382 N.am      6 UNK        -0.4116 
     60 C         -47.0077  -25.1945   13.1480 C.2       5 UNK         0.5034 
     61 O         -47.6570  -24.8426   14.1339 O.2       5 UNK        -0.5045 
     62 CA        -46.3006  -24.1293   12.2924 C.3       5 UNK         0.0224 
     63 CB        -44.9624  -23.7327   12.9356 C.3       5 UNK        -0.1978 
     64 N         -46.0719  -24.5122   10.8910 N.am      5 UNK        -0.4737 
     65 C         -47.0273  -24.8265   10.0043 C.2       4 UNK         0.5027 
     66 O         -48.2209  -24.9356   10.2927 O.2       4 UNK        -0.5211 
     67 CA        -46.5541  -25.1154    8.5688 C.3       4 UNK         0.0297 
     68 CB        -46.3567  -26.6249    8.3668 C.3       4 UNK        -0.1993 
     69 N         -47.4857  -24.6198    7.5530 N.am      4 UNK        -0.4486 
     70 C         -47.8176  -23.3327    7.3716 C.2       3 UNK         0.4961 
     71 O         -47.3474  -22.4020    8.0287 O.2       3 UNK        -0.5105 
     72 CA        -48.7866  -23.0442    6.2155 C.3       3 UNK         0.0299 
     73 CB        -48.9904  -21.5415    5.9409 C.3       3 UNK        -0.1972 
     74 N         -48.2764  -23.7047    5.0185 N.am      3 UNK        -0.4305 
     75 C         -49.0116  -24.3397    4.1019 C.2       2 UNK         0.5006 
     76 O         -50.2429  -24.3316    4.0793 O.2       2 UNK        -0.5106 
     77 CA        -48.2478  -25.1604    3.0426 C.3       2 UNK         0.0296 
     78 CB        -46.7138  -24.9614    3.0631 C.3       2 UNK        -0.2002 
     79 N         -48.5693  -26.5898    3.1346 N.am      2 UNK        -0.4032 
     80 C         -48.4892  -27.3692    4.2260 C.2       1 UNK         0.5000 
     81 O         -48.0952  -26.9750    5.3276 O.2       1 UNK        -0.5238 
     82 H82       -46.2300  -30.8074    1.7518 H         1 UNK         0.0889 
     83 H83       -45.3619  -31.5124    3.1162 H         1 UNK         0.0889 
     84 H84       -44.8464  -29.9613    2.4479 H         1 UNK         0.0889 
     85 H85       -48.1333  -29.8450    2.3293 H         1 UNK         0.3028 
     86 H86       -49.7585  -28.8340    3.3443 H         1 UNK         0.0864 
     87 H87       -48.6590  -29.3699    6.1416 H         1 UNK         0.0720 
     88 H88       -49.2866  -30.6555    5.1613 H         1 UNK         0.0720 
     89 H89       -51.7254  -27.4418    7.2459 H         1 UNK         0.0814 
     90 H90       -49.9958  -27.4645    7.0684 H         1 UNK         0.0814 
     91 H91       -48.6166  -29.1028    8.3969 H         1 UNK         0.1469 
     92 H92       -50.4792  -30.7814   11.8712 H         1 UNK         0.1381 
     93 H93       -52.8698  -28.8863    8.8536 H         1 UNK         0.1206 
     94 H94       -52.8285  -30.5746   12.2340 H         1 UNK         0.0813 
     95 H95       -53.6703  -30.9011   10.7316 H         1 UNK         0.0813 
     96 H96       -55.1387  -29.5343   13.4793 H         1 UNK         0.0638 
     97 H97       -55.8484  -30.1912   12.0201 H         1 UNK         0.0638 
     98 H98       -56.9596  -28.0296   11.5330 H         1 UNK         0.0568 
     99 H99       -59.4639  -29.9465   13.2028 H         1 UNK         0.3450 
    100 H100      -58.5079  -29.8391   11.7486 H         1 UNK         0.3450 
    101 H101      -55.2190  -26.9652   13.5285 H         1 UNK         0.2987 
    102 H102      -55.0847  -24.4180   12.6721 H         1 UNK         0.0766 
    103 H103      -56.0855  -22.3704   13.7079 H         1 UNK         0.0798 
    104 H104      -57.5801  -23.2562   14.0128 H         1 UNK         0.0798 
    105 H105      -57.0433  -22.9748   12.3659 H         1 UNK         0.0798 
    106 H106      -54.2442  -24.9030   14.6330 H         1 UNK         0.3198 
    107 H107      -54.4302  -24.1285   17.2333 H         1 UNK         0.0843 
    108 H108      -56.2462  -26.3421   18.3202 H         1 UNK         0.0831 
    109 H109      -56.3762  -24.6220   18.6497 H         1 UNK         0.0831 
    110 H110      -54.9851  -25.5174   19.2388 H         1 UNK         0.0831 
    111 H111      -52.9107  -25.6540   16.8539 H         1 UNK         0.3133 
    112 H112      -52.6086  -28.8911   17.3155 H         1 UNK         0.0566 
    113 H113      -51.7932  -29.6479   15.0772 H         1 UNK         0.0814 
    114 H114      -53.5400  -29.7234   15.1843 H         1 UNK         0.0814 
    115 H115      -52.7733  -28.4087   14.2966 H         1 UNK         0.0814 
    116 H116      -51.0011  -27.2366   15.5693 H         1 UNK         0.3091 
    117 H117      -49.5982  -25.2416   18.1790 H         1 UNK         0.0702 
    118 H118      -47.5089  -26.0288   16.9688 H         1 UNK         0.0785 
    119 H119      -48.3975  -27.4645   16.4509 H         1 UNK         0.0785 
    120 H120      -48.1093  -27.1777   18.1560 H         1 UNK         0.0785 
    121 H121      -49.1593  -25.1544   15.3876 H         1 UNK         0.2998 
    122 H122      -51.9816  -23.1075   14.5118 H         1 UNK         0.0697 
    123 H123      -48.9544  -22.6136   14.5979 H         1 UNK         0.0825 
    124 H124      -50.1943  -21.5735   15.2776 H         1 UNK         0.0825 
    125 H125      -50.1014  -21.7950   13.5386 H         1 UNK         0.0825 
    126 H126      -49.8454  -24.3888   13.0380 H         1 UNK         0.3029 
    127 H127      -51.6704  -27.3137   12.1796 H         1 UNK         0.0897 
    128 H128      -50.9330  -24.8303   10.5356 H         1 UNK         0.0792 
    129 H129      -52.4744  -25.6796   10.5264 H         1 UNK         0.0792 
    130 H130      -51.0368  -26.4638    9.8913 H         1 UNK         0.0792 
    131 H131      -49.0617  -26.2874   11.5154 H         1 UNK         0.3086 
    132 H132      -47.4480  -27.5348   14.3976 H         1 UNK         0.0583 
    133 H133      -46.1635  -29.1471   13.3155 H         1 UNK         0.1020 
    134 H134      -47.7785  -29.7638   13.2438 H         1 UNK         0.1020 
    135 H135      -47.5923  -31.0691    9.8276 H         1 UNK         0.0694 
    136 H136      -48.1330  -31.1873   11.4766 H         1 UNK         0.0694 
    137 H137      -46.3847  -26.6733   11.9071 H         1 UNK         0.2989 
    138 H138      -46.9507  -23.2516   12.2865 H         1 UNK         0.1055 
    139 H139      -45.1042  -23.4188   13.9710 H         1 UNK         0.0806 
    140 H140      -44.4993  -22.8982   12.4088 H         1 UNK         0.0806 
    141 H141      -44.2548  -24.5627   12.9412 H         1 UNK         0.0806 
    142 H142      -45.1153  -24.4683   10.5683 H         1 UNK         0.3061 
    143 H143      -45.5976  -24.6145    8.4068 H         1 UNK         0.0734 
    144 H144      -45.9976  -26.8518    7.3625 H         1 UNK         0.0832 
    145 H145      -45.6256  -27.0250    9.0701 H         1 UNK         0.0832 
    146 H146      -47.2882  -27.1704    8.5178 H         1 UNK         0.0832 
    147 H147      -47.9059  -25.3186    6.9512 H         1 UNK         0.3156 
    148 H148      -49.7473  -23.4791    6.4989 H         1 UNK         0.0589 
    149 H149      -48.0558  -21.0525    5.6645 H         1 UNK         0.0808 
    150 H150      -49.7042  -21.3806    5.1333 H         1 UNK         0.0808 
    151 H151      -49.3797  -21.0319    6.8231 H         1 UNK         0.0808 
    152 H152      -47.2715  -23.7962    4.9659 H         1 UNK         0.3098 
    153 H153      -48.6132  -24.8183    2.0735 H         1 UNK         0.0720 
    154 H154      -46.2431  -25.5040    2.2433 H         1 UNK         0.0791 
    155 H155      -46.2612  -25.3187    3.9890 H         1 UNK         0.0791 
    156 H156      -46.4469  -23.9111    2.9391 H         1 UNK         0.0791 
    157 H157      -48.9207  -27.0059    2.2841 H         1 UNK         0.3028 
@<TRIPOS>BOND
     1    1    2 1    
     2    1   82 1    
     3    1   83 1    
     4    1   84 1    
     5    2    3 2    
     6    2    4 am   BACKBONE|DICT|INTERRES
     7    4    5 1    
     8    4   85 1    
     9    5    6 1    
    10    5   80 1    
    11    5   86 1    
    12    6    7 1    
    13    6   87 1    
    14    6   88 1    
    15    7    8 1    
    16    8    9 1    
    17    8   89 1    
    18    8   90 1    
    19    9   10 ar   
    20    9   14 ar   
    21   10   11 ar   
    22   10   91 1    
    23   11   12 ar   
    24   11   58 1    
    25   12   13 ar   
    26   12   92 1    
    27   13   14 ar   
    28   13   15 1    
    29   14   93 1    
    30   15   16 1    
    31   15   94 1    
    32   15   95 1    
    33   16   17 1    
    34   17   18 1    
    35   17   96 1    
    36   17   97 1    
    37   18   19 1    
    38   18   22 1    
    39   18   98 1    
    40   19   20 am   BACKBONE|DICT|INTERRES
    41   19   21 2    
    42   20   99 1    
    43   20  100 1    
    44   22   23 am   BACKBONE|DICT|INTERRES
    45   22  101 1    
    46   23   24 2    
    47   23   25 1    
    48   25   26 1    
    49   25   27 1    
    50   25  102 1    
    51   26  103 1    
    52   26  104 1    
    53   26  105 1    
    54   27   28 am   BACKBONE|DICT|INTERRES
    55   27  106 1    
    56   28   29 2    
    57   28   30 1    
    58   30   31 1    
    59   30   32 1    
    60   30  107 1    
    61   31  108 1    
    62   31  109 1    
    63   31  110 1    
    64   32   33 am   BACKBONE|DICT|INTERRES
    65   32  111 1    
    66   33   34 2    
    67   33   35 1    
    68   35   36 1    
    69   35   37 1    
    70   35  112 1    
    71   36  113 1    
    72   36  114 1    
    73   36  115 1    
    74   37   38 am   BACKBONE|DICT|INTERRES
    75   37  116 1    
    76   38   39 2    
    77   38   40 1    
    78   40   41 1    
    79   40   42 1    
    80   40  117 1    
    81   41  118 1    
    82   41  119 1    
    83   41  120 1    
    84   42   43 am   BACKBONE|DICT|INTERRES
    85   42  121 1    
    86   43   44 2    
    87   43   45 1    
    88   45   46 1    
    89   45   47 1    
    90   45  122 1    
    91   46  123 1    
    92   46  124 1    
    93   46  125 1    
    94   47   48 am   BACKBONE|DICT|INTERRES
    95   47  126 1    
    96   48   49 2    
    97   48   50 1    
    98   50   51 1    
    99   50   52 1    
   100   50  127 1    
   101   51  128 1    
   102   51  129 1    
   103   51  130 1    
   104   52   53 am   BACKBONE|DICT|INTERRES
   105   52  131 1    
   106   53   54 2    
   107   53   55 1    
   108   55   56 1    
   109   55   59 1    
   110   55  132 1    
   111   56   57 1    
   112   56  133 1    
   113   56  134 1    
   114   57   58 1    
   115   58  135 1    
   116   58  136 1    
   117   59   60 am   BACKBONE|DICT|INTERRES
   118   59  137 1    
   119   60   61 2    
   120   60   62 1    
   121   62   63 1    
   122   62   64 1    
   123   62  138 1    
   124   63  139 1    
   125   63  140 1    
   126   63  141 1    
   127   64   65 am   BACKBONE|DICT|INTERRES
   128   64  142 1    
   129   65   66 2    
   130   65   67 1    
   131   67   68 1    
   132   67   69 1    
   133   67  143 1    
   134   68  144 1    
   135   68  145 1    
   136   68  146 1    
   137   69   70 am   BACKBONE|DICT|INTERRES
   138   69  147 1    
   139   70   71 2    
   140   70   72 1    
   141   72   73 1    
   142   72   74 1    
   143   72  148 1    
   144   73  149 1    
   145   73  150 1    
   146   73  151 1    
   147   74   75 am   BACKBONE|DICT|INTERRES
   148   74  152 1    
   149   75   76 2    
   150   75   77 1    
   151   77   78 1    
   152   77   79 1    
   153   77  153 1    
   154   78  154 1    
   155   78  155 1    
   156   78  156 1    
   157   79   80 am   BACKBONE|DICT|INTERRES
   158   79  157 1    
   159   80   81 2    
@<TRIPOS>SUBSTRUCTURE
     1 UNK         1 GROUP             0       ****    0 ROOT    
