@<TRIPOS>MOLECULE
3R207
157   159    1
SMALL
USER_CHARGES


@<TRIPOS>ATOM
      1 CA        -48.0493  -30.8419    8.0336 C.3       0 UNK        -0.1975 
      2 C         -48.2630  -30.2910    6.6338 C.2       0 UNK         0.4852 
      3 O         -47.3560  -30.3618    5.8038 O.2       0 UNK        -0.5216 
      4 N         -49.4607  -29.7560    6.3627 N.am      1 UNK        -0.4461 
      5 CA        -49.8715  -29.2795    5.0352 C.3       1 UNK         0.0864 
      6 C6        -51.4118  -29.2440    4.8763 C.3       14 UNK        -0.0898 
      7 S7        -52.1726  -30.8599    5.2662 S.3       14 UNK        -0.2598 
      8 C8        -53.4562  -30.4244    6.4846 C.3       14 UNK         0.0286 
      9 C9        -52.9049  -29.7186    7.7176 C.ar      14 UNK        -0.0844 
     10 C10       -53.2096  -28.3720    7.9415 C.ar      14 UNK        -0.0881 
     11 C11       -52.7535  -27.7215    9.0899 C.ar      14 UNK        -0.0643 
     12 C12       -51.9723  -28.4226   10.0108 C.ar      14 UNK        -0.0930 
     13 C13       -51.6774  -29.7741    9.8118 C.ar      14 UNK        -0.0827 
     14 C14       -52.1384  -30.4165    8.6576 C.ar      14 UNK        -0.1249 
     15 C15       -50.8986  -30.5433   10.8705 C.3       14 UNK         0.0141 
     16 S16       -51.9973  -31.5123   11.9553 S.3       14 UNK        -0.2313 
     17 C17       -53.0487  -30.2178   12.6954 C.3       14 UNK        -0.0915 
     18 CA        -54.4354  -30.1264   11.9981 C.3       13 UNK         0.0968 
     19 C         -55.4580  -31.1051   12.6406 C.2       13 UNK         0.5732 
     20 N         -55.5567  -32.3254   12.1314 N.am      13 UNK        -0.7310 
     21 O         -56.1291  -30.7800   13.6190 O.2       13 UNK        -0.5035 
     22 N         -54.9071  -28.7364   11.9564 N.am      13 UNK        -0.4233 
     23 C         -56.0132  -28.2949   11.3466 C.2       13 UNK         0.4989 
     24 O         -56.7617  -29.0160   10.6842 O.2       13 UNK        -0.4996 
     25 CA        -56.3371  -26.7910   11.5049 C.3       12 UNK         0.0216 
     26 CB        -57.7255  -26.4230   10.9474 C.3       12 UNK        -0.1964 
     27 N         -56.2440  -26.3194   12.8922 N.am      12 UNK        -0.4276 
     28 C         -55.1110  -26.1009   13.5703 C.2       12 UNK         0.5020 
     29 O         -53.9840  -26.2873   13.1003 O.2       12 UNK        -0.5489 
     30 CA        -55.2633  -25.6608   15.0293 C.3       11 UNK         0.0294 
     31 CB        -55.6766  -26.8578   15.9099 C.3       11 UNK        -0.2019 
     32 N         -53.9811  -25.1291   15.4746 N.am      11 UNK        -0.4493 
     33 C         -53.7457  -24.4373   16.5953 C.2       11 UNK         0.4932 
     34 O         -54.6284  -24.0889   17.3816 O.2       11 UNK        -0.5029 
     35 CA        -52.2712  -24.0873   16.8805 C.3       10 UNK         0.0280 
     36 CB        -52.0018  -23.7273   18.3567 C.3       10 UNK        -0.1976 
     37 N         -51.3534  -25.1311   16.4100 N.am      10 UNK        -0.4242 
     38 C         -51.2783  -26.4065   16.8217 C.2       10 UNK         0.5072 
     39 O         -51.9258  -26.8761   17.7583 O.2       10 UNK        -0.5224 
     40 CA        -50.3341  -27.3287   16.0313 C.3       9 UNK         0.0343 
     41 CB        -51.0960  -27.9944   14.8728 C.3       9 UNK        -0.2003 
     42 N         -49.1582  -26.6326   15.5030 N.am      9 UNK        -0.4272 
     43 C         -48.1551  -26.1580   16.2559 C.2       9 UNK         0.4988 
     44 O         -48.0788  -26.3142   17.4753 O.2       9 UNK        -0.5108 
     45 CA        -47.0555  -25.3633   15.5308 C.3       8 UNK         0.0248 
     46 CB        -46.0571  -26.3133   14.8505 C.3       8 UNK        -0.2001 
     47 N         -47.5890  -24.4105   14.5522 N.am      8 UNK        -0.4140 
     48 C         -48.3343  -23.3396   14.8674 C.2       8 UNK         0.5028 
     49 O         -48.6110  -23.0114   16.0212 O.2       8 UNK        -0.5428 
     50 CA        -48.8874  -22.4999   13.7036 C.3       7 UNK         0.0264 
     51 CB        -47.8223  -21.5230   13.1807 C.3       7 UNK        -0.1988 
     52 N         -49.3938  -23.3146   12.5977 N.am      7 UNK        -0.4454 
     53 C         -50.4361  -24.1552   12.6791 C.2       7 UNK         0.5027 
     54 O         -51.1185  -24.3017   13.6929 O.2       7 UNK        -0.5083 
     55 CA        -50.7325  -25.0145   11.4346 C.3       6 UNK         0.0844 
     56 C56       -51.5430  -24.2097   10.3879 C.3       14 UNK        -0.0967 
     57 S57       -51.8463  -25.1259    8.8388 S.3       14 UNK        -0.2604 
     58 C58       -53.1467  -26.2788    9.3609 C.3       14 UNK         0.0134 
     59 N         -49.5079  -25.6079   10.8885 N.am      6 UNK        -0.4116 
     60 C         -48.7131  -26.4609   11.5504 C.2       5 UNK         0.5034 
     61 O         -48.9572  -26.9012   12.6722 O.2       5 UNK        -0.5045 
     62 CA        -47.3942  -26.8476   10.8711 C.3       5 UNK         0.0224 
     63 CB        -47.6008  -28.0279    9.9126 C.3       5 UNK        -0.1978 
     64 N         -46.8031  -25.7128   10.1601 N.am      5 UNK        -0.4737 
     65 C         -46.2218  -24.6718   10.7740 C.2       4 UNK         0.5027 
     66 O         -46.0848  -24.5913   11.9942 O.2       4 UNK        -0.5211 
     67 CA        -45.7563  -23.5060    9.8847 C.3       4 UNK         0.0297 
     68 CB        -44.3518  -23.7816    9.3258 C.3       4 UNK        -0.1993 
     69 N         -46.6788  -23.2285    8.7811 N.am      4 UNK        -0.4486 
     70 C         -47.9433  -22.8125    8.9375 C.2       3 UNK         0.4961 
     71 O         -48.4469  -22.5553   10.0300 O.2       3 UNK        -0.5105 
     72 CA        -48.8101  -22.7055    7.6709 C.3       3 UNK         0.0299 
     73 CB        -48.7395  -21.2825    7.0954 C.3       3 UNK        -0.1972 
     74 N         -48.4860  -23.6767    6.6181 N.am      3 UNK        -0.4305 
     75 C         -48.4806  -25.0091    6.7634 C.2       2 UNK         0.5006 
     76 O         -48.6478  -25.5910    7.8382 O.2       2 UNK        -0.5106 
     77 CA        -48.1900  -25.8282    5.5044 C.3       2 UNK         0.0296 
     78 CB        -46.6734  -25.9816    5.2902 C.3       2 UNK        -0.2002 
     79 N         -48.8028  -27.1435    5.6565 N.am      2 UNK        -0.4032 
     80 C         -49.2447  -27.9195    4.6589 C.2       1 UNK         0.5000 
     81 O         -49.1705  -27.6040    3.4692 O.2       1 UNK        -0.5238 
     82 H82       -48.7884  -30.4506    8.7293 H         1 UNK         0.0889 
     83 H83       -47.0590  -30.5744    8.4006 H         1 UNK         0.0889 
     84 H84       -48.1271  -31.9288    8.0247 H         1 UNK         0.0889 
     85 H85       -50.1842  -29.7475    7.0695 H         1 UNK         0.3028 
     86 H86       -49.4931  -29.9967    4.3029 H         1 UNK         0.0864 
     87 H87       -51.8440  -28.4607    5.4996 H         1 UNK         0.0720 
     88 H88       -51.6810  -28.9920    3.8488 H         1 UNK         0.0720 
     89 H89       -53.9662  -31.3368    6.7967 H         1 UNK         0.0814 
     90 H90       -54.2124  -29.8106    5.9925 H         1 UNK         0.0814 
     91 H91       -53.8186  -27.8313    7.2300 H         1 UNK         0.1469 
     92 H92       -51.6249  -27.9247   10.9040 H         1 UNK         0.1381 
     93 H93       -51.9229  -31.4652    8.5027 H         1 UNK         0.1206 
     94 H94       -50.2003  -31.2296   10.3915 H         1 UNK         0.0813 
     95 H95       -50.2961  -29.8645   11.4769 H         1 UNK         0.0813 
     96 H96       -52.5147  -29.2699   12.6315 H         1 UNK         0.0638 
     97 H97       -53.1483  -30.4117   13.7652 H         1 UNK         0.0638 
     98 H98       -54.3209  -30.4119   10.9503 H         1 UNK         0.0568 
     99 H99       -56.2028  -32.9794   12.5439 H         1 UNK         0.3450 
    100 H100      -54.9845  -32.6073   11.3508 H         1 UNK         0.3450 
    101 H101      -54.3607  -28.0524   12.4705 H         1 UNK         0.2987 
    102 H102      -55.6012  -26.2455   10.9143 H         1 UNK         0.0766 
    103 H103      -57.9132  -25.3516   11.0219 H         1 UNK         0.0798 
    104 H104      -58.5244  -26.9428   11.4780 H         1 UNK         0.0798 
    105 H105      -57.8077  -26.6884    9.8924 H         1 UNK         0.0798 
    106 H106      -57.1223  -26.1851   13.3730 H         1 UNK         0.3198 
    107 H107      -56.0161  -24.8719   15.0852 H         1 UNK         0.0843 
    108 H108      -56.6196  -27.2918   15.5756 H         1 UNK         0.0831 
    109 H109      -55.8134  -26.5628   16.9502 H         1 UNK         0.0831 
    110 H110      -54.9264  -27.6497   15.8854 H         1 UNK         0.0831 
    111 H111      -53.2164  -25.3244   14.8356 H         1 UNK         0.3133 
    112 H112      -52.0482  -23.2034   16.2812 H         1 UNK         0.0566 
    113 H113      -50.9506  -23.4881   18.5186 H         1 UNK         0.0814 
    114 H114      -52.5826  -22.8547   18.6578 H         1 UNK         0.0814 
    115 H115      -52.2692  -24.5424   19.0296 H         1 UNK         0.0814 
    116 H116      -50.8333  -24.8819   15.5741 H         1 UNK         0.3091 
    117 H117      -49.9892  -28.1120   16.7093 H         1 UNK         0.0702 
    118 H118      -50.4706  -28.7183   14.3500 H         1 UNK         0.0785 
    119 H119      -51.4394  -27.2612   14.1412 H         1 UNK         0.0785 
    120 H120      -51.9753  -28.5271   15.2375 H         1 UNK         0.0785 
    121 H121      -49.1080  -26.5291   14.4915 H         1 UNK         0.2998 
    122 H122      -46.5119  -24.7894   16.2844 H         1 UNK         0.0697 
    123 H123      -46.5332  -26.9113   14.0735 H         1 UNK         0.0825 
    124 H124      -45.6225  -27.0049   15.5734 H         1 UNK         0.0825 
    125 H125      -45.2342  -25.7635   14.3932 H         1 UNK         0.0825 
    126 H126      -47.3416  -24.5668   13.5797 H         1 UNK         0.3029 
    127 H127      -49.7247  -21.9148   14.0903 H         1 UNK         0.0897 
    128 H128      -48.2301  -20.8678   12.4106 H         1 UNK         0.0792 
    129 H129      -47.4477  -20.8867   13.9837 H         1 UNK         0.0792 
    130 H130      -46.9675  -22.0477   12.7529 H         1 UNK         0.0792 
    131 H131      -48.9262  -23.2030   11.6995 H         1 UNK         0.3086 
    132 H132      -51.3595  -25.8395   11.7758 H         1 UNK         0.0583 
    133 H133      -52.5028  -23.9005   10.8071 H         1 UNK         0.1020 
    134 H134      -51.0240  -23.2866   10.1258 H         1 UNK         0.1020 
    135 H135      -53.3522  -26.1583   10.4243 H         1 UNK         0.0694 
    136 H136      -54.0723  -26.0286    8.8405 H         1 UNK         0.0694 
    137 H137      -49.2548  -25.3411    9.9443 H         1 UNK         0.2989 
    138 H138      -46.6960  -27.1636   11.6491 H         1 UNK         0.1055 
    139 H139      -47.9282  -28.9105   10.4631 H         1 UNK         0.0806 
    140 H140      -46.6752  -28.2883    9.3993 H         1 UNK         0.0806 
    141 H141      -48.3589  -27.8174    9.1581 H         1 UNK         0.0806 
    142 H142      -46.9743  -25.6632    9.1631 H         1 UNK         0.3061 
    143 H143      -45.7063  -22.6126   10.5110 H         1 UNK         0.0734 
    144 H144      -43.6434  -23.9732   10.1332 H         1 UNK         0.0832 
    145 H145      -44.3397  -24.6525    8.6691 H         1 UNK         0.0832 
    146 H146      -43.9737  -22.9288    8.7619 H         1 UNK         0.0832 
    147 H147      -46.3487  -23.4130    7.8453 H         1 UNK         0.3156 
    148 H148      -49.8418  -22.8957    7.9714 H         1 UNK         0.0589 
    149 H149      -47.7391  -21.0411    6.7338 H         1 UNK         0.0808 
    150 H150      -49.4377  -21.1524    6.2684 H         1 UNK         0.0808 
    151 H151      -48.9991  -20.5419    7.8536 H         1 UNK         0.0808 
    152 H152      -48.3130  -23.2950    5.6988 H         1 UNK         0.3098 
    153 H153      -48.6345  -25.3160    4.6482 H         1 UNK         0.0720 
    154 H154      -46.4575  -26.5561    4.3891 H         1 UNK         0.0791 
    155 H155      -46.1986  -26.4903    6.1304 H         1 UNK         0.0791 
    156 H156      -46.1896  -25.0107    5.1771 H         1 UNK         0.0791 
    157 H157      -48.9456  -27.4322    6.6159 H         1 UNK         0.3028 
@<TRIPOS>BOND
     1    1    2 1    
     2    1   82 1    
     3    1   83 1    
     4    1   84 1    
     5    2    3 2    
     6    2    4 am   BACKBONE|DICT|INTERRES
     7    4    5 1    
     8    4   85 1    
     9    5    6 1    
    10    5   80 1    
    11    5   86 1    
    12    6    7 1    
    13    6   87 1    
    14    6   88 1    
    15    7    8 1    
    16    8    9 1    
    17    8   89 1    
    18    8   90 1    
    19    9   10 ar   
    20    9   14 ar   
    21   10   11 ar   
    22   10   91 1    
    23   11   12 ar   
    24   11   58 1    
    25   12   13 ar   
    26   12   92 1    
    27   13   14 ar   
    28   13   15 1    
    29   14   93 1    
    30   15   16 1    
    31   15   94 1    
    32   15   95 1    
    33   16   17 1    
    34   17   18 1    
    35   17   96 1    
    36   17   97 1    
    37   18   19 1    
    38   18   22 1    
    39   18   98 1    
    40   19   20 am   BACKBONE|DICT|INTERRES
    41   19   21 2    
    42   20   99 1    
    43   20  100 1    
    44   22   23 am   BACKBONE|DICT|INTERRES
    45   22  101 1    
    46   23   24 2    
    47   23   25 1    
    48   25   26 1    
    49   25   27 1    
    50   25  102 1    
    51   26  103 1    
    52   26  104 1    
    53   26  105 1    
    54   27   28 am   BACKBONE|DICT|INTERRES
    55   27  106 1    
    56   28   29 2    
    57   28   30 1    
    58   30   31 1    
    59   30   32 1    
    60   30  107 1    
    61   31  108 1    
    62   31  109 1    
    63   31  110 1    
    64   32   33 am   BACKBONE|DICT|INTERRES
    65   32  111 1    
    66   33   34 2    
    67   33   35 1    
    68   35   36 1    
    69   35   37 1    
    70   35  112 1    
    71   36  113 1    
    72   36  114 1    
    73   36  115 1    
    74   37   38 am   BACKBONE|DICT|INTERRES
    75   37  116 1    
    76   38   39 2    
    77   38   40 1    
    78   40   41 1    
    79   40   42 1    
    80   40  117 1    
    81   41  118 1    
    82   41  119 1    
    83   41  120 1    
    84   42   43 am   BACKBONE|DICT|INTERRES
    85   42  121 1    
    86   43   44 2    
    87   43   45 1    
    88   45   46 1    
    89   45   47 1    
    90   45  122 1    
    91   46  123 1    
    92   46  124 1    
    93   46  125 1    
    94   47   48 am   BACKBONE|DICT|INTERRES
    95   47  126 1    
    96   48   49 2    
    97   48   50 1    
    98   50   51 1    
    99   50   52 1    
   100   50  127 1    
   101   51  128 1    
   102   51  129 1    
   103   51  130 1    
   104   52   53 am   BACKBONE|DICT|INTERRES
   105   52  131 1    
   106   53   54 2    
   107   53   55 1    
   108   55   56 1    
   109   55   59 1    
   110   55  132 1    
   111   56   57 1    
   112   56  133 1    
   113   56  134 1    
   114   57   58 1    
   115   58  135 1    
   116   58  136 1    
   117   59   60 am   BACKBONE|DICT|INTERRES
   118   59  137 1    
   119   60   61 2    
   120   60   62 1    
   121   62   63 1    
   122   62   64 1    
   123   62  138 1    
   124   63  139 1    
   125   63  140 1    
   126   63  141 1    
   127   64   65 am   BACKBONE|DICT|INTERRES
   128   64  142 1    
   129   65   66 2    
   130   65   67 1    
   131   67   68 1    
   132   67   69 1    
   133   67  143 1    
   134   68  144 1    
   135   68  145 1    
   136   68  146 1    
   137   69   70 am   BACKBONE|DICT|INTERRES
   138   69  147 1    
   139   70   71 2    
   140   70   72 1    
   141   72   73 1    
   142   72   74 1    
   143   72  148 1    
   144   73  149 1    
   145   73  150 1    
   146   73  151 1    
   147   74   75 am   BACKBONE|DICT|INTERRES
   148   74  152 1    
   149   75   76 2    
   150   75   77 1    
   151   77   78 1    
   152   77   79 1    
   153   77  153 1    
   154   78  154 1    
   155   78  155 1    
   156   78  156 1    
   157   79   80 am   BACKBONE|DICT|INTERRES
   158   79  157 1    
   159   80   81 2    
@<TRIPOS>SUBSTRUCTURE
     1 UNK         1 GROUP             0       ****    0 ROOT    
