@<TRIPOS>MOLECULE
3R207
157   159    1
SMALL
USER_CHARGES


@<TRIPOS>ATOM
      1 CA        -47.0348  -26.0147    4.5144 C.3       0 UNK        -0.1975 
      2 C         -48.5264  -26.2674    4.3522 C.2       0 UNK         0.4852 
      3 O         -49.1822  -25.5878    3.5629 O.2       0 UNK        -0.5216 
      4 N         -49.0726  -27.2277    5.1088 N.am      1 UNK        -0.4461 
      5 CA        -50.4929  -27.6101    5.1223 C.3       1 UNK         0.0864 
      6 C6        -50.6554  -29.1302    5.3877 C.3       14 UNK        -0.0898 
      7 S7        -49.9680  -29.6701    6.9923 S.3       14 UNK        -0.2598 
      8 C8        -51.4562  -30.3457    7.7994 C.3       14 UNK         0.0286 
      9 C9        -51.2758  -30.5089    9.3031 C.ar      14 UNK        -0.0844 
     10 C10       -50.2039  -31.2450    9.8210 C.ar      14 UNK        -0.0881 
     11 C11       -50.0303  -31.3735   11.2026 C.ar      14 UNK        -0.0643 
     12 C12       -50.9601  -30.7936   12.0674 C.ar      14 UNK        -0.0930 
     13 C13       -52.0265  -30.0468   11.5636 C.ar      14 UNK        -0.0827 
     14 C14       -52.1825  -29.9089   10.1822 C.ar      14 UNK        -0.1249 
     15 C15       -52.9449  -29.3125   12.5225 C.3       14 UNK         0.0141 
     16 S16       -54.3524  -30.3182   13.0866 S.3       14 UNK        -0.2313 
     17 C17       -55.5286  -30.1817   11.6942 C.3       14 UNK        -0.0915 
     18 CA        -56.4291  -28.9126   11.7238 C.3       13 UNK         0.0968 
     19 C         -57.3860  -28.8671   12.9460 C.2       13 UNK         0.5732 
     20 N         -57.1844  -28.0014   13.9307 N.am      13 UNK        -0.7310 
     21 O         -58.3579  -29.6184   12.9861 O.2       13 UNK        -0.5035 
     22 N         -55.6638  -27.6771   11.4931 N.am      13 UNK        -0.4233 
     23 C         -55.2801  -27.2529   10.2814 C.2       13 UNK         0.4989 
     24 O         -55.5920  -27.8345    9.2411 O.2       13 UNK        -0.4996 
     25 CA        -54.3592  -26.0181   10.1682 C.3       12 UNK         0.0216 
     26 CB        -54.9333  -24.9799    9.1825 C.3       12 UNK        -0.1964 
     27 N         -53.9680  -25.3700   11.4274 N.am      12 UNK        -0.4276 
     28 C         -54.7543  -24.7408   12.3079 C.2       12 UNK         0.5020 
     29 O         -55.9818  -24.6807   12.2131 O.2       12 UNK        -0.5489 
     30 CA        -54.0366  -24.0988   13.5133 C.3       11 UNK         0.0294 
     31 CB        -54.9968  -23.2535   14.3743 C.3       11 UNK        -0.2019 
     32 N         -53.3129  -25.0330   14.3911 N.am      11 UNK        -0.4493 
     33 C         -53.7078  -26.2405   14.8300 C.2       11 UNK         0.4932 
     34 O         -54.6590  -26.8655   14.3610 O.2       11 UNK        -0.5029 
     35 CA        -52.9363  -26.8175   16.0329 C.3       10 UNK         0.0280 
     36 CB        -53.0610  -28.3429   16.2117 C.3       10 UNK        -0.1976 
     37 N         -51.5237  -26.4351   16.0079 N.am      10 UNK        -0.4242 
     38 C         -50.9085  -25.7237   16.9617 C.2       10 UNK         0.5072 
     39 O         -51.4432  -25.3671   18.0127 O.2       10 UNK        -0.5224 
     40 CA        -49.4540  -25.3022   16.6881 C.3       9 UNK         0.0343 
     41 CB        -48.4850  -26.4151   17.1157 C.3       9 UNK        -0.2003 
     42 N         -49.1810  -24.9204   15.2976 N.am      9 UNK        -0.4272 
     43 C         -49.8318  -23.9711   14.6048 C.2       9 UNK         0.4988 
     44 O         -50.8129  -23.3557   15.0219 O.2       9 UNK        -0.5108 
     45 CA        -49.3169  -23.6869   13.1896 C.3       8 UNK         0.0248 
     46 CB        -47.9616  -22.9585   13.2453 C.3       8 UNK        -0.2001 
     47 N         -49.2089  -24.9431   12.4466 N.am      8 UNK        -0.4140 
     48 C         -50.2207  -25.4859   11.7534 C.2       8 UNK         0.5028 
     49 O         -51.2429  -24.8707   11.4496 O.2       8 UNK        -0.5428 
     50 CA        -50.1032  -26.9567   11.3236 C.3       7 UNK         0.0264 
     51 CB        -49.9669  -27.0892    9.7993 C.3       7 UNK        -0.1988 
     52 N         -49.0044  -27.6652   11.9785 N.am      7 UNK        -0.4454 
     53 C         -49.0369  -28.1102   13.2436 C.2       7 UNK         0.5027 
     54 O         -50.0045  -27.9566   13.9918 O.2       7 UNK        -0.5083 
     55 CA        -47.7511  -28.7630   13.7987 C.3       6 UNK         0.0844 
     56 C56       -47.7752  -30.3109   13.7057 C.3       14 UNK        -0.0967 
     57 S57       -47.4198  -30.9880   12.0414 S.3       14 UNK        -0.2604 
     58 C58       -48.8251  -32.1150   11.7581 C.3       14 UNK         0.0134 
     59 N         -46.5232  -28.1893   13.2397 N.am      6 UNK        -0.4116 
     60 C         -46.1624  -26.9019   13.3221 C.2       5 UNK         0.5034 
     61 O         -46.8218  -26.0533   13.9273 O.2       5 UNK        -0.5045 
     62 CA        -44.8894  -26.4667   12.5660 C.3       5 UNK         0.0224 
     63 CB        -44.1359  -27.6289   11.8779 C.3       5 UNK        -0.1978 
     64 N         -45.1578  -25.4000   11.5892 N.am      5 UNK        -0.4737 
     65 C         -46.0771  -25.4184   10.6134 C.2       4 UNK         0.5027 
     66 O         -46.8627  -26.3469   10.4205 O.2       4 UNK        -0.5211 
     67 CA        -46.1335  -24.2002    9.6889 C.3       4 UNK         0.0297 
     68 CB        -45.6510  -24.5587    8.2722 C.3       4 UNK        -0.1993 
     69 N         -47.5128  -23.7248    9.6390 N.am      4 UNK        -0.4486 
     70 C         -47.8781  -22.4485    9.4690 C.2       3 UNK         0.4961 
     71 O         -47.0739  -21.5347    9.2767 O.2       3 UNK        -0.5105 
     72 CA        -49.3873  -22.1327    9.5665 C.3       3 UNK         0.0299 
     73 CB        -49.7452  -20.7552    8.9676 C.3       3 UNK        -0.1972 
     74 N         -50.2701  -23.1707    9.0158 N.am      3 UNK        -0.4305 
     75 C         -50.2673  -23.6256    7.7550 C.2       2 UNK         0.5006 
     76 O         -49.4385  -23.3055    6.8992 O.2       2 UNK        -0.5106 
     77 CA        -51.3967  -24.5821    7.3648 C.3       2 UNK         0.0296 
     78 CB        -52.5442  -23.8134    6.6828 C.3       2 UNK        -0.2002 
     79 N         -50.8223  -25.5598    6.4510 N.am      2 UNK        -0.4032 
     80 C         -51.3490  -26.7275    6.0678 C.2       1 UNK         0.5000 
     81 O         -52.4594  -27.1177    6.4330 O.2       1 UNK        -0.5238 
     82 H82       -46.5788  -26.7044    5.2246 H         1 UNK         0.0889 
     83 H83       -46.8640  -24.9991    4.8711 H         1 UNK         0.0889 
     84 H84       -46.5280  -26.1303    3.5567 H         1 UNK         0.0889 
     85 H85       -48.4912  -27.7500    5.7503 H         1 UNK         0.3028 
     86 H86       -50.8977  -27.4281    4.1244 H         1 UNK         0.0864 
     87 H87       -50.1412  -29.6901    4.6050 H         1 UNK         0.0720 
     88 H88       -51.7034  -29.4240    5.3056 H         1 UNK         0.0720 
     89 H89       -51.7001  -31.3125    7.3573 H         1 UNK         0.0814 
     90 H90       -52.3012  -29.6861    7.5942 H         1 UNK         0.0814 
     91 H91       -49.4879  -31.6943    9.1464 H         1 UNK         0.1469 
     92 H92       -50.8336  -30.8849   13.1368 H         1 UNK         0.1381 
     93 H93       -52.9984  -29.3166    9.7917 H         1 UNK         0.1206 
     94 H94       -53.2807  -28.3787   12.0809 H         1 UNK         0.0813 
     95 H95       -52.3659  -29.0111   13.3911 H         1 UNK         0.0813 
     96 H96       -54.9793  -30.2349   10.7545 H         1 UNK         0.0638 
     97 H97       -56.1553  -31.0749   11.7077 H         1 UNK         0.0638 
     98 H98       -57.1161  -29.0094   10.8807 H         1 UNK         0.0568 
     99 H99       -56.3232  -27.4653   13.9973 H         1 UNK         0.3450 
    100 H100      -57.8354  -27.9847   14.6984 H         1 UNK         0.3450 
    101 H101      -55.4092  -27.1453   12.3163 H         1 UNK         0.2987 
    102 H102      -53.4281  -26.3912    9.7391 H         1 UNK         0.0766 
    103 H103      -55.9181  -24.6292    9.4928 H         1 UNK         0.0798 
    104 H104      -54.2817  -24.1113    9.0971 H         1 UNK         0.0798 
    105 H105      -55.0400  -25.4058    8.1839 H         1 UNK         0.0798 
    106 H106      -52.9608  -25.3048   11.5813 H         1 UNK         0.3198 
    107 H107      -53.2858  -23.4235   13.0986 H         1 UNK         0.0843 
    108 H108      -55.5110  -22.5048   13.7702 H         1 UNK         0.0831 
    109 H109      -54.4608  -22.7209   15.1600 H         1 UNK         0.0831 
    110 H110      -55.7601  -23.8719   14.8484 H         1 UNK         0.0831 
    111 H111      -52.4855  -24.6350   14.8233 H         1 UNK         0.3133 
    112 H112      -53.4300  -26.3664   16.8956 H         1 UNK         0.0566 
    113 H113      -52.7909  -28.6302   17.2277 H         1 UNK         0.0814 
    114 H114      -54.0794  -28.6958   16.0437 H         1 UNK         0.0814 
    115 H115      -52.4014  -28.8909   15.5432 H         1 UNK         0.0814 
    116 H116      -50.9860  -26.7440   15.2013 H         1 UNK         0.3091 
    117 H117      -49.2491  -24.4217   17.3004 H         1 UNK         0.0702 
    118 H118      -47.4467  -26.1358   16.9348 H         1 UNK         0.0785 
    119 H119      -48.6840  -27.3445   16.5832 H         1 UNK         0.0785 
    120 H120      -48.5838  -26.6265   18.1813 H         1 UNK         0.0785 
    121 H121      -48.3727  -25.3586   14.8651 H         1 UNK         0.2998 
    122 H122      -50.0352  -23.0267   12.7002 H         1 UNK         0.0697 
    123 H123      -47.2041  -23.5237   13.7872 H         1 UNK         0.0825 
    124 H124      -48.0639  -21.9975   13.7511 H         1 UNK         0.0825 
    125 H125      -47.5672  -22.7544   12.2538 H         1 UNK         0.0825 
    126 H126      -48.4007  -25.5193   12.6513 H         1 UNK         0.3029 
    127 H127      -51.0330  -27.4434   11.6155 H         1 UNK         0.0897 
    128 H128      -49.6559  -28.0946    9.5177 H         1 UNK         0.0792 
    129 H129      -49.2445  -26.3905    9.3791 H         1 UNK         0.0792 
    130 H130      -50.9244  -26.9106    9.3127 H         1 UNK         0.0792 
    131 H131      -48.1478  -27.7526   11.4423 H         1 UNK         0.3086 
    132 H132      -47.7329  -28.5201   14.8618 H         1 UNK         0.0583 
    133 H133      -47.0172  -30.7142   14.3790 H         1 UNK         0.1020 
    134 H134      -48.7197  -30.7022   14.0859 H         1 UNK         0.1020 
    135 H135      -48.5136  -32.8878   11.0537 H         1 UNK         0.0694 
    136 H136      -49.0836  -32.6362   12.6811 H         1 UNK         0.0694 
    137 H137      -45.9548  -28.8184   12.6912 H         1 UNK         0.2989 
    138 H138      -44.2270  -26.0418   13.3220 H         1 UNK         0.1055 
    139 H139      -43.8474  -28.3986   12.5952 H         1 UNK         0.0806 
    140 H140      -43.2159  -27.2736   11.4134 H         1 UNK         0.0806 
    141 H141      -44.7321  -28.1022   11.0963 H         1 UNK         0.0806 
    142 H142      -44.5846  -24.5729   11.6865 H         1 UNK         0.3061 
    143 H143      -45.4897  -23.4183   10.0980 H         1 UNK         0.0734 
    144 H144      -45.6690  -23.6889    7.6153 H         1 UNK         0.0832 
    145 H145      -44.6265  -24.9322    8.2909 H         1 UNK         0.0832 
    146 H146      -46.2737  -25.3315    7.8193 H         1 UNK         0.0832 
    147 H147      -48.2156  -24.4277    9.8186 H         1 UNK         0.3156 
    148 H148      -49.6111  -22.0839   10.6314 H         1 UNK         0.0589 
    149 H149      -49.5008  -20.7010    7.9062 H         1 UNK         0.0808 
    150 H150      -50.8074  -20.5374    9.0787 H         1 UNK         0.0808 
    151 H151      -49.1995  -19.9545    9.4683 H         1 UNK         0.0808 
    152 H152      -50.9572  -23.5399    9.6641 H         1 UNK         0.3098 
    153 H153      -51.7746  -25.0882    8.2537 H         1 UNK         0.0720 
    154 H154      -53.3742  -24.4736    6.4316 H         1 UNK         0.0791 
    155 H155      -52.2118  -23.3308    5.7628 H         1 UNK         0.0791 
    156 H156      -52.9364  -23.0329    7.3357 H         1 UNK         0.0791 
    157 H157      -49.9146  -25.2941    6.0888 H         1 UNK         0.3028 
@<TRIPOS>BOND
     1    1    2 1    
     2    1   82 1    
     3    1   83 1    
     4    1   84 1    
     5    2    3 2    
     6    2    4 am   BACKBONE|DICT|INTERRES
     7    4    5 1    
     8    4   85 1    
     9    5    6 1    
    10    5   80 1    
    11    5   86 1    
    12    6    7 1    
    13    6   87 1    
    14    6   88 1    
    15    7    8 1    
    16    8    9 1    
    17    8   89 1    
    18    8   90 1    
    19    9   10 ar   
    20    9   14 ar   
    21   10   11 ar   
    22   10   91 1    
    23   11   12 ar   
    24   11   58 1    
    25   12   13 ar   
    26   12   92 1    
    27   13   14 ar   
    28   13   15 1    
    29   14   93 1    
    30   15   16 1    
    31   15   94 1    
    32   15   95 1    
    33   16   17 1    
    34   17   18 1    
    35   17   96 1    
    36   17   97 1    
    37   18   19 1    
    38   18   22 1    
    39   18   98 1    
    40   19   20 am   BACKBONE|DICT|INTERRES
    41   19   21 2    
    42   20   99 1    
    43   20  100 1    
    44   22   23 am   BACKBONE|DICT|INTERRES
    45   22  101 1    
    46   23   24 2    
    47   23   25 1    
    48   25   26 1    
    49   25   27 1    
    50   25  102 1    
    51   26  103 1    
    52   26  104 1    
    53   26  105 1    
    54   27   28 am   BACKBONE|DICT|INTERRES
    55   27  106 1    
    56   28   29 2    
    57   28   30 1    
    58   30   31 1    
    59   30   32 1    
    60   30  107 1    
    61   31  108 1    
    62   31  109 1    
    63   31  110 1    
    64   32   33 am   BACKBONE|DICT|INTERRES
    65   32  111 1    
    66   33   34 2    
    67   33   35 1    
    68   35   36 1    
    69   35   37 1    
    70   35  112 1    
    71   36  113 1    
    72   36  114 1    
    73   36  115 1    
    74   37   38 am   BACKBONE|DICT|INTERRES
    75   37  116 1    
    76   38   39 2    
    77   38   40 1    
    78   40   41 1    
    79   40   42 1    
    80   40  117 1    
    81   41  118 1    
    82   41  119 1    
    83   41  120 1    
    84   42   43 am   BACKBONE|DICT|INTERRES
    85   42  121 1    
    86   43   44 2    
    87   43   45 1    
    88   45   46 1    
    89   45   47 1    
    90   45  122 1    
    91   46  123 1    
    92   46  124 1    
    93   46  125 1    
    94   47   48 am   BACKBONE|DICT|INTERRES
    95   47  126 1    
    96   48   49 2    
    97   48   50 1    
    98   50   51 1    
    99   50   52 1    
   100   50  127 1    
   101   51  128 1    
   102   51  129 1    
   103   51  130 1    
   104   52   53 am   BACKBONE|DICT|INTERRES
   105   52  131 1    
   106   53   54 2    
   107   53   55 1    
   108   55   56 1    
   109   55   59 1    
   110   55  132 1    
   111   56   57 1    
   112   56  133 1    
   113   56  134 1    
   114   57   58 1    
   115   58  135 1    
   116   58  136 1    
   117   59   60 am   BACKBONE|DICT|INTERRES
   118   59  137 1    
   119   60   61 2    
   120   60   62 1    
   121   62   63 1    
   122   62   64 1    
   123   62  138 1    
   124   63  139 1    
   125   63  140 1    
   126   63  141 1    
   127   64   65 am   BACKBONE|DICT|INTERRES
   128   64  142 1    
   129   65   66 2    
   130   65   67 1    
   131   67   68 1    
   132   67   69 1    
   133   67  143 1    
   134   68  144 1    
   135   68  145 1    
   136   68  146 1    
   137   69   70 am   BACKBONE|DICT|INTERRES
   138   69  147 1    
   139   70   71 2    
   140   70   72 1    
   141   72   73 1    
   142   72   74 1    
   143   72  148 1    
   144   73  149 1    
   145   73  150 1    
   146   73  151 1    
   147   74   75 am   BACKBONE|DICT|INTERRES
   148   74  152 1    
   149   75   76 2    
   150   75   77 1    
   151   77   78 1    
   152   77   79 1    
   153   77  153 1    
   154   78  154 1    
   155   78  155 1    
   156   78  156 1    
   157   79   80 am   BACKBONE|DICT|INTERRES
   158   79  157 1    
   159   80   81 2    
@<TRIPOS>SUBSTRUCTURE
     1 UNK         1 GROUP             0       ****    0 ROOT    
