@<TRIPOS>MOLECULE
3R207
157   159    1
SMALL
USER_CHARGES


@<TRIPOS>ATOM
      1 CA        -48.0922  -32.0019    4.0948 C.3       0 UNK        -0.1975 
      2 C         -48.9325  -31.0011    4.8748 C.2       0 UNK         0.4852 
      3 O         -50.0117  -30.6260    4.4164 O.2       0 UNK        -0.5216 
      4 N         -48.4456  -30.5801    6.0496 N.am      1 UNK        -0.4461 
      5 CA        -49.0807  -29.6036    6.9411 C.3       1 UNK         0.0864 
      6 C6        -48.3901  -29.5782    8.3297 C.3       14 UNK        -0.0898 
      7 S7        -48.7535  -31.0712    9.3148 S.3       14 UNK        -0.2598 
      8 C8        -49.6786  -30.3913   10.7337 C.3       14 UNK         0.0286 
      9 C9        -51.0936  -29.9792   10.3513 C.ar      14 UNK        -0.0844 
     10 C10       -51.3405  -28.6910    9.8723 C.ar      14 UNK        -0.0881 
     11 C11       -52.6295  -28.2958    9.4955 C.ar      14 UNK        -0.0643 
     12 C12       -53.6784  -29.2068    9.6336 C.ar      14 UNK        -0.0930 
     13 C13       -53.4562  -30.4916   10.1361 C.ar      14 UNK        -0.0827 
     14 C14       -52.1578  -30.8761   10.4863 C.ar      14 UNK        -0.1249 
     15 C15       -54.6192  -31.4587   10.3003 C.3       14 UNK         0.0141 
     16 S16       -55.4854  -31.1614   11.8732 S.3       14 UNK        -0.2313 
     17 C17       -57.1793  -30.7519   11.3248 C.3       14 UNK        -0.0915 
     18 CA        -57.3370  -29.3363   10.7050 C.3       13 UNK         0.0968 
     19 C         -58.8230  -29.0559   10.3506 C.2       13 UNK         0.5732 
     20 N         -59.2714  -29.4801    9.1767 N.am      13 UNK        -0.7310 
     21 O         -59.5815  -28.4980   11.1424 O.2       13 UNK        -0.5035 
     22 N         -56.7498  -28.2935   11.5564 N.am      13 UNK        -0.4233 
     23 C         -56.5324  -27.0225   11.2044 C.2       13 UNK         0.4989 
     24 O         -56.7467  -26.5832   10.0742 O.2       13 UNK        -0.4996 
     25 CA        -55.9562  -26.0721   12.2752 C.3       12 UNK         0.0216 
     26 CB        -57.0740  -25.5250   13.1841 C.3       12 UNK        -0.1964 
     27 N         -54.8410  -26.6192   13.0661 N.am      12 UNK        -0.4276 
     28 C         -54.8374  -27.6626   13.9093 C.2       12 UNK         0.5020 
     29 O         -55.8322  -28.3316   14.1924 O.2       12 UNK        -0.5489 
     30 CA        -53.4828  -28.0322   14.5248 C.3       11 UNK         0.0294 
     31 CB        -52.6039  -28.7734   13.5040 C.3       11 UNK        -0.2019 
     32 N         -52.7585  -26.8713   15.0416 N.am      11 UNK        -0.4493 
     33 C         -53.0324  -26.2550   16.2001 C.2       11 UNK         0.4932 
     34 O         -54.0083  -26.5169   16.9052 O.2       11 UNK        -0.5029 
     35 CA        -51.9957  -25.2089   16.6604 C.3       10 UNK         0.0280 
     36 CB        -52.1684  -24.7797   18.1325 C.3       10 UNK        -0.1976 
     37 N         -50.6231  -25.6623   16.3951 N.am      10 UNK        -0.4242 
     38 C         -50.0243  -26.7696   16.8653 C.2       10 UNK         0.5072 
     39 O         -50.5004  -27.4977   17.7373 O.2       10 UNK        -0.5224 
     40 CA        -48.6852  -27.1702   16.2212 C.3       9 UNK         0.0343 
     41 CB        -48.9090  -28.3004   15.2027 C.3       9 UNK        -0.2003 
     42 N         -48.0071  -26.0546   15.5572 N.am      9 UNK        -0.4272 
     43 C         -47.3186  -25.1078   16.2102 C.2       9 UNK         0.4988 
     44 O         -47.1460  -25.1040   17.4298 O.2       9 UNK        -0.5108 
     45 CA        -46.7316  -23.9645   15.3675 C.3       8 UNK         0.0248 
     46 CB        -45.4159  -24.4048   14.7067 C.3       8 UNK        -0.2001 
     47 N         -47.6581  -23.4497   14.3534 N.am      8 UNK        -0.4140 
     48 C         -48.8224  -22.8424   14.6311 C.2       8 UNK         0.5028 
     49 O         -49.2508  -22.6679   15.7719 O.2       8 UNK        -0.5428 
     50 CA        -49.6649  -22.3571   13.4414 C.3       7 UNK         0.0264 
     51 CB        -49.0835  -21.0639   12.8473 C.3       7 UNK        -0.1988 
     52 N         -49.7992  -23.3614   12.3882 N.am      7 UNK        -0.4454 
     53 C         -50.4466  -24.5299   12.5160 C.2       7 UNK         0.5027 
     54 O         -51.0242  -24.9034   13.5378 O.2       7 UNK        -0.5083 
     55 CA        -50.4216  -25.4519   11.2837 C.3       6 UNK         0.0844 
     56 C56       -51.4377  -24.9091   10.2425 C.3       14 UNK        -0.0967 
     57 S57       -51.5123  -25.8150    8.6670 S.3       14 UNK        -0.2604 
     58 C58       -52.9449  -26.9200    8.9074 C.3       14 UNK         0.0134 
     59 N         -49.0494  -25.6256   10.7802 N.am      6 UNK        -0.4116 
     60 C         -48.0165  -26.0692   11.5209 C.2       5 UNK         0.5034 
     61 O         -48.1248  -26.4787   12.6762 O.2       5 UNK        -0.5045 
     62 CA        -46.6080  -25.9764   10.9161 C.3       5 UNK         0.0224 
     63 CB        -46.2488  -27.2310   10.1064 C.3       5 UNK        -0.1978 
     64 N         -46.4381  -24.7773   10.0970 N.am      5 UNK        -0.4737 
     65 C         -46.3242  -23.5375   10.5915 C.2       4 UNK         0.5027 
     66 O         -46.3073  -23.2815   11.7945 O.2       4 UNK        -0.5211 
     67 CA        -46.2626  -22.3873    9.5726 C.3       4 UNK         0.0297 
     68 CB        -44.8269  -22.1960    9.0596 C.3       4 UNK        -0.1993 
     69 N         -47.1689  -22.5892    8.4394 N.am      4 UNK        -0.4486 
     70 C         -48.5047  -22.6161    8.5421 C.2       3 UNK         0.4961 
     71 O         -49.1129  -22.4174    9.5952 O.2       3 UNK        -0.5105 
     72 CA        -49.2927  -22.9647    7.2652 C.3       3 UNK         0.0299 
     73 CB        -49.5526  -21.6966    6.4369 C.3       3 UNK        -0.1972 
     74 N         -48.6826  -23.9945    6.4080 N.am      3 UNK        -0.4305 
     75 C         -48.2910  -25.2137    6.8078 C.2       2 UNK         0.5006 
     76 O         -48.2686  -25.5727    7.9854 O.2       2 UNK        -0.5106 
     77 CA        -47.7901  -26.1804    5.7190 C.3       2 UNK         0.0296 
     78 CB        -46.3070  -25.9123    5.4143 C.3       2 UNK        -0.2002 
     79 N         -47.9434  -27.5805    6.1311 N.am      2 UNK        -0.4032 
     80 C         -49.1224  -28.1992    6.3004 C.2       1 UNK         0.5000 
     81 O         -50.2036  -27.7121    5.9652 O.2       1 UNK        -0.5238 
     82 H82       -47.8295  -31.5919    3.1199 H         1 UNK         0.0889 
     83 H83       -48.6547  -32.9218    3.9374 H         1 UNK         0.0889 
     84 H84       -47.1689  -32.2548    4.6158 H         1 UNK         0.0889 
     85 H85       -47.5648  -30.9527    6.3741 H         1 UNK         0.3028 
     86 H86       -50.1197  -29.9094    7.0871 H         1 UNK         0.0864 
     87 H87       -47.3068  -29.5084    8.2191 H         1 UNK         0.0720 
     88 H88       -48.6791  -28.6951    8.8969 H         1 UNK         0.0720 
     89 H89       -49.1360  -29.5451   11.1594 H         1 UNK         0.0814 
     90 H90       -49.7169  -31.1472   11.5195 H         1 UNK         0.0814 
     91 H91       -50.5160  -28.0026    9.7857 H         1 UNK         0.1469 
     92 H92       -54.6738  -28.9078    9.3433 H         1 UNK         0.1381 
     93 H93       -51.9760  -31.8712   10.8688 H         1 UNK         0.1206 
     94 H94       -54.2609  -32.4890   10.2839 H         1 UNK         0.0813 
     95 H95       -55.3046  -31.3634    9.4572 H         1 UNK         0.0813 
     96 H96       -57.8277  -30.8500   12.1976 H         1 UNK         0.0638 
     97 H97       -57.5075  -31.5177   10.6196 H         1 UNK         0.0638 
     98 H98       -56.7863  -29.3233    9.7651 H         1 UNK         0.0568 
     99 H99       -60.2374  -29.3207    8.9368 H         1 UNK         0.3450 
    100 H100      -58.6655  -29.9511    8.5233 H         1 UNK         0.3450 
    101 H101      -56.5426  -28.5552   12.5176 H         1 UNK         0.2987 
    102 H102      -55.5359  -25.2222   11.7348 H         1 UNK         0.0766 
    103 H103      -56.6873  -24.7885   13.8884 H         1 UNK         0.0798 
    104 H104      -57.5578  -26.3157   13.7585 H         1 UNK         0.0798 
    105 H105      -57.8495  -25.0346   12.5942 H         1 UNK         0.0798 
    106 H106      -53.9542  -26.1575   12.9239 H         1 UNK         0.3198 
    107 H107      -53.6747  -28.7135   15.3571 H         1 UNK         0.0843 
    108 H108      -52.3277  -28.1387   12.6619 H         1 UNK         0.0831 
    109 H109      -53.1276  -29.6387   13.0962 H         1 UNK         0.0831 
    110 H110      -51.6873  -29.1438   13.9618 H         1 UNK         0.0831 
    111 H111      -51.9661  -26.5309   14.5085 H         1 UNK         0.3133 
    112 H112      -52.1512  -24.3258   16.0390 H         1 UNK         0.0566 
    113 H113      -51.4199  -24.0406   18.4182 H         1 UNK         0.0814 
    114 H114      -53.1480  -24.3284   18.2938 H         1 UNK         0.0814 
    115 H115      -52.0845  -25.6249   18.8161 H         1 UNK         0.0814 
    116 H116      -50.1451  -25.1504   15.6644 H         1 UNK         0.3091 
    117 H117      -48.0384  -27.5525   17.0139 H         1 UNK         0.0702 
    118 H118      -47.9673  -28.6348   14.7671 H         1 UNK         0.0785 
    119 H119      -49.5592  -27.9825   14.3869 H         1 UNK         0.0785 
    120 H120      -49.3757  -29.1667   15.6736 H         1 UNK         0.0785 
    121 H121      -48.0707  -26.0216   14.5421 H         1 UNK         0.2998 
    122 H122      -46.5048  -23.1403   16.0471 H         1 UNK         0.0697 
    123 H123      -45.5747  -25.2131   13.9932 H         1 UNK         0.0825 
    124 H124      -44.7047  -24.7628   15.4523 H         1 UNK         0.0825 
    125 H125      -44.9408  -23.5783   14.1780 H         1 UNK         0.0825 
    126 H126      -47.3472  -23.5014   13.3859 H         1 UNK         0.3029 
    127 H127      -50.6669  -22.1371   13.8165 H         1 UNK         0.0897 
    128 H128      -49.7246  -20.6677   12.0594 H         1 UNK         0.0792 
    129 H129      -48.9908  -20.2901   13.6105 H         1 UNK         0.0792 
    130 H130      -48.0928  -21.2231   12.4200 H         1 UNK         0.0792 
    131 H131      -49.3845  -23.1336   11.4887 H         1 UNK         0.3086 
    132 H132      -50.7639  -26.4349   11.6107 H         1 UNK         0.0583 
    133 H133      -52.4386  -24.8796   10.6769 H         1 UNK         0.1020 
    134 H134      -51.2104  -23.8733    9.9878 H         1 UNK         0.1020 
    135 H135      -53.7011  -26.4253    9.5181 H         1 UNK         0.0694 
    136 H136      -53.4005  -27.0721    7.9279 H         1 UNK         0.0694 
    137 H137      -48.8765  -25.3698    9.8114 H         1 UNK         0.2989 
    138 H138      -45.9067  -25.9171   11.7507 H         1 UNK         0.1055 
    139 H139      -46.4497  -28.1393   10.6766 H         1 UNK         0.0806 
    140 H140      -45.1901  -27.2395    9.8470 H         1 UNK         0.0806 
    141 H141      -46.8144  -27.2918    9.1796 H         1 UNK         0.0806 
    142 H142      -46.5688  -24.8925    9.1000 H         1 UNK         0.3061 
    143 H143      -46.5664  -21.4732   10.0877 H         1 UNK         0.0734 
    144 H144      -44.7529  -21.3325    8.3982 H         1 UNK         0.0832 
    145 H145      -44.1379  -22.0266    9.8884 H         1 UNK         0.0832 
    146 H146      -44.4703  -23.0704    8.5138 H         1 UNK         0.0832 
    147 H147      -46.7526  -22.7650    7.5367 H         1 UNK         0.3156 
    148 H148      -50.2599  -23.3540    7.5858 H         1 UNK         0.0589 
    149 H149      -48.6287  -21.2789    6.0347 H         1 UNK         0.0808 
    150 H150      -50.2233  -21.8976    5.6013 H         1 UNK         0.0808 
    151 H151      -50.0224  -20.9222    7.0455 H         1 UNK         0.0808 
    152 H152      -48.6388  -23.7809    5.4218 H         1 UNK         0.3098 
    153 H153      -48.3768  -26.0225    4.8117 H         1 UNK         0.0720 
    154 H154      -45.9371  -26.5747    4.6313 H         1 UNK         0.0791 
    155 H155      -45.6812  -26.0536    6.2968 H         1 UNK         0.0791 
    156 H156      -46.1545  -24.8895    5.0673 H         1 UNK         0.0791 
    157 H157      -47.1037  -28.0550    6.4259 H         1 UNK         0.3028 
@<TRIPOS>BOND
     1    1    2 1    
     2    1   82 1    
     3    1   83 1    
     4    1   84 1    
     5    2    3 2    
     6    2    4 am   BACKBONE|DICT|INTERRES
     7    4    5 1    
     8    4   85 1    
     9    5    6 1    
    10    5   80 1    
    11    5   86 1    
    12    6    7 1    
    13    6   87 1    
    14    6   88 1    
    15    7    8 1    
    16    8    9 1    
    17    8   89 1    
    18    8   90 1    
    19    9   10 ar   
    20    9   14 ar   
    21   10   11 ar   
    22   10   91 1    
    23   11   12 ar   
    24   11   58 1    
    25   12   13 ar   
    26   12   92 1    
    27   13   14 ar   
    28   13   15 1    
    29   14   93 1    
    30   15   16 1    
    31   15   94 1    
    32   15   95 1    
    33   16   17 1    
    34   17   18 1    
    35   17   96 1    
    36   17   97 1    
    37   18   19 1    
    38   18   22 1    
    39   18   98 1    
    40   19   20 am   BACKBONE|DICT|INTERRES
    41   19   21 2    
    42   20   99 1    
    43   20  100 1    
    44   22   23 am   BACKBONE|DICT|INTERRES
    45   22  101 1    
    46   23   24 2    
    47   23   25 1    
    48   25   26 1    
    49   25   27 1    
    50   25  102 1    
    51   26  103 1    
    52   26  104 1    
    53   26  105 1    
    54   27   28 am   BACKBONE|DICT|INTERRES
    55   27  106 1    
    56   28   29 2    
    57   28   30 1    
    58   30   31 1    
    59   30   32 1    
    60   30  107 1    
    61   31  108 1    
    62   31  109 1    
    63   31  110 1    
    64   32   33 am   BACKBONE|DICT|INTERRES
    65   32  111 1    
    66   33   34 2    
    67   33   35 1    
    68   35   36 1    
    69   35   37 1    
    70   35  112 1    
    71   36  113 1    
    72   36  114 1    
    73   36  115 1    
    74   37   38 am   BACKBONE|DICT|INTERRES
    75   37  116 1    
    76   38   39 2    
    77   38   40 1    
    78   40   41 1    
    79   40   42 1    
    80   40  117 1    
    81   41  118 1    
    82   41  119 1    
    83   41  120 1    
    84   42   43 am   BACKBONE|DICT|INTERRES
    85   42  121 1    
    86   43   44 2    
    87   43   45 1    
    88   45   46 1    
    89   45   47 1    
    90   45  122 1    
    91   46  123 1    
    92   46  124 1    
    93   46  125 1    
    94   47   48 am   BACKBONE|DICT|INTERRES
    95   47  126 1    
    96   48   49 2    
    97   48   50 1    
    98   50   51 1    
    99   50   52 1    
   100   50  127 1    
   101   51  128 1    
   102   51  129 1    
   103   51  130 1    
   104   52   53 am   BACKBONE|DICT|INTERRES
   105   52  131 1    
   106   53   54 2    
   107   53   55 1    
   108   55   56 1    
   109   55   59 1    
   110   55  132 1    
   111   56   57 1    
   112   56  133 1    
   113   56  134 1    
   114   57   58 1    
   115   58  135 1    
   116   58  136 1    
   117   59   60 am   BACKBONE|DICT|INTERRES
   118   59  137 1    
   119   60   61 2    
   120   60   62 1    
   121   62   63 1    
   122   62   64 1    
   123   62  138 1    
   124   63  139 1    
   125   63  140 1    
   126   63  141 1    
   127   64   65 am   BACKBONE|DICT|INTERRES
   128   64  142 1    
   129   65   66 2    
   130   65   67 1    
   131   67   68 1    
   132   67   69 1    
   133   67  143 1    
   134   68  144 1    
   135   68  145 1    
   136   68  146 1    
   137   69   70 am   BACKBONE|DICT|INTERRES
   138   69  147 1    
   139   70   71 2    
   140   70   72 1    
   141   72   73 1    
   142   72   74 1    
   143   72  148 1    
   144   73  149 1    
   145   73  150 1    
   146   73  151 1    
   147   74   75 am   BACKBONE|DICT|INTERRES
   148   74  152 1    
   149   75   76 2    
   150   75   77 1    
   151   77   78 1    
   152   77   79 1    
   153   77  153 1    
   154   78  154 1    
   155   78  155 1    
   156   78  156 1    
   157   79   80 am   BACKBONE|DICT|INTERRES
   158   79  157 1    
   159   80   81 2    
@<TRIPOS>SUBSTRUCTURE
     1 UNK         1 GROUP             0       ****    0 ROOT    
