@<TRIPOS>MOLECULE
3R207
157   159    1
SMALL
USER_CHARGES


@<TRIPOS>ATOM
      1 CA        -50.9559  -31.1381    6.0978 C.3       0 UNK        -0.1975 
      2 C         -50.1182  -30.0313    5.4751 C.2       0 UNK         0.4852 
      3 O         -49.3311  -30.2941    4.5645 O.2       0 UNK        -0.5216 
      4 N         -50.2799  -28.7934    5.9585 N.am      1 UNK        -0.4461 
      5 CA        -49.5224  -27.6151    5.5323 C.3       1 UNK         0.0864 
      6 C6        -50.2799  -26.3027    5.8718 C.3       14 UNK        -0.0898 
      7 S7        -51.4816  -25.8103    4.5904 S.3       14 UNK        -0.2598 
      8 C8        -52.8320  -27.0262    4.7608 C.3       14 UNK         0.0286 
      9 C9        -53.3980  -27.1434    6.1720 C.ar      14 UNK        -0.0844 
     10 C10       -53.7316  -26.0048    6.9157 C.ar      14 UNK        -0.0881 
     11 C11       -54.2698  -26.1269    8.2004 C.ar      14 UNK        -0.0643 
     12 C12       -54.5038  -27.3994    8.7261 C.ar      14 UNK        -0.0930 
     13 C13       -54.1466  -28.5419    8.0085 C.ar      14 UNK        -0.0827 
     14 C14       -53.6062  -28.4099    6.7276 C.ar      14 UNK        -0.1249 
     15 C15       -54.3218  -29.9109    8.6400 C.3       14 UNK         0.0141 
     16 S16       -52.8941  -30.2956    9.7010 S.3       14 UNK        -0.2313 
     17 C17       -53.5936  -31.5984   10.7722 C.3       14 UNK        -0.0915 
     18 CA        -53.8663  -31.1272   12.2282 C.3       13 UNK         0.0968 
     19 C         -52.5601  -30.9682   13.0655 C.2       13 UNK         0.5732 
     20 N         -52.3092  -29.8418   13.7241 N.am      13 UNK        -0.7310 
     21 O         -51.7608  -31.8989   13.1345 O.2       13 UNK        -0.5035 
     22 N         -54.7505  -29.9529   12.2581 N.am      13 UNK        -0.4233 
     23 C         -55.5793  -29.6475   13.2603 C.2       13 UNK         0.4989 
     24 O         -55.8193  -30.3894   14.2156 O.2       13 UNK        -0.4996 
     25 CA        -56.2461  -28.2629   13.1885 C.3       12 UNK         0.0216 
     26 CB        -57.7313  -28.3886   12.8128 C.3       12 UNK        -0.1964 
     27 N         -56.1171  -27.5455   14.4599 N.am      12 UNK        -0.4276 
     28 C         -54.9481  -27.1766   14.9990 C.2       12 UNK         0.5020 
     29 O         -53.8561  -27.3546   14.4524 O.2       12 UNK        -0.5489 
     30 CA        -55.0011  -26.5387   16.3907 C.3       11 UNK         0.0294 
     31 CB        -55.0356  -27.6349   17.4741 C.3       11 UNK        -0.2019 
     32 N         -53.8188  -25.6977   16.5518 N.am      11 UNK        -0.4493 
     33 C         -53.5887  -24.8195   17.5353 C.2       11 UNK         0.4932 
     34 O         -54.3969  -24.5738   18.4327 O.2       11 UNK        -0.5029 
     35 CA        -52.2262  -24.0948   17.5053 C.3       10 UNK         0.0280 
     36 CB        -51.8377  -23.4667   18.8606 C.3       10 UNK        -0.1976 
     37 N         -51.1486  -24.9435   16.9822 N.am      10 UNK        -0.4242 
     38 C         -50.6764  -26.0858   17.5051 C.2       10 UNK         0.5072 
     39 O         -51.0236  -26.5461   18.5935 O.2       10 UNK        -0.5224 
     40 CA        -49.6649  -26.8751   16.6549 C.3       9 UNK         0.0343 
     41 CB        -50.3899  -27.9909   15.8865 C.3       9 UNK        -0.2003 
     42 N         -48.9245  -26.0433   15.7020 N.am      9 UNK        -0.4272 
     43 C         -47.9379  -25.1999   16.0382 C.2       9 UNK         0.4988 
     44 O         -47.5101  -25.0671   17.1854 O.2       9 UNK        -0.5108 
     45 CA        -47.3409  -24.3442   14.9071 C.3       8 UNK         0.0248 
     46 CB        -46.3691  -25.1670   14.0455 C.3       8 UNK        -0.2001 
     47 N         -48.3664  -23.7424   14.0526 N.am      8 UNK        -0.4140 
     48 C         -49.2663  -22.8337   14.4578 C.2       8 UNK         0.5028 
     49 O         -49.3040  -22.3566   15.5918 O.2       8 UNK        -0.5428 
     50 CA        -50.3281  -22.4119   13.4320 C.3       7 UNK         0.0264 
     51 CB        -49.7870  -21.3161   12.5006 C.3       7 UNK        -0.1988 
     52 N         -50.7932  -23.5560   12.6458 N.am      7 UNK        -0.4454 
     53 C         -51.6250  -24.4950   13.1195 C.2       7 UNK         0.5027 
     54 O         -52.1244  -24.4519   14.2435 O.2       7 UNK        -0.5083 
     55 CA        -51.9307  -25.7042   12.2154 C.3       6 UNK         0.0844 
     56 C56       -53.2550  -25.5294   11.4388 C.3       14 UNK        -0.0967 
     57 S57       -53.1641  -24.3623   10.0326 S.3       14 UNK        -0.2604 
     58 C58       -54.5890  -24.8868    9.0227 C.3       14 UNK         0.0134 
     59 N         -50.8100  -26.0866   11.3555 N.am      6 UNK        -0.4116 
     60 C         -49.6716  -26.6229   11.8128 C.2       5 UNK         0.5034 
     61 O         -49.4422  -26.8370   13.0026 O.2       5 UNK        -0.5045 
     62 CA        -48.5841  -26.9319   10.7739 C.3       5 UNK         0.0224 
     63 CB        -48.8908  -28.2646   10.0692 C.3       5 UNK        -0.1978 
     64 N         -48.3685  -25.8777    9.7728 N.am      5 UNK        -0.4737 
     65 C         -48.1546  -24.5784   10.0322 C.2       4 UNK         0.5027 
     66 O         -48.1915  -24.0945   11.1646 O.2       4 UNK        -0.5211 
     67 CA        -47.7876  -23.6940    8.8318 C.3       4 UNK         0.0297 
     68 CB        -47.5786  -22.2141    9.2185 C.3       4 UNK        -0.1993 
     69 N         -46.5865  -24.2499    8.2133 N.am      4 UNK        -0.4486 
     70 C         -46.1176  -23.9617    6.9925 C.2       3 UNK         0.4961 
     71 O         -46.6047  -23.1190    6.2392 O.2       3 UNK        -0.5105 
     72 CA        -44.9505  -24.8270    6.5071 C.3       3 UNK         0.0299 
     73 CB        -43.6839  -24.6469    7.3654 C.3       3 UNK        -0.1972 
     74 N         -45.4109  -26.2086    6.5226 N.am      3 UNK        -0.4305 
     75 C         -44.9388  -27.2365    5.8173 C.2       2 UNK         0.5006 
     76 O         -43.9303  -27.1874    5.1123 O.2       2 UNK        -0.5106 
     77 CA        -45.7610  -28.5383    5.8907 C.3       2 UNK         0.0296 
     78 CB        -45.5879  -29.2331    7.2564 C.3       2 UNK        -0.2002 
     79 N         -47.1846  -28.3675    5.5493 N.am      2 UNK        -0.4032 
     80 C         -48.1273  -27.6528    6.1843 C.2       1 UNK         0.5000 
     81 O         -47.9335  -27.0390    7.2371 O.2       1 UNK        -0.5238 
     82 H82       -51.4789  -30.7988    6.9915 H         1 UNK         0.0889 
     83 H83       -50.3197  -31.9764    6.3805 H         1 UNK         0.0889 
     84 H84       -51.6959  -31.4967    5.3831 H         1 UNK         0.0889 
     85 H85       -50.9331  -28.6366    6.7131 H         1 UNK         0.3028 
     86 H86       -49.3755  -27.6544    4.4505 H         1 UNK         0.0864 
     87 H87       -50.7669  -26.3607    6.8468 H         1 UNK         0.0720 
     88 H88       -49.5861  -25.4622    5.9450 H         1 UNK         0.0720 
     89 H89       -52.4736  -27.9927    4.4041 H         1 UNK         0.0814 
     90 H90       -53.6412  -26.7397    4.0881 H         1 UNK         0.0814 
     91 H91       -53.5619  -25.0216    6.4982 H         1 UNK         0.1469 
     92 H92       -54.9433  -27.5047    9.7069 H         1 UNK         0.1381 
     93 H93       -53.3489  -29.2959    6.1639 H         1 UNK         0.1206 
     94 H94       -55.2428  -29.9288    9.2248 H         1 UNK         0.0813 
     95 H95       -54.4249  -30.6820    7.8749 H         1 UNK         0.0813 
     96 H96       -52.9145  -32.4527   10.7614 H         1 UNK         0.0638 
     97 H97       -54.5207  -31.9668   10.3309 H         1 UNK         0.0638 
     98 H98       -54.3999  -31.9464   12.7136 H         1 UNK         0.0568 
     99 H99       -52.9647  -29.0692   13.7393 H         1 UNK         0.3450 
    100 H100      -51.4566  -29.7774   14.2538 H         1 UNK         0.3450 
    101 H101      -54.5876  -29.2802   11.5254 H         1 UNK         0.2987 
    102 H102      -55.7481  -27.6658   12.4214 H         1 UNK         0.0766 
    103 H103      -58.2017  -27.4098   12.7162 H         1 UNK         0.0798 
    104 H104      -58.2895  -28.9586   13.5568 H         1 UNK         0.0798 
    105 H105      -57.8496  -28.8991   11.8560 H         1 UNK         0.0798 
    106 H106      -56.9654  -27.4053   14.9894 H         1 UNK         0.3198 
    107 H107      -55.8923  -25.9119   16.4625 H         1 UNK         0.0843 
    108 H108      -55.8858  -28.3034   17.3320 H         1 UNK         0.0831 
    109 H109      -55.1255  -27.2114   18.4743 H         1 UNK         0.0831 
    110 H110      -54.1325  -28.2466   17.4506 H         1 UNK         0.0831 
    111 H111      -53.1398  -25.7930   15.8021 H         1 UNK         0.3133 
    112 H112      -52.3354  -23.2793   16.7890 H         1 UNK         0.0566 
    113 H113      -50.8728  -22.9631   18.8005 H         1 UNK         0.0814 
    114 H114      -52.5723  -22.7224   19.1703 H         1 UNK         0.0814 
    115 H115      -51.7795  -24.2130   19.6533 H         1 UNK         0.0814 
    116 H116      -50.8269  -24.6882   16.0573 H         1 UNK         0.3091 
    117 H117      -48.9488  -27.3387   17.3368 H         1 UNK         0.0702 
    118 H118      -49.6864  -28.6063   15.3255 H         1 UNK         0.0785 
    119 H119      -51.1156  -27.5819   15.1819 H         1 UNK         0.0785 
    120 H120      -50.9311  -28.6495   16.5673 H         1 UNK         0.0785 
    121 H121      -49.1655  -26.1541   14.7190 H         1 UNK         0.2998 
    122 H122      -46.7780  -23.5301   15.3685 H         1 UNK         0.0697 
    123 H123      -46.8721  -25.9938   13.5437 H         1 UNK         0.0825 
    124 H124      -45.5713  -25.5923   14.6558 H         1 UNK         0.0825 
    125 H125      -45.8990  -24.5498   13.2796 H         1 UNK         0.0825 
    126 H126      -48.3806  -24.0303   13.0768 H         1 UNK         0.3029 
    127 H127      -51.1799  -22.0000   13.9785 H         1 UNK         0.0897 
    128 H128      -50.5234  -21.0303   11.7495 H         1 UNK         0.0792 
    129 H129      -49.5353  -20.4186   13.0671 H         1 UNK         0.0792 
    130 H130      -48.8818  -21.6341   11.9840 H         1 UNK         0.0792 
    131 H131      -50.3675  -23.6921   11.7386 H         1 UNK         0.3086 
    132 H132      -52.0775  -26.5451   12.8938 H         1 UNK         0.0583 
    133 H133      -53.5473  -26.5098   11.0730 H         1 UNK         0.1020 
    134 H134      -54.0595  -25.2200   12.1097 H         1 UNK         0.1020 
    135 H135      -55.4527  -25.0633    9.6657 H         1 UNK         0.0694 
    136 H136      -54.8675  -24.0670    8.3588 H         1 UNK         0.0694 
    137 H137      -50.9160  -25.9170   10.3660 H         1 UNK         0.2989 
    138 H138      -47.6470  -27.0469   11.3221 H         1 UNK         0.1055 
    139 H139      -49.0954  -29.0553   10.7929 H         1 UNK         0.0806 
    140 H140      -48.0477  -28.5966    9.4640 H         1 UNK         0.0806 
    141 H141      -49.7613  -28.1873    9.4164 H         1 UNK         0.0806 
    142 H142      -48.2916  -26.1999    8.8085 H         1 UNK         0.3061 
    143 H143      -48.6105  -23.7573    8.1166 H         1 UNK         0.0734 
    144 H144      -48.4868  -21.7973    9.6537 H         1 UNK         0.0832 
    145 H145      -46.7778  -22.0980    9.9497 H         1 UNK         0.0832 
    146 H146      -47.3329  -21.5993    8.3532 H         1 UNK         0.0832 
    147 H147      -46.1164  -24.9603    8.7586 H         1 UNK         0.3156 
    148 H148      -44.7235  -24.5425    5.4774 H         1 UNK         0.0589 
    149 H149      -43.8309  -24.9849    8.3915 H         1 UNK         0.0808 
    150 H150      -42.8448  -25.2056    6.9505 H         1 UNK         0.0808 
    151 H151      -43.3860  -23.5984    7.4037 H         1 UNK         0.0808 
    152 H152      -46.3029  -26.3696    6.9904 H         1 UNK         0.3098 
    153 H153      -45.3550  -29.2088    5.1315 H         1 UNK         0.0720 
    154 H154      -46.1233  -30.1820    7.2874 H         1 UNK         0.0791 
    155 H155      -45.9495  -28.6191    8.0814 H         1 UNK         0.0791 
    156 H156      -44.5364  -29.4474    7.4515 H         1 UNK         0.0791 
    157 H157      -47.4828  -28.8666    4.7199 H         1 UNK         0.3028 
@<TRIPOS>BOND
     1    1    2 1    
     2    1   82 1    
     3    1   83 1    
     4    1   84 1    
     5    2    3 2    
     6    2    4 am   BACKBONE|DICT|INTERRES
     7    4    5 1    
     8    4   85 1    
     9    5    6 1    
    10    5   80 1    
    11    5   86 1    
    12    6    7 1    
    13    6   87 1    
    14    6   88 1    
    15    7    8 1    
    16    8    9 1    
    17    8   89 1    
    18    8   90 1    
    19    9   10 ar   
    20    9   14 ar   
    21   10   11 ar   
    22   10   91 1    
    23   11   12 ar   
    24   11   58 1    
    25   12   13 ar   
    26   12   92 1    
    27   13   14 ar   
    28   13   15 1    
    29   14   93 1    
    30   15   16 1    
    31   15   94 1    
    32   15   95 1    
    33   16   17 1    
    34   17   18 1    
    35   17   96 1    
    36   17   97 1    
    37   18   19 1    
    38   18   22 1    
    39   18   98 1    
    40   19   20 am   BACKBONE|DICT|INTERRES
    41   19   21 2    
    42   20   99 1    
    43   20  100 1    
    44   22   23 am   BACKBONE|DICT|INTERRES
    45   22  101 1    
    46   23   24 2    
    47   23   25 1    
    48   25   26 1    
    49   25   27 1    
    50   25  102 1    
    51   26  103 1    
    52   26  104 1    
    53   26  105 1    
    54   27   28 am   BACKBONE|DICT|INTERRES
    55   27  106 1    
    56   28   29 2    
    57   28   30 1    
    58   30   31 1    
    59   30   32 1    
    60   30  107 1    
    61   31  108 1    
    62   31  109 1    
    63   31  110 1    
    64   32   33 am   BACKBONE|DICT|INTERRES
    65   32  111 1    
    66   33   34 2    
    67   33   35 1    
    68   35   36 1    
    69   35   37 1    
    70   35  112 1    
    71   36  113 1    
    72   36  114 1    
    73   36  115 1    
    74   37   38 am   BACKBONE|DICT|INTERRES
    75   37  116 1    
    76   38   39 2    
    77   38   40 1    
    78   40   41 1    
    79   40   42 1    
    80   40  117 1    
    81   41  118 1    
    82   41  119 1    
    83   41  120 1    
    84   42   43 am   BACKBONE|DICT|INTERRES
    85   42  121 1    
    86   43   44 2    
    87   43   45 1    
    88   45   46 1    
    89   45   47 1    
    90   45  122 1    
    91   46  123 1    
    92   46  124 1    
    93   46  125 1    
    94   47   48 am   BACKBONE|DICT|INTERRES
    95   47  126 1    
    96   48   49 2    
    97   48   50 1    
    98   50   51 1    
    99   50   52 1    
   100   50  127 1    
   101   51  128 1    
   102   51  129 1    
   103   51  130 1    
   104   52   53 am   BACKBONE|DICT|INTERRES
   105   52  131 1    
   106   53   54 2    
   107   53   55 1    
   108   55   56 1    
   109   55   59 1    
   110   55  132 1    
   111   56   57 1    
   112   56  133 1    
   113   56  134 1    
   114   57   58 1    
   115   58  135 1    
   116   58  136 1    
   117   59   60 am   BACKBONE|DICT|INTERRES
   118   59  137 1    
   119   60   61 2    
   120   60   62 1    
   121   62   63 1    
   122   62   64 1    
   123   62  138 1    
   124   63  139 1    
   125   63  140 1    
   126   63  141 1    
   127   64   65 am   BACKBONE|DICT|INTERRES
   128   64  142 1    
   129   65   66 2    
   130   65   67 1    
   131   67   68 1    
   132   67   69 1    
   133   67  143 1    
   134   68  144 1    
   135   68  145 1    
   136   68  146 1    
   137   69   70 am   BACKBONE|DICT|INTERRES
   138   69  147 1    
   139   70   71 2    
   140   70   72 1    
   141   72   73 1    
   142   72   74 1    
   143   72  148 1    
   144   73  149 1    
   145   73  150 1    
   146   73  151 1    
   147   74   75 am   BACKBONE|DICT|INTERRES
   148   74  152 1    
   149   75   76 2    
   150   75   77 1    
   151   77   78 1    
   152   77   79 1    
   153   77  153 1    
   154   78  154 1    
   155   78  155 1    
   156   78  156 1    
   157   79   80 am   BACKBONE|DICT|INTERRES
   158   79  157 1    
   159   80   81 2    
@<TRIPOS>SUBSTRUCTURE
     1 UNK         1 GROUP             0       ****    0 ROOT    
