@<TRIPOS>MOLECULE
3R207
157   159    1
SMALL
USER_CHARGES


@<TRIPOS>ATOM
      1 CA        -49.2904  -29.6716    3.4526 C.3       0 UNK        -0.1975 
      2 C         -49.2800  -28.3751    4.2468 C.2       0 UNK         0.4852 
      3 O         -48.3296  -28.1219    4.9878 O.2       0 UNK        -0.5216 
      4 N         -50.3232  -27.5435    4.0866 N.am      1 UNK        -0.4461 
      5 CA        -50.5564  -26.2789    4.8096 C.3       1 UNK         0.0864 
      6 C6        -50.9018  -26.5080    6.3077 C.3       14 UNK        -0.0898 
      7 S7        -52.5107  -27.3295    6.5632 S.3       14 UNK        -0.2598 
      8 C8        -52.0645  -29.0865    6.7341 C.3       14 UNK         0.0286 
      9 C9        -51.3952  -29.4214    8.0612 C.ar      14 UNK        -0.0844 
     10 C10       -50.0066  -29.5647    8.1342 C.ar      14 UNK        -0.0881 
     11 C11       -49.3953  -29.9889    9.3179 C.ar      14 UNK        -0.0643 
     12 C12       -50.1836  -30.2558   10.4430 C.ar      14 UNK        -0.0930 
     13 C13       -51.5745  -30.1124   10.3847 C.ar      14 UNK        -0.0827 
     14 C14       -52.1717  -29.6829    9.1945 C.ar      14 UNK        -0.1249 
     15 C15       -52.4422  -30.4965   11.5769 C.3       14 UNK         0.0141 
     16 S16       -52.4884  -29.2005   12.8507 S.3       14 UNK        -0.2313 
     17 C17       -53.8811  -29.7760   13.8761 C.3       14 UNK        -0.0915 
     18 CA        -55.1798  -28.9755   13.5840 C.3       13 UNK         0.0968 
     19 C         -56.4420  -29.6668   14.1840 C.2       13 UNK         0.5732 
     20 N         -57.3626  -28.9623   14.8325 N.am      13 UNK        -0.7310 
     21 O         -56.6040  -30.8771   14.0463 O.2       13 UNK        -0.5035 
     22 N         -55.0298  -27.5646   13.9703 N.am      13 UNK        -0.4233 
     23 C         -55.6608  -26.5314   13.4052 C.2       13 UNK         0.4989 
     24 O         -56.3902  -26.6291   12.4156 O.2       13 UNK        -0.4996 
     25 CA        -55.4914  -25.1755   14.1224 C.3       12 UNK         0.0216 
     26 CB        -56.2041  -24.0162   13.3951 C.3       12 UNK        -0.1964 
     27 N         -55.9103  -25.2334   15.5312 N.am      12 UNK        -0.4276 
     28 C         -57.0948  -25.6385   16.0149 C.2       12 UNK         0.5020 
     29 O         -58.0312  -26.0194   15.3109 O.2       12 UNK        -0.5489 
     30 CA        -57.2237  -25.6963   17.5482 C.3       11 UNK         0.0294 
     31 CB        -58.6286  -26.1245   18.0135 C.3       11 UNK        -0.2019 
     32 N         -56.2395  -26.6363   18.0849 N.am      11 UNK        -0.4493 
     33 C         -54.9852  -26.3157   18.4213 C.2       11 UNK         0.4932 
     34 O         -54.5700  -25.1552   18.4402 O.2       11 UNK        -0.5029 
     35 CA        -54.0208  -27.4732   18.7582 C.3       10 UNK         0.0280 
     36 CB        -54.5386  -28.8677   18.3312 C.3       10 UNK        -0.1976 
     37 N         -52.6803  -27.2391   18.2050 N.am      10 UNK        -0.4242 
     38 C         -52.3728  -27.0264   16.9165 C.2       10 UNK         0.5072 
     39 O         -53.1938  -27.0474   15.9965 O.2       10 UNK        -0.5224 
     40 CA        -50.8845  -26.7924   16.6094 C.3       9 UNK         0.0343 
     41 CB        -50.1798  -28.1367   16.3696 C.3       9 UNK        -0.2003 
     42 N         -50.6852  -25.9250   15.4446 N.am      9 UNK        -0.4272 
     43 C         -50.9905  -24.6171   15.4132 C.2       9 UNK         0.4988 
     44 O         -51.4360  -24.0052   16.3853 O.2       9 UNK        -0.5108 
     45 CA        -50.7361  -23.8302   14.1112 C.3       8 UNK         0.0248 
     46 CB        -49.6154  -22.7958   14.3118 C.3       8 UNK        -0.2001 
     47 N         -50.3893  -24.6782   12.9725 N.am      8 UNK        -0.4140 
     48 C         -51.2645  -25.3856   12.2464 C.2       8 UNK         0.5028 
     49 O         -52.4837  -25.3229   12.3986 O.2       8 UNK        -0.5428 
     50 CA        -50.6875  -26.3252   11.1731 C.3       7 UNK         0.0264 
     51 CB        -50.9139  -25.7599    9.7673 C.3       7 UNK        -0.1988 
     52 N         -49.2640  -26.6292   11.3404 N.am      7 UNK        -0.4454 
     53 C         -48.7426  -27.3449   12.3470 C.2       7 UNK         0.5027 
     54 O         -49.4025  -27.7815   13.2872 O.2       7 UNK        -0.5083 
     55 CA        -47.2184  -27.5676   12.3323 C.3       6 UNK         0.0844 
     56 C56       -46.8281  -28.8641   11.5842 C.3       14 UNK        -0.0967 
     57 S57       -46.9511  -28.7368    9.7649 S.3       14 UNK        -0.2604 
     58 C58       -47.8931  -30.2331    9.3412 C.3       14 UNK         0.0134 
     59 N         -46.4935  -26.3965   11.8344 N.am      6 UNK        -0.4116 
     60 C         -46.3858  -25.2352   12.4910 C.2       5 UNK         0.5034 
     61 O         -46.8461  -25.0343   13.6147 O.2       5 UNK        -0.5045 
     62 CA        -45.6673  -24.0970   11.7530 C.3       5 UNK         0.0224 
     63 CB        -44.1422  -24.2451   11.8734 C.3       5 UNK        -0.1978 
     64 N         -46.0388  -23.9919   10.3385 N.am      5 UNK        -0.4737 
     65 C         -47.2572  -23.6847    9.8800 C.2       4 UNK         0.5027 
     66 O         -48.2399  -23.5544   10.6087 O.2       4 UNK        -0.5211 
     67 CA        -47.4113  -23.4483    8.3658 C.3       4 UNK         0.0297 
     68 CB        -46.8301  -22.0783    7.9687 C.3       4 UNK        -0.1993 
     69 N         -46.9026  -24.5039    7.4780 N.am      4 UNK        -0.4486 
     70 C         -45.6523  -24.9712    7.3259 C.2       3 UNK         0.4961 
     71 O         -44.6942  -24.6281    8.0194 O.2       3 UNK        -0.5105 
     72 CA        -45.4167  -25.9779    6.1820 C.3       3 UNK         0.0299 
     73 CB        -45.5378  -27.4189    6.6971 C.3       3 UNK        -0.1972 
     74 N         -46.3276  -25.7914    5.0486 N.am      3 UNK        -0.4305 
     75 C         -46.3221  -24.7176    4.2406 C.2       2 UNK         0.5006 
     76 O         -45.4680  -23.8318    4.2946 O.2       2 UNK        -0.5106 
     77 CA        -47.4611  -24.5812    3.2082 C.3       2 UNK         0.0296 
     78 CB        -46.9622  -24.9682    1.8062 C.3       2 UNK        -0.2002 
     79 N         -48.6660  -25.3581    3.5167 N.am      2 UNK        -0.4032 
     80 C         -49.4085  -25.2527    4.6301 C.2       1 UNK         0.5000 
     81 O         -49.1844  -24.4166    5.5079 O.2       1 UNK        -0.5238 
     82 H82       -48.4197  -29.7176    2.7992 H         1 UNK         0.0889 
     83 H83       -50.1844  -29.7666    2.8366 H         1 UNK         0.0889 
     84 H84       -49.2531  -30.5239    4.1306 H         1 UNK         0.0889 
     85 H85       -51.0605  -27.8058    3.4464 H         1 UNK         0.3028 
     86 H86       -51.4230  -25.8129    4.3380 H         1 UNK         0.0864 
     87 H87       -50.9813  -25.5544    6.8319 H         1 UNK         0.0720 
     88 H88       -50.1075  -27.0612    6.8086 H         1 UNK         0.0720 
     89 H89       -51.4335  -29.3918    5.9005 H         1 UNK         0.0814 
     90 H90       -52.9762  -29.6782    6.6391 H         1 UNK         0.0814 
     91 H91       -49.3999  -29.3818    7.2575 H         1 UNK         0.1469 
     92 H92       -49.7207  -30.6019   11.3567 H         1 UNK         0.1381 
     93 H93       -53.2477  -29.5899    9.1358 H         1 UNK         0.1206 
     94 H94       -52.0699  -31.4208   12.0211 H         1 UNK         0.0813 
     95 H95       -53.4598  -30.7063   11.2436 H         1 UNK         0.0813 
     96 H96       -53.6013  -29.6783   14.9264 H         1 UNK         0.0638 
     97 H97       -54.0208  -30.8439   13.6998 H         1 UNK         0.0638 
     98 H98       -55.3383  -29.0090   12.5047 H         1 UNK         0.0568 
     99 H99       -58.1698  -29.4420   15.1965 H         1 UNK         0.3450 
    100 H100      -57.3159  -27.9527   14.8832 H         1 UNK         0.3450 
    101 H101      -54.4102  -27.3859   14.7610 H         1 UNK         0.2987 
    102 H102      -54.4227  -24.9575   14.1300 H         1 UNK         0.0766 
    103 H103      -56.0226  -23.0642   13.8937 H         1 UNK         0.0798 
    104 H104      -57.2828  -24.1700   13.3465 H         1 UNK         0.0798 
    105 H105      -55.8410  -23.9202   12.3711 H         1 UNK         0.0798 
    106 H106      -55.1887  -25.0146   16.2086 H         1 UNK         0.3198 
    107 H107      -57.0373  -24.6914   17.9340 H         1 UNK         0.0843 
    108 H108      -58.8883  -27.1227   17.6584 H         1 UNK         0.0831 
    109 H109      -59.3888  -25.4375   17.6392 H         1 UNK         0.0831 
    110 H110      -58.7024  -26.1259   19.1011 H         1 UNK         0.0831 
    111 H111      -56.4934  -27.6137   18.0636 H         1 UNK         0.3133 
    112 H112      -53.9109  -27.4747   19.8434 H         1 UNK         0.0566 
    113 H113      -53.8026  -29.6413   18.5508 H         1 UNK         0.0814 
    114 H114      -55.4473  -29.1393   18.8696 H         1 UNK         0.0814 
    115 H115      -54.7543  -28.9168   17.2627 H         1 UNK         0.0814 
    116 H116      -51.9363  -27.1780   18.8860 H         1 UNK         0.3091 
    117 H117      -50.4209  -26.3056   17.4700 H         1 UNK         0.0702 
    118 H118      -49.1207  -27.9985   16.1513 H         1 UNK         0.0785 
    119 H119      -50.6265  -28.6776   15.5337 H         1 UNK         0.0785 
    120 H120      -50.2498  -28.7803   17.2473 H         1 UNK         0.0785 
    121 H121      -50.3561  -26.3784   14.5998 H         1 UNK         0.2998 
    122 H122      -51.6559  -23.2915   13.8737 H         1 UNK         0.0697 
    123 H123      -48.6746  -23.2704   14.5926 H         1 UNK         0.0825 
    124 H124      -49.8719  -22.0895   15.1025 H         1 UNK         0.0825 
    125 H125      -49.4410  -22.2167   13.4045 H         1 UNK         0.0825 
    126 H126      -49.4067  -24.7650   12.7506 H         1 UNK         0.3029 
    127 H127      -51.2322  -27.2666   11.2387 H         1 UNK         0.0897 
    128 H128      -51.9761  -25.6045    9.5738 H         1 UNK         0.0792 
    129 H129      -50.5484  -26.4621    9.0212 H         1 UNK         0.0792 
    130 H130      -50.4074  -24.8061    9.6200 H         1 UNK         0.0792 
    131 H131      -48.6413  -26.2867   10.6241 H         1 UNK         0.3086 
    132 H132      -46.9218  -27.7056   13.3748 H         1 UNK         0.0583 
    133 H133      -45.7943  -29.1179   11.8235 H         1 UNK         0.1020 
    134 H134      -47.4206  -29.7047   11.9502 H         1 UNK         0.1020 
    135 H135      -47.5673  -30.5707    8.3560 H         1 UNK         0.0694 
    136 H136      -47.6447  -31.0449   10.0264 H         1 UNK         0.0694 
    137 H137      -46.0928  -26.4755   10.9108 H         1 UNK         0.2989 
    138 H138      -45.9589  -23.1634   12.2396 H         1 UNK         0.1055 
    139 H139      -43.8371  -24.3165   12.9185 H         1 UNK         0.0806 
    140 H140      -43.6264  -23.3854   11.4451 H         1 UNK         0.0806 
    141 H141      -43.7800  -25.1394   11.3646 H         1 UNK         0.0806 
    142 H142      -45.3060  -24.1245    9.6425 H         1 UNK         0.3061 
    143 H143      -48.4847  -23.4091    8.1719 H         1 UNK         0.0734 
    144 H144      -47.0466  -21.8464    6.9257 H         1 UNK         0.0832 
    145 H145      -47.2615  -21.2803    8.5746 H         1 UNK         0.0832 
    146 H146      -45.7485  -22.0395    8.1020 H         1 UNK         0.0832 
    147 H147      -47.5967  -24.8423    6.8199 H         1 UNK         0.3156 
    148 H148      -44.3964  -25.8319    5.8211 H         1 UNK         0.0589 
    149 H149      -46.5525  -27.6405    7.0292 H         1 UNK         0.0808 
    150 H150      -45.2771  -28.1410    5.9233 H         1 UNK         0.0808 
    151 H151      -44.8703  -27.5925    7.5424 H         1 UNK         0.0808 
    152 H152      -47.0494  -26.4963    4.9295 H         1 UNK         0.3098 
    153 H153      -47.7507  -23.5285    3.1908 H         1 UNK         0.0720 
    154 H154      -47.7225  -24.7822    1.0474 H         1 UNK         0.0791 
    155 H155      -46.6835  -26.0216    1.7540 H         1 UNK         0.0791 
    156 H156      -46.0829  -24.3847    1.5291 H         1 UNK         0.0791 
    157 H157      -48.9179  -26.0782    2.8555 H         1 UNK         0.3028 
@<TRIPOS>BOND
     1    1    2 1    
     2    1   82 1    
     3    1   83 1    
     4    1   84 1    
     5    2    3 2    
     6    2    4 am   BACKBONE|DICT|INTERRES
     7    4    5 1    
     8    4   85 1    
     9    5    6 1    
    10    5   80 1    
    11    5   86 1    
    12    6    7 1    
    13    6   87 1    
    14    6   88 1    
    15    7    8 1    
    16    8    9 1    
    17    8   89 1    
    18    8   90 1    
    19    9   10 ar   
    20    9   14 ar   
    21   10   11 ar   
    22   10   91 1    
    23   11   12 ar   
    24   11   58 1    
    25   12   13 ar   
    26   12   92 1    
    27   13   14 ar   
    28   13   15 1    
    29   14   93 1    
    30   15   16 1    
    31   15   94 1    
    32   15   95 1    
    33   16   17 1    
    34   17   18 1    
    35   17   96 1    
    36   17   97 1    
    37   18   19 1    
    38   18   22 1    
    39   18   98 1    
    40   19   20 am   BACKBONE|DICT|INTERRES
    41   19   21 2    
    42   20   99 1    
    43   20  100 1    
    44   22   23 am   BACKBONE|DICT|INTERRES
    45   22  101 1    
    46   23   24 2    
    47   23   25 1    
    48   25   26 1    
    49   25   27 1    
    50   25  102 1    
    51   26  103 1    
    52   26  104 1    
    53   26  105 1    
    54   27   28 am   BACKBONE|DICT|INTERRES
    55   27  106 1    
    56   28   29 2    
    57   28   30 1    
    58   30   31 1    
    59   30   32 1    
    60   30  107 1    
    61   31  108 1    
    62   31  109 1    
    63   31  110 1    
    64   32   33 am   BACKBONE|DICT|INTERRES
    65   32  111 1    
    66   33   34 2    
    67   33   35 1    
    68   35   36 1    
    69   35   37 1    
    70   35  112 1    
    71   36  113 1    
    72   36  114 1    
    73   36  115 1    
    74   37   38 am   BACKBONE|DICT|INTERRES
    75   37  116 1    
    76   38   39 2    
    77   38   40 1    
    78   40   41 1    
    79   40   42 1    
    80   40  117 1    
    81   41  118 1    
    82   41  119 1    
    83   41  120 1    
    84   42   43 am   BACKBONE|DICT|INTERRES
    85   42  121 1    
    86   43   44 2    
    87   43   45 1    
    88   45   46 1    
    89   45   47 1    
    90   45  122 1    
    91   46  123 1    
    92   46  124 1    
    93   46  125 1    
    94   47   48 am   BACKBONE|DICT|INTERRES
    95   47  126 1    
    96   48   49 2    
    97   48   50 1    
    98   50   51 1    
    99   50   52 1    
   100   50  127 1    
   101   51  128 1    
   102   51  129 1    
   103   51  130 1    
   104   52   53 am   BACKBONE|DICT|INTERRES
   105   52  131 1    
   106   53   54 2    
   107   53   55 1    
   108   55   56 1    
   109   55   59 1    
   110   55  132 1    
   111   56   57 1    
   112   56  133 1    
   113   56  134 1    
   114   57   58 1    
   115   58  135 1    
   116   58  136 1    
   117   59   60 am   BACKBONE|DICT|INTERRES
   118   59  137 1    
   119   60   61 2    
   120   60   62 1    
   121   62   63 1    
   122   62   64 1    
   123   62  138 1    
   124   63  139 1    
   125   63  140 1    
   126   63  141 1    
   127   64   65 am   BACKBONE|DICT|INTERRES
   128   64  142 1    
   129   65   66 2    
   130   65   67 1    
   131   67   68 1    
   132   67   69 1    
   133   67  143 1    
   134   68  144 1    
   135   68  145 1    
   136   68  146 1    
   137   69   70 am   BACKBONE|DICT|INTERRES
   138   69  147 1    
   139   70   71 2    
   140   70   72 1    
   141   72   73 1    
   142   72   74 1    
   143   72  148 1    
   144   73  149 1    
   145   73  150 1    
   146   73  151 1    
   147   74   75 am   BACKBONE|DICT|INTERRES
   148   74  152 1    
   149   75   76 2    
   150   75   77 1    
   151   77   78 1    
   152   77   79 1    
   153   77  153 1    
   154   78  154 1    
   155   78  155 1    
   156   78  156 1    
   157   79   80 am   BACKBONE|DICT|INTERRES
   158   79  157 1    
   159   80   81 2    
@<TRIPOS>SUBSTRUCTURE
     1 UNK         1 GROUP             0       ****    0 ROOT    
