@<TRIPOS>MOLECULE
3R207
157   159    1
SMALL
USER_CHARGES


@<TRIPOS>ATOM
      1 CA        -48.8472  -31.2891   11.5978 C.3       0 UNK        -0.1975 
      2 C         -48.4042  -30.2937   10.5350 C.2       0 UNK         0.4852 
      3 O         -48.2888  -29.1070   10.8354 O.2       0 UNK        -0.5216 
      4 N         -48.1610  -30.7795    9.3081 N.am      1 UNK        -0.4461 
      5 CA        -47.7044  -30.0426    8.1191 C.3       1 UNK         0.0864 
      6 C6        -48.8544  -29.3798    7.3001 C.3       14 UNK        -0.0898 
      7 S7        -49.7810  -28.0359    8.1207 S.3       14 UNK        -0.2598 
      8 C8        -51.1778  -27.8723    6.9690 C.3       14 UNK         0.0286 
      9 C9        -52.2722  -26.9973    7.5559 C.ar      14 UNK        -0.0844 
     10 C10       -52.2343  -25.6103    7.3907 C.ar      14 UNK        -0.0881 
     11 C11       -53.2348  -24.8010    7.9410 C.ar      14 UNK        -0.0643 
     12 C12       -54.2906  -25.3975    8.6398 C.ar      14 UNK        -0.0930 
     13 C13       -54.3482  -26.7859    8.7949 C.ar      14 UNK        -0.0827 
     14 C14       -53.3330  -27.5794    8.2545 C.ar      14 UNK        -0.1249 
     15 C15       -55.5275  -27.4346    9.5046 C.3       14 UNK         0.0141 
     16 S16       -55.4556  -27.2239   11.3106 S.3       14 UNK        -0.2313 
     17 C17       -56.9030  -28.2253   11.8030 C.3       14 UNK        -0.0915 
     18 CA        -56.5848  -29.4111   12.7562 C.3       13 UNK         0.0968 
     19 C         -55.6212  -30.4800   12.1682 C.2       13 UNK         0.5732 
     20 N         -54.6943  -31.0325   12.9415 N.am      13 UNK        -0.7310 
     21 O         -55.7383  -30.8445   11.0007 O.2       13 UNK        -0.5035 
     22 N         -56.2274  -28.9522   14.1084 N.am      13 UNK        -0.4233 
     23 C         -57.1070  -28.8037   15.1082 C.2       13 UNK         0.4989 
     24 O         -58.3120  -29.0386   14.9920 O.2       13 UNK        -0.4996 
     25 CA        -56.5716  -28.2874   16.4591 C.3       12 UNK         0.0216 
     26 CB        -57.5126  -28.6059   17.6414 C.3       12 UNK        -0.1964 
     27 N         -55.2008  -28.7096   16.7634 N.am      12 UNK        -0.4276 
     28 C         -54.7325  -29.9588   16.9186 C.2       12 UNK         0.5020 
     29 O         -55.4314  -30.9675   16.8152 O.2       12 UNK        -0.5489 
     30 CA        -53.2283  -30.1197   17.2247 C.3       11 UNK         0.0294 
     31 CB        -52.5699  -31.1438   16.2820 C.3       11 UNK        -0.2019 
     32 N         -52.5088  -28.8496   17.1104 N.am      11 UNK        -0.4493 
     33 C         -52.2334  -28.0147   18.1221 C.2       11 UNK         0.4932 
     34 O         -52.4528  -28.2744   19.3049 O.2       11 UNK        -0.5029 
     35 CA        -51.6522  -26.6377   17.7479 C.3       10 UNK         0.0280 
     36 CB        -50.1243  -26.6347   17.9123 C.3       10 UNK        -0.1976 
     37 N         -52.0091  -26.2228   16.3849 N.am      10 UNK        -0.4242 
     38 C         -53.2514  -25.8703   16.0113 C.2       10 UNK         0.5072 
     39 O         -54.1953  -25.7980   16.7977 O.2       10 UNK        -0.5224 
     40 CA        -53.5209  -25.6286   14.5140 C.3       9 UNK         0.0343 
     41 CB        -53.4323  -24.1317   14.1835 C.3       9 UNK        -0.2003 
     42 N         -52.6279  -26.3842   13.6335 N.am      9 UNK        -0.4272 
     43 C         -52.5796  -27.7248   13.5755 C.2       9 UNK         0.4988 
     44 O         -53.3510  -28.4515   14.2036 O.2       9 UNK        -0.5108 
     45 CA        -51.4672  -28.3766   12.7306 C.3       8 UNK         0.0248 
     46 CB        -52.0241  -28.7800   11.3585 C.3       8 UNK        -0.2001 
     47 N         -50.2849  -27.5368   12.5221 N.am      8 UNK        -0.4140 
     48 C         -49.5533  -26.9280   13.4660 C.2       8 UNK         0.5028 
     49 O         -49.7343  -27.0773   14.6745 O.2       8 UNK        -0.5428 
     50 CA        -48.5142  -25.8978   12.9827 C.3       7 UNK         0.0264 
     51 CB        -47.1049  -26.5075   12.9270 C.3       7 UNK        -0.1988 
     52 N         -48.8388  -25.2784   11.6893 N.am      7 UNK        -0.4454 
     53 C         -49.9540  -24.5742   11.4317 C.2       7 UNK         0.5027 
     54 O         -50.8504  -24.4048   12.2598 O.2       7 UNK        -0.5083 
     55 CA        -50.0864  -23.9764   10.0142 C.3       6 UNK         0.0844 
     56 C56       -51.3198  -23.0411    9.8709 C.3       14 UNK        -0.0967 
     57 S57       -51.5865  -22.5298    8.1383 S.3       14 UNK        -0.2604 
     58 C58       -53.2045  -23.2858    7.7610 C.3       14 UNK         0.0134 
     59 N         -48.8348  -23.3528    9.5621 N.am      6 UNK        -0.4116 
     60 C         -48.2029  -22.3121   10.1292 C.2       5 UNK         0.5034 
     61 O         -48.5770  -21.7512   11.1595 O.2       5 UNK        -0.5045 
     62 CA        -46.9260  -21.8082    9.4330 C.3       5 UNK         0.0224 
     63 CB        -45.6747  -22.3118   10.1707 C.3       5 UNK        -0.1978 
     64 N         -46.8495  -22.2006    8.0218 N.am      5 UNK        -0.4737 
     65 C         -47.5139  -21.5911    7.0296 C.2       4 UNK         0.5027 
     66 O         -48.2352  -20.6091    7.2072 O.2       4 UNK        -0.5211 
     67 CA        -47.3836  -22.1836    5.6107 C.3       4 UNK         0.0297 
     68 CB        -47.2282  -21.0881    4.5345 C.3       4 UNK        -0.1993 
     69 N         -46.3479  -23.2183    5.4692 N.am      4 UNK        -0.4486 
     70 C         -45.0173  -23.0822    5.5510 C.2       3 UNK         0.4961 
     71 O         -44.4455  -22.0201    5.7994 O.2       3 UNK        -0.5105 
     72 CA        -44.1991  -24.3746    5.3565 C.3       3 UNK         0.0299 
     73 CB        -42.6985  -24.0940    5.1516 C.3       3 UNK        -0.1972 
     74 N         -44.3575  -25.3066    6.4777 N.am      3 UNK        -0.4305 
     75 C         -45.4472  -26.0407    6.7358 C.2       2 UNK         0.5006 
     76 O         -46.4809  -25.9987    6.0610 O.2       2 UNK        -0.5106 
     77 CA        -45.3770  -26.9550    7.9638 C.3       2 UNK         0.0296 
     78 CB        -45.4972  -26.1512    9.2707 C.3       2 UNK        -0.2002 
     79 N         -46.4671  -27.9200    7.8847 N.am      2 UNK        -0.4032 
     80 C         -46.4587  -29.1610    8.3805 C.2       1 UNK         0.5000 
     81 O         -45.4997  -29.6421    8.9915 O.2       1 UNK        -0.5238 
     82 H82       -48.8407  -32.3139   11.2272 H         1 UNK         0.0889 
     83 H83       -49.8568  -31.0558   11.9334 H         1 UNK         0.0889 
     84 H84       -48.1821  -31.2360   12.4592 H         1 UNK         0.0889 
     85 H85       -48.2591  -31.7747    9.1657 H         1 UNK         0.3028 
     86 H86       -47.3126  -30.8268    7.4693 H         1 UNK         0.0864 
     87 H87       -49.5719  -30.1573    7.0338 H         1 UNK         0.0720 
     88 H88       -48.4767  -29.0067    6.3462 H         1 UNK         0.0720 
     89 H89       -51.5804  -28.8594    6.7366 H         1 UNK         0.0814 
     90 H90       -50.8233  -27.4540    6.0257 H         1 UNK         0.0814 
     91 H91       -51.4192  -25.1585    6.8421 H         1 UNK         0.1469 
     92 H92       -55.0780  -24.7843    9.0567 H         1 UNK         0.1381 
     93 H93       -53.3688  -28.6537    8.3755 H         1 UNK         0.1206 
     94 H94       -55.5665  -28.5004    9.2726 H         1 UNK         0.0813 
     95 H95       -56.4572  -27.0042    9.1295 H         1 UNK         0.0813 
     96 H96       -57.4074  -28.6012   10.9114 H         1 UNK         0.0638 
     97 H97       -57.6239  -27.5571   12.2761 H         1 UNK         0.0638 
     98 H98       -57.5136  -29.9777   12.8404 H         1 UNK         0.0568 
     99 H99       -54.5964  -30.7538   13.9038 H         1 UNK         0.3450 
    100 H100      -54.0907  -31.7389   12.5537 H         1 UNK         0.3450 
    101 H101      -55.2438  -28.7383   14.2538 H         1 UNK         0.2987 
    102 H102      -56.5335  -27.2018   16.3600 H         1 UNK         0.0766 
    103 H103      -58.4983  -28.1642   17.4901 H         1 UNK         0.0798 
    104 H104      -57.1224  -28.2060   18.5774 H         1 UNK         0.0798 
    105 H105      -57.6535  -29.6799   17.7679 H         1 UNK         0.0798 
    106 H106      -54.5414  -27.9476   16.8635 H         1 UNK         0.3198 
    107 H107      -53.1495  -30.5001   18.2453 H         1 UNK         0.0843 
    108 H108      -52.6326  -30.8359   15.2382 H         1 UNK         0.0831 
    109 H109      -53.0500  -32.1199   16.3637 H         1 UNK         0.0831 
    110 H110      -51.5166  -31.2838   16.5253 H         1 UNK         0.0831 
    111 H111      -52.3236  -28.5389   16.1646 H         1 UNK         0.3133 
    112 H112      -52.0663  -25.9036   18.4423 H         1 UNK         0.0566 
    113 H113      -49.6958  -25.6683   17.6462 H         1 UNK         0.0814 
    114 H114      -49.6487  -27.3956   17.2927 H         1 UNK         0.0814 
    115 H115      -49.8453  -26.8400   18.9466 H         1 UNK         0.0814 
    116 H116      -51.2816  -26.3148   15.6799 H         1 UNK         0.3091 
    117 H117      -54.5404  -25.9613   14.3065 H         1 UNK         0.0702 
    118 H118      -53.6664  -23.9430   13.1354 H         1 UNK         0.0785 
    119 H119      -52.4362  -23.7338   14.3812 H         1 UNK         0.0785 
    120 H120      -54.1391  -23.5569   14.7834 H         1 UNK         0.0785 
    121 H121      -51.9620  -25.8396   13.0931 H         1 UNK         0.2998 
    122 H122      -51.1417  -29.2754   13.2569 H         1 UNK         0.0697 
    123 H123      -52.3455  -27.9035   10.7964 H         1 UNK         0.0825 
    124 H124      -52.8880  -29.4363   11.4580 H         1 UNK         0.0825 
    125 H125      -51.2838  -29.3070   10.7575 H         1 UNK         0.0825 
    126 H126      -50.0001  -27.4015   11.5618 H         1 UNK         0.3029 
    127 H127      -48.5029  -25.0971   13.7253 H         1 UNK         0.0897 
    128 H128      -47.0244  -27.2753   12.1581 H         1 UNK         0.0792 
    129 H129      -46.8433  -26.9718   13.8788 H         1 UNK         0.0792 
    130 H130      -46.3514  -25.7471   12.7211 H         1 UNK         0.0792 
    131 H131      -48.1580  -25.3883   10.9531 H         1 UNK         0.3086 
    132 H132      -50.2482  -24.8341    9.3597 H         1 UNK         0.0583 
    133 H133      -52.2219  -23.5344   10.2381 H         1 UNK         0.1020 
    134 H134      -51.2008  -22.1472   10.4853 H         1 UNK         0.1020 
    135 H135      -53.9606  -22.8079    8.3861 H         1 UNK         0.0694 
    136 H136      -53.4667  -23.0523    6.7285 H         1 UNK         0.0694 
    137 H137      -48.4512  -23.7163    8.7031 H         1 UNK         0.2989 
    138 H138      -46.9355  -20.7170    9.4899 H         1 UNK         0.1055 
    139 H139      -45.6319  -23.3992   10.2057 H         1 UNK         0.0806 
    140 H140      -45.6645  -21.9565   11.2022 H         1 UNK         0.0806 
    141 H141      -44.7609  -21.9517    9.6974 H         1 UNK         0.0806 
    142 H142      -46.2445  -22.9724    7.7838 H         1 UNK         0.3061 
    143 H143      -48.3307  -22.6911    5.4209 H         1 UNK         0.0734 
    144 H144      -46.3379  -20.4805    4.6987 H         1 UNK         0.0832 
    145 H145      -47.1626  -21.5184    3.5353 H         1 UNK         0.0832 
    146 H146      -48.0841  -20.4120    4.5376 H         1 UNK         0.0832 
    147 H147      -46.6915  -24.1695    5.3569 H         1 UNK         0.3156 
    148 H148      -44.5685  -24.8596    4.4502 H         1 UNK         0.0589 
    149 H149      -42.1496  -25.0097    4.9309 H         1 UNK         0.0808 
    150 H150      -42.5398  -23.4143    4.3131 H         1 UNK         0.0808 
    151 H151      -42.2467  -23.6354    6.0322 H         1 UNK         0.0808 
    152 H152      -43.5674  -25.3847    7.1026 H         1 UNK         0.3098 
    153 H153      -44.4208  -27.4822    7.9409 H         1 UNK         0.0720 
    154 H154      -44.6733  -25.4447    9.3753 H         1 UNK         0.0791 
    155 H155      -45.4678  -26.8075   10.1407 H         1 UNK         0.0791 
    156 H156      -46.4296  -25.5878    9.3099 H         1 UNK         0.0791 
    157 H157      -47.2711  -27.6026    7.3560 H         1 UNK         0.3028 
@<TRIPOS>BOND
     1    1    2 1    
     2    1   82 1    
     3    1   83 1    
     4    1   84 1    
     5    2    3 2    
     6    2    4 am   BACKBONE|DICT|INTERRES
     7    4    5 1    
     8    4   85 1    
     9    5    6 1    
    10    5   80 1    
    11    5   86 1    
    12    6    7 1    
    13    6   87 1    
    14    6   88 1    
    15    7    8 1    
    16    8    9 1    
    17    8   89 1    
    18    8   90 1    
    19    9   10 ar   
    20    9   14 ar   
    21   10   11 ar   
    22   10   91 1    
    23   11   12 ar   
    24   11   58 1    
    25   12   13 ar   
    26   12   92 1    
    27   13   14 ar   
    28   13   15 1    
    29   14   93 1    
    30   15   16 1    
    31   15   94 1    
    32   15   95 1    
    33   16   17 1    
    34   17   18 1    
    35   17   96 1    
    36   17   97 1    
    37   18   19 1    
    38   18   22 1    
    39   18   98 1    
    40   19   20 am   BACKBONE|DICT|INTERRES
    41   19   21 2    
    42   20   99 1    
    43   20  100 1    
    44   22   23 am   BACKBONE|DICT|INTERRES
    45   22  101 1    
    46   23   24 2    
    47   23   25 1    
    48   25   26 1    
    49   25   27 1    
    50   25  102 1    
    51   26  103 1    
    52   26  104 1    
    53   26  105 1    
    54   27   28 am   BACKBONE|DICT|INTERRES
    55   27  106 1    
    56   28   29 2    
    57   28   30 1    
    58   30   31 1    
    59   30   32 1    
    60   30  107 1    
    61   31  108 1    
    62   31  109 1    
    63   31  110 1    
    64   32   33 am   BACKBONE|DICT|INTERRES
    65   32  111 1    
    66   33   34 2    
    67   33   35 1    
    68   35   36 1    
    69   35   37 1    
    70   35  112 1    
    71   36  113 1    
    72   36  114 1    
    73   36  115 1    
    74   37   38 am   BACKBONE|DICT|INTERRES
    75   37  116 1    
    76   38   39 2    
    77   38   40 1    
    78   40   41 1    
    79   40   42 1    
    80   40  117 1    
    81   41  118 1    
    82   41  119 1    
    83   41  120 1    
    84   42   43 am   BACKBONE|DICT|INTERRES
    85   42  121 1    
    86   43   44 2    
    87   43   45 1    
    88   45   46 1    
    89   45   47 1    
    90   45  122 1    
    91   46  123 1    
    92   46  124 1    
    93   46  125 1    
    94   47   48 am   BACKBONE|DICT|INTERRES
    95   47  126 1    
    96   48   49 2    
    97   48   50 1    
    98   50   51 1    
    99   50   52 1    
   100   50  127 1    
   101   51  128 1    
   102   51  129 1    
   103   51  130 1    
   104   52   53 am   BACKBONE|DICT|INTERRES
   105   52  131 1    
   106   53   54 2    
   107   53   55 1    
   108   55   56 1    
   109   55   59 1    
   110   55  132 1    
   111   56   57 1    
   112   56  133 1    
   113   56  134 1    
   114   57   58 1    
   115   58  135 1    
   116   58  136 1    
   117   59   60 am   BACKBONE|DICT|INTERRES
   118   59  137 1    
   119   60   61 2    
   120   60   62 1    
   121   62   63 1    
   122   62   64 1    
   123   62  138 1    
   124   63  139 1    
   125   63  140 1    
   126   63  141 1    
   127   64   65 am   BACKBONE|DICT|INTERRES
   128   64  142 1    
   129   65   66 2    
   130   65   67 1    
   131   67   68 1    
   132   67   69 1    
   133   67  143 1    
   134   68  144 1    
   135   68  145 1    
   136   68  146 1    
   137   69   70 am   BACKBONE|DICT|INTERRES
   138   69  147 1    
   139   70   71 2    
   140   70   72 1    
   141   72   73 1    
   142   72   74 1    
   143   72  148 1    
   144   73  149 1    
   145   73  150 1    
   146   73  151 1    
   147   74   75 am   BACKBONE|DICT|INTERRES
   148   74  152 1    
   149   75   76 2    
   150   75   77 1    
   151   77   78 1    
   152   77   79 1    
   153   77  153 1    
   154   78  154 1    
   155   78  155 1    
   156   78  156 1    
   157   79   80 am   BACKBONE|DICT|INTERRES
   158   79  157 1    
   159   80   81 2    
@<TRIPOS>SUBSTRUCTURE
     1 UNK         1 GROUP             0       ****    0 ROOT    
