@<TRIPOS>MOLECULE
3R207
157   159    1
SMALL
USER_CHARGES


@<TRIPOS>ATOM
      1 CA        -47.0422  -30.2416    7.2923 C.3       0 UNK        -0.1975 
      2 C         -47.4990  -29.1765    6.3063 C.2       0 UNK         0.4852 
      3 O         -46.7048  -28.7398    5.4721 O.2       0 UNK        -0.5216 
      4 N         -48.7709  -28.7614    6.4039 N.am      1 UNK        -0.4461 
      5 CA        -49.4544  -27.7764    5.5556 C.3       1 UNK         0.0864 
      6 C6        -50.8967  -27.5166    6.0549 C.3       14 UNK        -0.0898 
      7 S7        -52.0401  -28.8907    5.6760 S.3       14 UNK        -0.2598 
      8 C8        -51.9808  -29.9545    7.1651 C.3       14 UNK         0.0286 
      9 C9        -52.3617  -29.2951    8.4922 C.ar      14 UNK        -0.0844 
     10 C10       -53.1046  -28.1100    8.5639 C.ar      14 UNK        -0.0881 
     11 C11       -53.3893  -27.5170    9.7966 C.ar      14 UNK        -0.0643 
     12 C12       -52.9560  -28.1341   10.9712 C.ar      14 UNK        -0.0930 
     13 C13       -52.2628  -29.3474   10.9232 C.ar      14 UNK        -0.0827 
     14 C14       -51.9624  -29.9142    9.6813 C.ar      14 UNK        -0.1249 
     15 C15       -51.8211  -30.0443   12.2047 C.3       14 UNK         0.0141 
     16 S16       -53.1350  -30.1341   13.4686 S.3       14 UNK        -0.2313 
     17 C17       -54.3658  -31.2325   12.6841 C.3       14 UNK        -0.0915 
     18 CA        -55.4461  -30.4906   11.8462 C.3       13 UNK         0.0968 
     19 C         -56.4867  -31.4941   11.2693 C.2       13 UNK         0.5732 
     20 N         -57.7681  -31.3937   11.6035 N.am      13 UNK        -0.7310 
     21 O         -56.1247  -32.3809   10.4996 O.2       13 UNK        -0.5035 
     22 N         -56.0234  -29.3422   12.5672 N.am      13 UNK        -0.4233 
     23 C         -56.6262  -28.2983   11.9823 C.2       13 UNK         0.4989 
     24 O         -56.8085  -28.2098   10.7679 O.2       13 UNK        -0.4996 
     25 CA        -57.1302  -27.1558   12.8872 C.3       12 UNK         0.0216 
     26 CB        -58.6681  -27.1113   12.8901 C.3       12 UNK        -0.1964 
     27 N         -56.6565  -27.2191   14.2746 N.am      12 UNK        -0.4276 
     28 C         -55.4133  -26.9260   14.6779 C.2       12 UNK         0.5020 
     29 O         -54.5065  -26.5921   13.9127 O.2       12 UNK        -0.5489 
     30 CA        -55.1534  -27.0757   16.1888 C.3       11 UNK         0.0294 
     31 CB        -55.0502  -28.5609   16.5775 C.3       11 UNK        -0.2019 
     32 N         -53.9277  -26.4039   16.6168 N.am      11 UNK        -0.4493 
     33 C         -53.7385  -25.0829   16.7096 C.2       11 UNK         0.4932 
     34 O         -54.6344  -24.2556   16.5344 O.2       11 UNK        -0.5029 
     35 CA        -52.3196  -24.5875   17.0658 C.3       10 UNK         0.0280 
     36 CB        -52.1947  -24.2928   18.5737 C.3       10 UNK        -0.1976 
     37 N         -51.2227  -25.4478   16.5881 N.am      10 UNK        -0.4242 
     38 C         -50.8892  -26.6864   16.9829 C.2       10 UNK         0.5072 
     39 O         -51.4768  -27.2997   17.8743 O.2       10 UNK        -0.5224 
     40 CA        -49.7627  -27.4028   16.2221 C.3       9 UNK         0.0343 
     41 CB        -50.3627  -28.4726   15.2971 C.3       9 UNK        -0.2003 
     42 N         -48.9310  -26.4964   15.4270 N.am      9 UNK        -0.4272 
     43 C         -47.8661  -25.8410   15.9092 C.2       9 UNK         0.4988 
     44 O         -47.4837  -25.9197   17.0774 O.2       9 UNK        -0.5108 
     45 CA        -47.0913  -24.9484   14.9250 C.3       8 UNK         0.0248 
     46 CB        -46.2164  -25.7993   13.9905 C.3       8 UNK        -0.2001 
     47 N         -47.9552  -24.0742   14.1295 N.am      8 UNK        -0.4140 
     48 C         -48.7084  -23.0840   14.6309 C.2       8 UNK         0.5028 
     49 O         -48.7757  -22.8051   15.8280 O.2       8 UNK        -0.5428 
     50 CA        -49.5365  -22.2720   13.6258 C.3       7 UNK         0.0264 
     51 CB        -48.6682  -21.2123   12.9276 C.3       7 UNK        -0.1988 
     52 N         -50.1600  -23.1385   12.6265 N.am      7 UNK        -0.4454 
     53 C         -51.2767  -23.8489   12.8440 C.2       7 UNK         0.5027 
     54 O         -51.9180  -23.8013   13.8919 O.2       7 UNK        -0.5083 
     55 CA        -51.7575  -24.7647   11.7000 C.3       6 UNK         0.0844 
     56 C56       -52.7005  -23.9683   10.7608 C.3       14 UNK        -0.0967 
     57 S57       -53.1858  -24.8256    9.2249 S.3       14 UNK        -0.2604 
     58 C58       -54.1783  -26.2182    9.8469 C.3       14 UNK         0.0134 
     59 N         -50.6438  -25.4013   10.9907 N.am      6 UNK        -0.4116 
     60 C         -49.7584  -26.2438   11.5421 C.2       5 UNK         0.5034 
     61 O         -49.7804  -26.5971   12.7198 O.2       5 UNK        -0.5045 
     62 CA        -48.6038  -26.7172   10.6453 C.3       5 UNK         0.0224 
     63 CB        -48.9909  -27.9892    9.8812 C.3       5 UNK        -0.1978 
     64 N         -48.1377  -25.6971    9.7013 N.am      5 UNK        -0.4737 
     65 C         -47.6516  -24.4965   10.0489 C.2       4 UNK         0.5027 
     66 O         -47.5872  -24.0952   11.2130 O.2       4 UNK        -0.5211 
     67 CA        -47.1938  -23.6026    8.8880 C.3       4 UNK         0.0297 
     68 CB        -46.4524  -22.3274    9.3434 C.3       4 UNK        -0.1993 
     69 N         -46.4350  -24.3701    7.8946 N.am      4 UNK        -0.4486 
     70 C         -45.1901  -24.8656    7.9909 C.2       3 UNK         0.4961 
     71 O         -44.4535  -24.6848    8.9607 O.2       3 UNK        -0.5105 
     72 CA        -44.6659  -25.7280    6.8173 C.3       3 UNK         0.0299 
     73 CB        -44.2899  -27.1352    7.3115 C.3       3 UNK        -0.1972 
     74 N         -45.6065  -25.8586    5.6982 N.am      3 UNK        -0.4305 
     75 C         -45.9643  -24.8671    4.8680 C.2       2 UNK         0.5006 
     76 O         -45.4137  -23.7660    4.8515 O.2       2 UNK        -0.5106 
     77 CA        -47.1706  -25.1064    3.9377 C.3       2 UNK         0.0296 
     78 CB        -46.7006  -25.2656    2.4822 C.3       2 UNK        -0.2002 
     79 N         -48.0225  -26.2492    4.2902 N.am      2 UNK        -0.4032 
     80 C         -48.6631  -26.4556    5.4520 C.2       1 UNK         0.5000 
     81 O         -48.6081  -25.6946    6.4232 O.2       1 UNK        -0.5238 
     82 H82       -46.6340  -31.0970    6.7542 H         1 UNK         0.0889 
     83 H83       -47.8600  -30.5972    7.9193 H         1 UNK         0.0889 
     84 H84       -46.2623  -29.8458    7.9420 H         1 UNK         0.0889 
     85 H85       -49.3509  -29.1603    7.1255 H         1 UNK         0.3028 
     86 H86       -49.5162  -28.2069    4.5539 H         1 UNK         0.0864 
     87 H87       -51.3165  -26.6351    5.5657 H         1 UNK         0.0720 
     88 H88       -50.9042  -27.2879    7.1209 H         1 UNK         0.0720 
     89 H89       -50.9816  -30.3838    7.2419 H         1 UNK         0.0814 
     90 H90       -52.6561  -30.7955    7.0026 H         1 UNK         0.0814 
     91 H91       -53.4504  -27.6247    7.6625 H         1 UNK         0.1469 
     92 H92       -53.1836  -27.6881   11.9291 H         1 UNK         0.1381 
     93 H93       -51.4095  -30.8428    9.6391 H         1 UNK         0.1206 
     94 H94       -51.4649  -31.0544   11.9975 H         1 UNK         0.0813 
     95 H95       -50.9723  -29.4969   12.6147 H         1 UNK         0.0813 
     96 H96       -53.8378  -31.9610   12.0660 H         1 UNK         0.0638 
     97 H97       -54.8415  -31.8035   13.4833 H         1 UNK         0.0638 
     98 H98       -54.9442  -30.0866   10.9667 H         1 UNK         0.0568 
     99 H99       -58.0774  -30.6686   12.2295 H         1 UNK         0.3450 
    100 H100      -58.4308  -32.0487   11.2197 H         1 UNK         0.3450 
    101 H101      -55.8980  -29.3371   13.5670 H         1 UNK         0.2987 
    102 H102      -56.7656  -26.2238   12.4497 H         1 UNK         0.0766 
    103 H103      -59.0599  -27.0219   11.8757 H         1 UNK         0.0798 
    104 H104      -59.0399  -26.2543   13.4523 H         1 UNK         0.0798 
    105 H105      -59.0990  -28.0133   13.3264 H         1 UNK         0.0798 
    106 H106      -57.3380  -27.4927   14.9687 H         1 UNK         0.3198 
    107 H107      -55.9912  -26.6263   16.7262 H         1 UNK         0.0843 
    108 H108      -54.2106  -29.0486   16.0809 H         1 UNK         0.0831 
    109 H109      -55.9533  -29.1100   16.3088 H         1 UNK         0.0831 
    110 H110      -54.9130  -28.6790   17.6526 H         1 UNK         0.0831 
    111 H111      -53.1341  -26.9952   16.8357 H         1 UNK         0.3133 
    112 H112      -52.1870  -23.6389   16.5440 H         1 UNK         0.0566 
    113 H113      -51.2118  -23.8903   18.8185 H         1 UNK         0.0814 
    114 H114      -52.3549  -25.1841   19.1808 H         1 UNK         0.0814 
    115 H115      -52.9345  -23.5545   18.8857 H         1 UNK         0.0814 
    116 H116      -50.7065  -25.0653   15.8078 H         1 UNK         0.3091 
    117 H117      -49.1371  -27.9100   16.9597 H         1 UNK         0.0702 
    118 H118      -49.5885  -28.9936   14.7339 H         1 UNK         0.0785 
    119 H119      -51.0629  -28.0352   14.5839 H         1 UNK         0.0785 
    120 H120      -50.9108  -29.2235   15.8678 H         1 UNK         0.0785 
    121 H121      -49.1741  -26.4078   14.4411 H         1 UNK         0.2998 
    122 H122      -46.4304  -24.3063   15.5110 H         1 UNK         0.0697 
    123 H123      -46.8154  -26.4813   13.3879 H         1 UNK         0.0825 
    124 H124      -45.5108  -26.4041   14.5616 H         1 UNK         0.0825 
    125 H125      -45.6347  -25.1754   13.3112 H         1 UNK         0.0825 
    126 H126      -47.9249  -24.1946   13.1201 H         1 UNK         0.3029 
    127 H127      -50.3210  -21.7513   14.1803 H         1 UNK         0.0897 
    128 H128      -47.8457  -21.6609   12.3697 H         1 UNK         0.0792 
    129 H129      -48.2302  -20.5291   13.6566 H         1 UNK         0.0792 
    130 H130      -49.2563  -20.6114   12.2338 H         1 UNK         0.0792 
    131 H131      -49.6482  -23.2794   11.7657 H         1 UNK         0.3086 
    132 H132      -52.3380  -25.5633   12.1638 H         1 UNK         0.0583 
    133 H133      -53.6087  -23.6847   11.2968 H         1 UNK         0.1020 
    134 H134      -52.2323  -23.0296   10.4567 H         1 UNK         0.1020 
    135 H135      -54.5318  -26.0125   10.8586 H         1 UNK         0.0694 
    136 H136      -55.0710  -26.3209    9.2282 H         1 UNK         0.0694 
    137 H137      -50.5585  -25.1864   10.0085 H         1 UNK         0.2989 
    138 H138      -47.7645  -26.9600   11.2989 H         1 UNK         0.1055 
    139 H139      -49.8184  -27.8098    9.1950 H         1 UNK         0.0806 
    140 H140      -48.1477  -28.3756    9.3108 H         1 UNK         0.0806 
    141 H141      -49.3019  -28.7760   10.5696 H         1 UNK         0.0806 
    142 H142      -48.1836  -25.9236    8.7154 H         1 UNK         0.3061 
    143 H143      -48.1043  -23.2809    8.3803 H         1 UNK         0.0734 
    144 H144      -45.5870  -22.5570    9.9655 H         1 UNK         0.0832 
    145 H145      -46.1099  -21.7402    8.4916 H         1 UNK         0.0832 
    146 H146      -47.1099  -21.6890    9.9342 H         1 UNK         0.0832 
    147 H147      -46.9782  -24.6526    7.0852 H         1 UNK         0.3156 
    148 H148      -43.7613  -25.2459    6.4412 H         1 UNK         0.0589 
    149 H149      -43.9173  -27.7591    6.4987 H         1 UNK         0.0808 
    150 H150      -43.5057  -27.0886    8.0683 H         1 UNK         0.0808 
    151 H151      -45.1442  -27.6417    7.7608 H         1 UNK         0.0808 
    152 H152      -46.0831  -26.7512    5.6123 H         1 UNK         0.3098 
    153 H153      -47.7951  -24.2129    3.9986 H         1 UNK         0.0720 
    154 H154      -46.0925  -24.4149    2.1708 H         1 UNK         0.0791 
    155 H155      -47.5449  -25.3239    1.7949 H         1 UNK         0.0791 
    156 H156      -46.0955  -26.1637    2.3505 H         1 UNK         0.0791 
    157 H157      -48.0934  -26.9690    3.5851 H         1 UNK         0.3028 
@<TRIPOS>BOND
     1    1    2 1    
     2    1   82 1    
     3    1   83 1    
     4    1   84 1    
     5    2    3 2    
     6    2    4 am   BACKBONE|DICT|INTERRES
     7    4    5 1    
     8    4   85 1    
     9    5    6 1    
    10    5   80 1    
    11    5   86 1    
    12    6    7 1    
    13    6   87 1    
    14    6   88 1    
    15    7    8 1    
    16    8    9 1    
    17    8   89 1    
    18    8   90 1    
    19    9   10 ar   
    20    9   14 ar   
    21   10   11 ar   
    22   10   91 1    
    23   11   12 ar   
    24   11   58 1    
    25   12   13 ar   
    26   12   92 1    
    27   13   14 ar   
    28   13   15 1    
    29   14   93 1    
    30   15   16 1    
    31   15   94 1    
    32   15   95 1    
    33   16   17 1    
    34   17   18 1    
    35   17   96 1    
    36   17   97 1    
    37   18   19 1    
    38   18   22 1    
    39   18   98 1    
    40   19   20 am   BACKBONE|DICT|INTERRES
    41   19   21 2    
    42   20   99 1    
    43   20  100 1    
    44   22   23 am   BACKBONE|DICT|INTERRES
    45   22  101 1    
    46   23   24 2    
    47   23   25 1    
    48   25   26 1    
    49   25   27 1    
    50   25  102 1    
    51   26  103 1    
    52   26  104 1    
    53   26  105 1    
    54   27   28 am   BACKBONE|DICT|INTERRES
    55   27  106 1    
    56   28   29 2    
    57   28   30 1    
    58   30   31 1    
    59   30   32 1    
    60   30  107 1    
    61   31  108 1    
    62   31  109 1    
    63   31  110 1    
    64   32   33 am   BACKBONE|DICT|INTERRES
    65   32  111 1    
    66   33   34 2    
    67   33   35 1    
    68   35   36 1    
    69   35   37 1    
    70   35  112 1    
    71   36  113 1    
    72   36  114 1    
    73   36  115 1    
    74   37   38 am   BACKBONE|DICT|INTERRES
    75   37  116 1    
    76   38   39 2    
    77   38   40 1    
    78   40   41 1    
    79   40   42 1    
    80   40  117 1    
    81   41  118 1    
    82   41  119 1    
    83   41  120 1    
    84   42   43 am   BACKBONE|DICT|INTERRES
    85   42  121 1    
    86   43   44 2    
    87   43   45 1    
    88   45   46 1    
    89   45   47 1    
    90   45  122 1    
    91   46  123 1    
    92   46  124 1    
    93   46  125 1    
    94   47   48 am   BACKBONE|DICT|INTERRES
    95   47  126 1    
    96   48   49 2    
    97   48   50 1    
    98   50   51 1    
    99   50   52 1    
   100   50  127 1    
   101   51  128 1    
   102   51  129 1    
   103   51  130 1    
   104   52   53 am   BACKBONE|DICT|INTERRES
   105   52  131 1    
   106   53   54 2    
   107   53   55 1    
   108   55   56 1    
   109   55   59 1    
   110   55  132 1    
   111   56   57 1    
   112   56  133 1    
   113   56  134 1    
   114   57   58 1    
   115   58  135 1    
   116   58  136 1    
   117   59   60 am   BACKBONE|DICT|INTERRES
   118   59  137 1    
   119   60   61 2    
   120   60   62 1    
   121   62   63 1    
   122   62   64 1    
   123   62  138 1    
   124   63  139 1    
   125   63  140 1    
   126   63  141 1    
   127   64   65 am   BACKBONE|DICT|INTERRES
   128   64  142 1    
   129   65   66 2    
   130   65   67 1    
   131   67   68 1    
   132   67   69 1    
   133   67  143 1    
   134   68  144 1    
   135   68  145 1    
   136   68  146 1    
   137   69   70 am   BACKBONE|DICT|INTERRES
   138   69  147 1    
   139   70   71 2    
   140   70   72 1    
   141   72   73 1    
   142   72   74 1    
   143   72  148 1    
   144   73  149 1    
   145   73  150 1    
   146   73  151 1    
   147   74   75 am   BACKBONE|DICT|INTERRES
   148   74  152 1    
   149   75   76 2    
   150   75   77 1    
   151   77   78 1    
   152   77   79 1    
   153   77  153 1    
   154   78  154 1    
   155   78  155 1    
   156   78  156 1    
   157   79   80 am   BACKBONE|DICT|INTERRES
   158   79  157 1    
   159   80   81 2    
@<TRIPOS>SUBSTRUCTURE
     1 UNK         1 GROUP             0       ****    0 ROOT    
