@<TRIPOS>MOLECULE
3R207
157   159    1
SMALL
USER_CHARGES


@<TRIPOS>ATOM
      1 CA        -45.1678  -28.0898   12.4930 C.3       0 UNK        -0.1975 
      2 C         -45.7108  -27.7944   11.1036 C.2       0 UNK         0.4852 
      3 O         -45.6696  -26.6447   10.6679 O.2       0 UNK        -0.5216 
      4 N         -46.1887  -28.8272   10.3914 N.am      1 UNK        -0.4461 
      5 CA        -46.8106  -28.7584    9.0540 C.3       1 UNK         0.0864 
      6 C6        -48.2166  -28.0923    9.0717 C.3       14 UNK        -0.0898 
      7 S7        -49.3546  -28.9541   10.2090 S.3       14 UNK        -0.2598 
      8 C8        -50.3390  -29.9707    9.0643 C.3       14 UNK         0.0286 
      9 C9        -51.6592  -29.2997    8.7179 C.ar      14 UNK        -0.0844 
     10 C10       -51.8605  -28.6983    7.4702 C.ar      14 UNK        -0.0881 
     11 C11       -53.0928  -28.1109    7.1595 C.ar      14 UNK        -0.0643 
     12 C12       -54.1206  -28.1256    8.1083 C.ar      14 UNK        -0.0930 
     13 C13       -53.9219  -28.7032    9.3639 C.ar      14 UNK        -0.0827 
     14 C14       -52.6940  -29.2999    9.6571 C.ar      14 UNK        -0.1249 
     15 C15       -55.0288  -28.6783   10.4053 C.3       14 UNK         0.0141 
     16 S16       -54.6515  -27.4816   11.7207 S.3       14 UNK        -0.2313 
     17 C17       -56.1324  -27.6621   12.7663 C.3       14 UNK        -0.0915 
     18 CA        -56.2562  -26.5488   13.8410 C.3       13 UNK         0.0968 
     19 C         -57.5706  -26.7051   14.6615 C.2       13 UNK         0.5732 
     20 N         -57.5295  -26.8980   15.9763 N.am      13 UNK        -0.7310 
     21 O         -58.6572  -26.6357   14.0919 O.2       13 UNK        -0.5035 
     22 N         -55.0511  -26.4454   14.6774 N.am      13 UNK        -0.4233 
     23 C         -54.6731  -25.3313   15.3192 C.2       13 UNK         0.4989 
     24 O         -55.2388  -24.2460   15.1793 O.2       13 UNK        -0.4996 
     25 CA        -53.4578  -25.4322   16.2649 C.3       12 UNK         0.0216 
     26 CB        -53.5284  -24.4217   17.4298 C.3       12 UNK        -0.1964 
     27 N         -53.1995  -26.7888   16.7644 N.am      12 UNK        -0.4276 
     28 C         -54.0228  -27.5433   17.5078 C.2       12 UNK         0.5020 
     29 O         -55.1433  -27.1765   17.8702 O.2       12 UNK        -0.5489 
     30 CA        -53.5246  -28.9620   17.8533 C.3       11 UNK         0.0294 
     31 CB        -54.6120  -29.8209   18.5328 C.3       11 UNK        -0.2019 
     32 N         -52.9648  -29.6844   16.7019 N.am      11 UNK        -0.4493 
     33 C         -53.5446  -29.8985   15.5120 C.2       11 UNK         0.4932 
     34 O         -54.6377  -29.4334   15.1915 O.2       11 UNK        -0.5029 
     35 CA        -52.7500  -30.7578   14.5089 C.3       10 UNK         0.0280 
     36 CB        -53.5302  -31.0310   13.2119 C.3       10 UNK        -0.1976 
     37 N         -51.4667  -30.1400   14.1708 N.am      10 UNK        -0.4242 
     38 C         -50.3730  -30.1768   14.9416 C.2       10 UNK         0.5072 
     39 O         -50.3210  -30.7661   16.0229 O.2       10 UNK        -0.5224 
     40 CA        -49.1399  -29.4041   14.4464 C.3       9 UNK         0.0343 
     41 CB        -48.2751  -30.3107   13.5564 C.3       9 UNK        -0.2003 
     42 N         -49.4227  -28.1451   13.7421 N.am      9 UNK        -0.4272 
     43 C         -50.1283  -27.1134   14.2322 C.2       9 UNK         0.4988 
     44 O         -50.7841  -27.1657   15.2735 O.2       9 UNK        -0.5108 
     45 CA        -50.0602  -25.7797   13.4718 C.3       8 UNK         0.0248 
     46 CB        -48.9817  -25.7160   12.3682 C.3       8 UNK        -0.2001 
     47 N         -51.3622  -25.4406   12.8967 N.am      8 UNK        -0.4140 
     48 C         -51.9313  -24.2292   12.9710 C.2       8 UNK         0.5028 
     49 O         -51.4804  -23.2978   13.6394 O.2       8 UNK        -0.5428 
     50 CA        -53.1558  -24.0031   12.0732 C.3       7 UNK         0.0264 
     51 CB        -53.7600  -22.5901   12.2091 C.3       7 UNK        -0.1988 
     52 N         -52.7196  -24.2474   10.7031 N.am      7 UNK        -0.4454 
     53 C         -53.4890  -24.4977    9.6378 C.2       7 UNK         0.5027 
     54 O         -54.7211  -24.4913    9.6548 O.2       7 UNK        -0.5083 
     55 CA        -52.7134  -24.8151    8.3414 C.3       6 UNK         0.0844 
     56 C56       -53.6006  -24.9343    7.0728 C.3       14 UNK        -0.0967 
     57 S57       -52.6809  -25.7537    5.7228 S.3       14 UNK        -0.2604 
     58 C58       -53.3235  -27.4593    5.8013 C.3       14 UNK         0.0134 
     59 N         -51.5704  -23.9133    8.1624 N.am      6 UNK        -0.4116 
     60 C         -51.6004  -22.5870    7.9822 C.2       5 UNK         0.5034 
     61 O         -52.6356  -21.9222    7.9324 O.2       5 UNK        -0.5045 
     62 CA        -50.2485  -21.8652    7.8238 C.3       5 UNK         0.0224 
     63 CB        -49.7181  -21.3959    9.1937 C.3       5 UNK        -0.1978 
     64 N         -49.2189  -22.6109    7.0784 N.am      5 UNK        -0.4737 
     65 C         -48.5884  -23.7455    7.4149 C.2       4 UNK         0.5027 
     66 O         -48.8300  -24.3820    8.4419 O.2       4 UNK        -0.5211 
     67 CA        -47.5397  -24.2969    6.4329 C.3       4 UNK         0.0297 
     68 CB        -47.3525  -23.4675    5.1409 C.3       4 UNK        -0.1993 
     69 N         -46.2644  -24.5225    7.1157 N.am      4 UNK        -0.4486 
     70 C         -45.4684  -23.6014    7.6842 C.2       3 UNK         0.4961 
     71 O         -45.6731  -22.3882    7.6221 O.2       3 UNK        -0.5105 
     72 CA        -44.2358  -24.0979    8.4673 C.3       3 UNK         0.0299 
     73 CB        -44.3311  -23.6815    9.9452 C.3       3 UNK        -0.1972 
     74 N         -44.0518  -25.5497    8.3882 N.am      3 UNK        -0.4305 
     75 C         -43.4674  -26.1836    7.3589 C.2       2 UNK         0.5006 
     76 O         -42.9364  -25.5981    6.4146 O.2       2 UNK        -0.5106 
     77 CA        -43.4915  -27.7259    7.3530 C.3       2 UNK         0.0296 
     78 CB        -42.1356  -28.2841    7.8155 C.3       2 UNK        -0.2002 
     79 N         -44.5561  -28.3191    8.1679 N.am      2 UNK        -0.4032 
     80 C         -45.8743  -28.1419    7.9858 C.2       1 UNK         0.5000 
     81 O         -46.3410  -27.4919    7.0483 O.2       1 UNK        -0.5238 
     82 H82       -44.1916  -27.6226   12.6201 H         1 UNK         0.0889 
     83 H83       -45.0525  -29.1593   12.6672 H         1 UNK         0.0889 
     84 H84       -45.8385  -27.6864   13.2509 H         1 UNK         0.0889 
     85 H85       -46.1771  -29.7498   10.8036 H         1 UNK         0.3028 
     86 H86       -46.9494  -29.7931    8.7368 H         1 UNK         0.0864 
     87 H87       -48.1407  -27.0484    9.3816 H         1 UNK         0.0720 
     88 H88       -48.6613  -28.0749    8.0751 H         1 UNK         0.0720 
     89 H89       -50.5427  -30.9303    9.5419 H         1 UNK         0.0814 
     90 H90       -49.7648  -30.2002    8.1655 H         1 UNK         0.0814 
     91 H91       -51.0630  -28.6880    6.7399 H         1 UNK         0.1469 
     92 H92       -55.0746  -27.6735    7.8751 H         1 UNK         0.1381 
     93 H93       -52.5364  -29.7547   10.6248 H         1 UNK         0.1206 
     94 H94       -55.1560  -29.6736   10.8324 H         1 UNK         0.0813 
     95 H95       -55.9827  -28.4160    9.9452 H         1 UNK         0.0813 
     96 H96       -56.1138  -28.6500   13.2276 H         1 UNK         0.0638 
     97 H97       -57.0069  -27.6481   12.1132 H         1 UNK         0.0638 
     98 H98       -56.3617  -25.6062   13.3005 H         1 UNK         0.0568 
     99 H99       -58.3941  -26.9905   16.4842 H         1 UNK         0.3450 
    100 H100      -56.6470  -26.9625   16.4720 H         1 UNK         0.3450 
    101 H101      -54.5877  -27.3236   14.8775 H         1 UNK         0.2987 
    102 H102      -52.5882  -25.1675   15.6644 H         1 UNK         0.0766 
    103 H103      -54.4178  -24.5712   18.0429 H         1 UNK         0.0798 
    104 H104      -52.6557  -24.5018   18.0778 H         1 UNK         0.0798 
    105 H105      -53.5590  -23.3968   17.0578 H         1 UNK         0.0798 
    106 H106      -52.3159  -27.1877   16.4520 H         1 UNK         0.3198 
    107 H107      -52.7092  -28.8327   18.5666 H         1 UNK         0.0843 
    108 H108      -55.4729  -29.9699   17.8799 H         1 UNK         0.0831 
    109 H109      -54.9740  -29.3453   19.4453 H         1 UNK         0.0831 
    110 H110      -54.2278  -30.8021   18.8111 H         1 UNK         0.0831 
    111 H111      -52.0334  -30.0724   16.8256 H         1 UNK         0.3133 
    112 H112      -52.5640  -31.7221   14.9867 H         1 UNK         0.0566 
    113 H113      -52.9714  -31.6801   12.5376 H         1 UNK         0.0814 
    114 H114      -53.7517  -30.1059   12.6839 H         1 UNK         0.0814 
    115 H115      -54.4812  -31.5220   13.4222 H         1 UNK         0.0814 
    116 H116      -51.4290  -29.5991   13.3196 H         1 UNK         0.3091 
    117 H117      -48.5535  -29.1428   15.3297 H         1 UNK         0.0702 
    118 H118      -47.9966  -31.2239   14.0845 H         1 UNK         0.0785 
    119 H119      -47.3513  -29.8168   13.2622 H         1 UNK         0.0785 
    120 H120      -48.8020  -30.6095   12.6498 H         1 UNK         0.0785 
    121 H121      -48.9553  -28.0179   12.8557 H         1 UNK         0.2998 
    122 H122      -49.7870  -25.0427   14.2300 H         1 UNK         0.0697 
    123 H123      -49.2193  -26.3610   11.5236 H         1 UNK         0.0825 
    124 H124      -47.9983  -25.9991   12.7460 H         1 UNK         0.0825 
    125 H125      -48.8853  -24.7024   11.9782 H         1 UNK         0.0825 
    126 H126      -51.8212  -26.1663   12.3623 H         1 UNK         0.3029 
    127 H127      -53.9166  -24.7347   12.3483 H         1 UNK         0.0897 
    128 H128      -53.0488  -21.8177   11.9141 H         1 UNK         0.0792 
    129 H129      -54.0545  -22.3917   13.2406 H         1 UNK         0.0792 
    130 H130      -54.6520  -22.4765   11.5933 H         1 UNK         0.0792 
    131 H131      -51.7168  -24.2676   10.5734 H         1 UNK         0.3086 
    132 H132      -52.2751  -25.7963    8.5288 H         1 UNK         0.0583 
    133 H133      -54.5157  -25.4918    7.2718 H         1 UNK         0.1020 
    134 H134      -53.9296  -23.9509    6.7345 H         1 UNK         0.1020 
    135 H135      -54.3870  -27.4524    5.5571 H         1 UNK         0.0694 
    136 H136      -52.8394  -28.0532    5.0247 H         1 UNK         0.0694 
    137 H137      -50.6478  -24.3383    8.2230 H         1 UNK         0.2989 
    138 H138      -50.4503  -20.9717    7.2301 H         1 UNK         0.1055 
    139 H139      -49.5109  -22.2318    9.8626 H         1 UNK         0.0806 
    140 H140      -50.4460  -20.7558    9.6942 H         1 UNK         0.0806 
    141 H141      -48.7994  -20.8192    9.0857 H         1 UNK         0.0806 
    142 H142      -48.9553  -22.1957    6.1952 H         1 UNK         0.3061 
    143 H143      -47.8994  -25.2836    6.1366 H         1 UNK         0.0734 
    144 H144      -47.0222  -22.4480    5.3424 H         1 UNK         0.0832 
    145 H145      -46.6100  -23.9280    4.4891 H         1 UNK         0.0832 
    146 H146      -48.2805  -23.4114    4.5705 H         1 UNK         0.0832 
    147 H147      -46.0340  -25.5021    7.2478 H         1 UNK         0.3156 
    148 H148      -43.3589  -23.6077    8.0391 H         1 UNK         0.0589 
    149 H149      -45.2407  -24.0598   10.4131 H         1 UNK         0.0808 
    150 H150      -43.4796  -24.0462   10.5197 H         1 UNK         0.0808 
    151 H151      -44.3466  -22.5953   10.0435 H         1 UNK         0.0808 
    152 H152      -44.4926  -26.0915    9.1268 H         1 UNK         0.3098 
    153 H153      -43.6573  -28.0403    6.3205 H         1 UNK         0.0720 
    154 H154      -42.1011  -29.3702    7.7272 H         1 UNK         0.0791 
    155 H155      -41.9243  -28.0228    8.8533 H         1 UNK         0.0791 
    156 H156      -41.3215  -27.8866    7.2074 H         1 UNK         0.0791 
    157 H157      -44.2624  -28.8606    8.9679 H         1 UNK         0.3028 
@<TRIPOS>BOND
     1    1    2 1    
     2    1   82 1    
     3    1   83 1    
     4    1   84 1    
     5    2    3 2    
     6    2    4 am   BACKBONE|DICT|INTERRES
     7    4    5 1    
     8    4   85 1    
     9    5    6 1    
    10    5   80 1    
    11    5   86 1    
    12    6    7 1    
    13    6   87 1    
    14    6   88 1    
    15    7    8 1    
    16    8    9 1    
    17    8   89 1    
    18    8   90 1    
    19    9   10 ar   
    20    9   14 ar   
    21   10   11 ar   
    22   10   91 1    
    23   11   12 ar   
    24   11   58 1    
    25   12   13 ar   
    26   12   92 1    
    27   13   14 ar   
    28   13   15 1    
    29   14   93 1    
    30   15   16 1    
    31   15   94 1    
    32   15   95 1    
    33   16   17 1    
    34   17   18 1    
    35   17   96 1    
    36   17   97 1    
    37   18   19 1    
    38   18   22 1    
    39   18   98 1    
    40   19   20 am   BACKBONE|DICT|INTERRES
    41   19   21 2    
    42   20   99 1    
    43   20  100 1    
    44   22   23 am   BACKBONE|DICT|INTERRES
    45   22  101 1    
    46   23   24 2    
    47   23   25 1    
    48   25   26 1    
    49   25   27 1    
    50   25  102 1    
    51   26  103 1    
    52   26  104 1    
    53   26  105 1    
    54   27   28 am   BACKBONE|DICT|INTERRES
    55   27  106 1    
    56   28   29 2    
    57   28   30 1    
    58   30   31 1    
    59   30   32 1    
    60   30  107 1    
    61   31  108 1    
    62   31  109 1    
    63   31  110 1    
    64   32   33 am   BACKBONE|DICT|INTERRES
    65   32  111 1    
    66   33   34 2    
    67   33   35 1    
    68   35   36 1    
    69   35   37 1    
    70   35  112 1    
    71   36  113 1    
    72   36  114 1    
    73   36  115 1    
    74   37   38 am   BACKBONE|DICT|INTERRES
    75   37  116 1    
    76   38   39 2    
    77   38   40 1    
    78   40   41 1    
    79   40   42 1    
    80   40  117 1    
    81   41  118 1    
    82   41  119 1    
    83   41  120 1    
    84   42   43 am   BACKBONE|DICT|INTERRES
    85   42  121 1    
    86   43   44 2    
    87   43   45 1    
    88   45   46 1    
    89   45   47 1    
    90   45  122 1    
    91   46  123 1    
    92   46  124 1    
    93   46  125 1    
    94   47   48 am   BACKBONE|DICT|INTERRES
    95   47  126 1    
    96   48   49 2    
    97   48   50 1    
    98   50   51 1    
    99   50   52 1    
   100   50  127 1    
   101   51  128 1    
   102   51  129 1    
   103   51  130 1    
   104   52   53 am   BACKBONE|DICT|INTERRES
   105   52  131 1    
   106   53   54 2    
   107   53   55 1    
   108   55   56 1    
   109   55   59 1    
   110   55  132 1    
   111   56   57 1    
   112   56  133 1    
   113   56  134 1    
   114   57   58 1    
   115   58  135 1    
   116   58  136 1    
   117   59   60 am   BACKBONE|DICT|INTERRES
   118   59  137 1    
   119   60   61 2    
   120   60   62 1    
   121   62   63 1    
   122   62   64 1    
   123   62  138 1    
   124   63  139 1    
   125   63  140 1    
   126   63  141 1    
   127   64   65 am   BACKBONE|DICT|INTERRES
   128   64  142 1    
   129   65   66 2    
   130   65   67 1    
   131   67   68 1    
   132   67   69 1    
   133   67  143 1    
   134   68  144 1    
   135   68  145 1    
   136   68  146 1    
   137   69   70 am   BACKBONE|DICT|INTERRES
   138   69  147 1    
   139   70   71 2    
   140   70   72 1    
   141   72   73 1    
   142   72   74 1    
   143   72  148 1    
   144   73  149 1    
   145   73  150 1    
   146   73  151 1    
   147   74   75 am   BACKBONE|DICT|INTERRES
   148   74  152 1    
   149   75   76 2    
   150   75   77 1    
   151   77   78 1    
   152   77   79 1    
   153   77  153 1    
   154   78  154 1    
   155   78  155 1    
   156   78  156 1    
   157   79   80 am   BACKBONE|DICT|INTERRES
   158   79  157 1    
   159   80   81 2    
@<TRIPOS>SUBSTRUCTURE
     1 UNK         1 GROUP             0       ****    0 ROOT    
