@<TRIPOS>MOLECULE
3R207
157   159    1
SMALL
USER_CHARGES


@<TRIPOS>ATOM
      1 CA        -46.6761  -31.9214    5.6636 C.3       0 UNK        -0.1975 
      2 C         -47.6742  -30.7809    5.5309 C.2       0 UNK         0.4852 
      3 O         -47.5774  -29.9968    4.5857 O.2       0 UNK        -0.5216 
      4 N         -48.6249  -30.6853    6.4733 N.am      1 UNK        -0.4461 
      5 CA        -49.6778  -29.6643    6.5637 C.3       1 UNK         0.0864 
      6 C6        -50.5382  -29.8884    7.8342 C.3       14 UNK        -0.0898 
      7 S7        -51.9782  -28.7726    7.9790 S.3       14 UNK        -0.2598 
      8 C8        -51.3515  -27.5897    9.2141 C.3       14 UNK         0.0286 
      9 C9        -52.4458  -26.6528    9.6936 C.ar      14 UNK        -0.0844 
     10 C10       -52.6349  -25.4098    9.0838 C.ar      14 UNK        -0.0881 
     11 C11       -53.6318  -24.5415    9.5410 C.ar      14 UNK        -0.0643 
     12 C12       -54.4626  -24.9382   10.5939 C.ar      14 UNK        -0.0930 
     13 C13       -54.2881  -26.1839   11.2019 C.ar      14 UNK        -0.0827 
     14 C14       -53.2630  -27.0265   10.7621 C.ar      14 UNK        -0.1249 
     15 C15       -55.1972  -26.6202   12.3409 C.3       14 UNK         0.0141 
     16 S16       -56.7901  -27.3216   11.7778 S.3       14 UNK        -0.2313 
     17 C17       -56.3312  -28.5597   10.5075 C.3       14 UNK        -0.0915 
     18 CA        -56.0635  -29.9910   11.0481 C.3       13 UNK         0.0968 
     19 C         -55.6984  -30.9434    9.8712 C.2       13 UNK         0.5732 
     20 N         -54.4518  -31.3762    9.7260 N.am      13 UNK        -0.7310 
     21 O         -56.5678  -31.2958    9.0775 O.2       13 UNK        -0.5035 
     22 N         -55.1147  -29.9751   12.1713 N.am      13 UNK        -0.4233 
     23 C         -54.7969  -31.0097   12.9600 C.2       13 UNK         0.4989 
     24 O         -55.2123  -32.1584   12.8065 O.2       13 UNK        -0.4996 
     25 CA        -53.8808  -30.6837   14.1517 C.3       12 UNK         0.0216 
     26 CB        -52.4147  -30.5920   13.6995 C.3       12 UNK        -0.1964 
     27 N         -54.2783  -29.4403   14.8242 N.am      12 UNK        -0.4276 
     28 C         -55.4064  -29.3105   15.5431 C.2       12 UNK         0.5020 
     29 O         -56.1763  -30.2489   15.7573 O.2       12 UNK        -0.5489 
     30 CA        -55.7698  -27.9140   16.0934 C.3       11 UNK         0.0294 
     31 CB        -56.4685  -27.9885   17.4684 C.3       11 UNK        -0.2019 
     32 N         -54.6594  -26.9553   16.1262 N.am      11 UNK        -0.4493 
     33 C         -53.5272  -27.0383   16.8374 C.2       11 UNK         0.4932 
     34 O         -53.2416  -27.9615   17.6019 O.2       11 UNK        -0.5029 
     35 CA        -52.5283  -25.8917   16.6198 C.3       10 UNK         0.0280 
     36 CB        -52.1205  -25.2518   17.9570 C.3       10 UNK        -0.1976 
     37 N         -51.3275  -26.3204   15.9021 N.am      10 UNK        -0.4242 
     38 C         -51.2782  -26.9442   14.7158 C.2       10 UNK         0.5072 
     39 O         -52.2784  -27.3263   14.1027 O.2       10 UNK        -0.5224 
     40 CA        -49.8746  -27.1694   14.1122 C.3       9 UNK         0.0343 
     41 CB        -49.9275  -27.4789   12.6066 C.3       9 UNK        -0.2003 
     42 N         -48.9941  -26.0153   14.3074 N.am      9 UNK        -0.4272 
     43 C         -48.2883  -25.7439   15.4125 C.2       9 UNK         0.4988 
     44 O         -48.2854  -26.4591   16.4141 O.2       9 UNK        -0.5108 
     45 CA        -47.5181  -24.4173   15.4218 C.3       8 UNK         0.0248 
     46 CB        -46.2620  -24.4964   14.5370 C.3       8 UNK        -0.2001 
     47 N         -48.3827  -23.3223   14.9768 N.am      8 UNK        -0.4140 
     48 C         -49.2544  -22.6806   15.7693 C.2       8 UNK         0.5028 
     49 O         -49.3598  -22.8924   16.9774 O.2       8 UNK        -0.5428 
     50 CA        -50.1562  -21.6126   15.1229 C.3       7 UNK         0.0264 
     51 CB        -49.5633  -20.2107   15.3401 C.3       7 UNK        -0.1988 
     52 N         -50.3706  -21.8239   13.6897 N.am      7 UNK        -0.4454 
     53 C         -51.2042  -22.7373   13.1683 C.2       7 UNK         0.5027 
     54 O         -51.9338  -23.4600   13.8461 O.2       7 UNK        -0.5083 
     55 CA        -51.2060  -22.8765   11.6292 C.3       6 UNK         0.0844 
     56 C56       -52.3154  -21.9870   11.0096 C.3       14 UNK        -0.0967 
     57 S57       -52.3723  -22.0888    9.1852 S.3       14 UNK        -0.2604 
     58 C58       -53.8092  -23.1728    8.9000 C.3       14 UNK         0.0134 
     59 N         -49.8887  -22.6155   11.0295 N.am      6 UNK        -0.4116 
     60 C         -48.7712  -23.3056   11.2880 C.2       5 UNK         0.5034 
     61 O         -48.7016  -24.2141   12.1190 O.2       5 UNK        -0.5045 
     62 CA        -47.4963  -22.8491   10.5625 C.3       5 UNK         0.0224 
     63 CB        -46.7423  -21.8148   11.4150 C.3       5 UNK        -0.1978 
     64 N         -46.6110  -23.9833   10.2929 N.am      5 UNK        -0.4737 
     65 C         -46.8467  -24.9027    9.3504 C.2       4 UNK         0.5027 
     66 O         -47.7895  -24.8390    8.5579 O.2       4 UNK        -0.5211 
     67 CA        -45.8843  -26.0988    9.3165 C.3       4 UNK         0.0297 
     68 CB        -46.3653  -27.1868   10.2917 C.3       4 UNK        -0.1993 
     69 N         -45.8492  -26.6550    7.9661 N.am      4 UNK        -0.4486 
     70 C         -44.8698  -26.4639    7.0711 C.2       3 UNK         0.4961 
     71 O         -43.8039  -25.9048    7.3327 O.2       3 UNK        -0.5105 
     72 CA        -45.1125  -26.9675    5.6310 C.3       3 UNK         0.0299 
     73 CB        -44.5062  -28.3675    5.4463 C.3       3 UNK        -0.1972 
     74 N         -46.5304  -27.0059    5.2637 N.am      3 UNK        -0.4305 
     75 C         -47.3287  -25.9299    5.1918 C.2       2 UNK         0.5006 
     76 O         -46.9043  -24.7733    5.1958 O.2       2 UNK        -0.5106 
     77 CA        -48.8541  -26.1610    5.1292 C.3       2 UNK         0.0296 
     78 CB        -49.4116  -25.7210    3.7647 C.3       2 UNK        -0.2002 
     79 N         -49.3105  -27.5297    5.4065 N.am      2 UNK        -0.4032 
     80 C         -49.0795  -28.2432    6.5192 C.2       1 UNK         0.5000 
     81 O         -48.3921  -27.8527    7.4636 O.2       1 UNK        -0.5238 
     82 H82       -46.7467  -32.5819    4.7999 H         1 UNK         0.0889 
     83 H83       -46.8506  -32.5155    6.5605 H         1 UNK         0.0889 
     84 H84       -45.6607  -31.5294    5.7095 H         1 UNK         0.0889 
     85 H85       -48.6212  -31.3585    7.2259 H         1 UNK         0.3028 
     86 H86       -50.3239  -29.7971    5.6935 H         1 UNK         0.0864 
     87 H87       -50.9294  -30.9070    7.8312 H         1 UNK         0.0720 
     88 H88       -49.9219  -29.8148    8.7325 H         1 UNK         0.0720 
     89 H89       -50.5254  -27.0125    8.7974 H         1 UNK         0.0814 
     90 H90       -50.9436  -28.1411   10.0604 H         1 UNK         0.0814 
     91 H91       -51.9960  -25.1082    8.2649 H         1 UNK         0.1469 
     92 H92       -55.2457  -24.2793   10.9431 H         1 UNK         0.1381 
     93 H93       -53.1091  -27.9842   11.2383 H         1 UNK         0.1206 
     94 H94       -55.4046  -25.7635   12.9835 H         1 UNK         0.0813 
     95 H95       -54.6840  -27.3403   12.9746 H         1 UNK         0.0813 
     96 H96       -55.4852  -28.2013    9.9227 H         1 UNK         0.0638 
     97 H97       -57.1628  -28.5935    9.8013 H         1 UNK         0.0638 
     98 H98       -57.0035  -30.3668   11.4559 H         1 UNK         0.0568 
     99 H99       -54.2307  -31.9908    8.9594 H         1 UNK         0.3450 
    100 H100      -53.7327  -31.0907   10.3692 H         1 UNK         0.3450 
    101 H101      -54.7260  -29.0731   12.3913 H         1 UNK         0.2987 
    102 H102      -53.9622  -31.5000   14.8728 H         1 UNK         0.0766 
    103 H103      -52.0809  -31.5362   13.2673 H         1 UNK         0.0798 
    104 H104      -51.7533  -30.3661   14.5362 H         1 UNK         0.0798 
    105 H105      -52.2737  -29.8205   12.9429 H         1 UNK         0.0798 
    106 H106      -53.6697  -28.6342   14.7041 H         1 UNK         0.3198 
    107 H107      -56.4922  -27.5048   15.3851 H         1 UNK         0.0843 
    108 H108      -55.8342  -28.4597   18.2198 H         1 UNK         0.0831 
    109 H109      -57.3886  -28.5715   17.4109 H         1 UNK         0.0831 
    110 H110      -56.7398  -26.9972   17.8312 H         1 UNK         0.0831 
    111 H111      -54.7592  -26.1590   15.5116 H         1 UNK         0.3133 
    112 H112      -53.0036  -25.1188   16.0121 H         1 UNK         0.0566 
    113 H113      -51.4942  -24.3734   17.8021 H         1 UNK         0.0814 
    114 H114      -51.5690  -25.9502   18.5879 H         1 UNK         0.0814 
    115 H115      -52.9976  -24.9272   18.5184 H         1 UNK         0.0814 
    116 H116      -50.4417  -26.1087   16.3429 H         1 UNK         0.3091 
    117 H117      -49.4430  -28.0353   14.6179 H         1 UNK         0.0702 
    118 H118      -48.9295  -27.6289   12.1950 H         1 UNK         0.0785 
    119 H119      -50.3998  -26.6668   12.0516 H         1 UNK         0.0785 
    120 H120      -50.4957  -28.3878   12.4132 H         1 UNK         0.0785 
    121 H121      -48.9469  -25.3579   13.5309 H         1 UNK         0.2998 
    122 H122      -47.1921  -24.2216   16.4459 H         1 UNK         0.0697 
    123 H123      -46.5021  -24.7140   13.4962 H         1 UNK         0.0825 
    124 H124      -45.5935  -25.2849   14.8852 H         1 UNK         0.0825 
    125 H125      -45.7002  -23.5627   14.5637 H         1 UNK         0.0825 
    126 H126      -48.4076  -23.1437   13.9823 H         1 UNK         0.3029 
    127 H127      -51.1241  -21.6555   15.6278 H         1 UNK         0.0897 
    128 H128      -48.5936  -20.1002   14.8528 H         1 UNK         0.0792 
    129 H129      -49.4180  -20.0096   16.4026 H         1 UNK         0.0792 
    130 H130      -50.2252  -19.4352   14.9540 H         1 UNK         0.0792 
    131 H131      -49.8279  -21.2531   13.0581 H         1 UNK         0.3086 
    132 H132      -51.4476  -23.9193   11.4123 H         1 UNK         0.0583 
    133 H133      -53.2923  -22.2567   11.4163 H         1 UNK         0.1020 
    134 H134      -52.1607  -20.9400   11.2777 H         1 UNK         0.1020 
    135 H135      -54.7080  -22.6789    9.2726 H         1 UNK         0.0694 
    136 H136      -53.9504  -23.2972    7.8255 H         1 UNK         0.0694 
    137 H137      -49.8664  -21.8883   10.3292 H         1 UNK         0.2989 
    138 H138      -47.7737  -22.3896    9.6107 H         1 UNK         0.1055 
    139 H139      -45.8426  -21.4651   10.9081 H         1 UNK         0.0806 
    140 H140      -46.4436  -22.2231   12.3812 H         1 UNK         0.0806 
    141 H141      -47.3613  -20.9378   11.6087 H         1 UNK         0.0806 
    142 H142      -45.8417  -24.1221   10.9317 H         1 UNK         0.3061 
    143 H143      -44.8895  -25.7659    9.6201 H         1 UNK         0.0734 
    144 H144      -47.3672  -27.5376   10.0395 H         1 UNK         0.0832 
    145 H145      -45.6978  -28.0484   10.2853 H         1 UNK         0.0832 
    146 H146      -46.4017  -26.8097   11.3148 H         1 UNK         0.0832 
    147 H147      -46.7310  -27.0621    7.6551 H         1 UNK         0.3156 
    148 H148      -44.6084  -26.2808    4.9479 H         1 UNK         0.0589 
    149 H149      -44.9618  -29.0937    6.1203 H         1 UNK         0.0808 
    150 H150      -43.4352  -28.3585    5.6529 H         1 UNK         0.0808 
    151 H151      -44.6369  -28.7279    4.4256 H         1 UNK         0.0808 
    152 H152      -46.9585  -27.9220    5.2001 H         1 UNK         0.3098 
    153 H153      -49.2914  -25.5216    5.8990 H         1 UNK         0.0720 
    154 H154      -49.1314  -24.6909    3.5393 H         1 UNK         0.0791 
    155 H155      -50.5007  -25.7671    3.7455 H         1 UNK         0.0791 
    156 H156      -49.0323  -26.3460    2.9551 H         1 UNK         0.0791 
    157 H157      -49.8448  -27.9680    4.6700 H         1 UNK         0.3028 
@<TRIPOS>BOND
     1    1    2 1    
     2    1   82 1    
     3    1   83 1    
     4    1   84 1    
     5    2    3 2    
     6    2    4 am   BACKBONE|DICT|INTERRES
     7    4    5 1    
     8    4   85 1    
     9    5    6 1    
    10    5   80 1    
    11    5   86 1    
    12    6    7 1    
    13    6   87 1    
    14    6   88 1    
    15    7    8 1    
    16    8    9 1    
    17    8   89 1    
    18    8   90 1    
    19    9   10 ar   
    20    9   14 ar   
    21   10   11 ar   
    22   10   91 1    
    23   11   12 ar   
    24   11   58 1    
    25   12   13 ar   
    26   12   92 1    
    27   13   14 ar   
    28   13   15 1    
    29   14   93 1    
    30   15   16 1    
    31   15   94 1    
    32   15   95 1    
    33   16   17 1    
    34   17   18 1    
    35   17   96 1    
    36   17   97 1    
    37   18   19 1    
    38   18   22 1    
    39   18   98 1    
    40   19   20 am   BACKBONE|DICT|INTERRES
    41   19   21 2    
    42   20   99 1    
    43   20  100 1    
    44   22   23 am   BACKBONE|DICT|INTERRES
    45   22  101 1    
    46   23   24 2    
    47   23   25 1    
    48   25   26 1    
    49   25   27 1    
    50   25  102 1    
    51   26  103 1    
    52   26  104 1    
    53   26  105 1    
    54   27   28 am   BACKBONE|DICT|INTERRES
    55   27  106 1    
    56   28   29 2    
    57   28   30 1    
    58   30   31 1    
    59   30   32 1    
    60   30  107 1    
    61   31  108 1    
    62   31  109 1    
    63   31  110 1    
    64   32   33 am   BACKBONE|DICT|INTERRES
    65   32  111 1    
    66   33   34 2    
    67   33   35 1    
    68   35   36 1    
    69   35   37 1    
    70   35  112 1    
    71   36  113 1    
    72   36  114 1    
    73   36  115 1    
    74   37   38 am   BACKBONE|DICT|INTERRES
    75   37  116 1    
    76   38   39 2    
    77   38   40 1    
    78   40   41 1    
    79   40   42 1    
    80   40  117 1    
    81   41  118 1    
    82   41  119 1    
    83   41  120 1    
    84   42   43 am   BACKBONE|DICT|INTERRES
    85   42  121 1    
    86   43   44 2    
    87   43   45 1    
    88   45   46 1    
    89   45   47 1    
    90   45  122 1    
    91   46  123 1    
    92   46  124 1    
    93   46  125 1    
    94   47   48 am   BACKBONE|DICT|INTERRES
    95   47  126 1    
    96   48   49 2    
    97   48   50 1    
    98   50   51 1    
    99   50   52 1    
   100   50  127 1    
   101   51  128 1    
   102   51  129 1    
   103   51  130 1    
   104   52   53 am   BACKBONE|DICT|INTERRES
   105   52  131 1    
   106   53   54 2    
   107   53   55 1    
   108   55   56 1    
   109   55   59 1    
   110   55  132 1    
   111   56   57 1    
   112   56  133 1    
   113   56  134 1    
   114   57   58 1    
   115   58  135 1    
   116   58  136 1    
   117   59   60 am   BACKBONE|DICT|INTERRES
   118   59  137 1    
   119   60   61 2    
   120   60   62 1    
   121   62   63 1    
   122   62   64 1    
   123   62  138 1    
   124   63  139 1    
   125   63  140 1    
   126   63  141 1    
   127   64   65 am   BACKBONE|DICT|INTERRES
   128   64  142 1    
   129   65   66 2    
   130   65   67 1    
   131   67   68 1    
   132   67   69 1    
   133   67  143 1    
   134   68  144 1    
   135   68  145 1    
   136   68  146 1    
   137   69   70 am   BACKBONE|DICT|INTERRES
   138   69  147 1    
   139   70   71 2    
   140   70   72 1    
   141   72   73 1    
   142   72   74 1    
   143   72  148 1    
   144   73  149 1    
   145   73  150 1    
   146   73  151 1    
   147   74   75 am   BACKBONE|DICT|INTERRES
   148   74  152 1    
   149   75   76 2    
   150   75   77 1    
   151   77   78 1    
   152   77   79 1    
   153   77  153 1    
   154   78  154 1    
   155   78  155 1    
   156   78  156 1    
   157   79   80 am   BACKBONE|DICT|INTERRES
   158   79  157 1    
   159   80   81 2    
@<TRIPOS>SUBSTRUCTURE
     1 UNK         1 GROUP             0       ****    0 ROOT    
