@<TRIPOS>MOLECULE
3R207
157   159    1
SMALL
USER_CHARGES


@<TRIPOS>ATOM
      1 CA        -45.0021  -30.4600    6.3019 C.3       0 UNK        -0.1975 
      2 C         -45.8624  -29.8472    5.2069 C.2       0 UNK         0.4852 
      3 O         -45.3748  -29.6233    4.0986 O.2       0 UNK        -0.5216 
      4 N         -47.1388  -29.5759    5.5111 N.am      1 UNK        -0.4461 
      5 CA        -48.1292  -28.9983    4.5924 C.3       1 UNK         0.0864 
      6 C6        -49.5577  -29.0238    5.1875 C.3       14 UNK        -0.0898 
      7 S7        -50.1198  -30.6585    5.7672 S.3       14 UNK        -0.2598 
      8 C8        -51.9295  -30.4797    5.6095 C.3       14 UNK         0.0286 
      9 C9        -52.4959  -29.4463    6.5772 C.ar      14 UNK        -0.0844 
     10 C10       -52.5144  -28.0922    6.2298 C.ar      14 UNK        -0.0881 
     11 C11       -53.0044  -27.1300    7.1153 C.ar      14 UNK        -0.0643 
     12 C12       -53.5306  -27.5383    8.3461 C.ar      14 UNK        -0.0930 
     13 C13       -53.5545  -28.8951    8.6930 C.ar      14 UNK        -0.0827 
     14 C14       -53.0219  -29.8416    7.8110 C.ar      14 UNK        -0.1249 
     15 C15       -54.1948  -29.3468    9.9987 C.3       14 UNK         0.0141 
     16 S16       -52.9712  -29.5555   11.3276 S.3       14 UNK        -0.2313 
     17 C17       -54.0217  -30.1525   12.6977 C.3       14 UNK        -0.0915 
     18 CA        -54.6151  -28.9840   13.5482 C.3       13 UNK         0.0968 
     19 C         -56.1372  -28.7269   13.3068 C.2       13 UNK         0.5732 
     20 N         -56.8758  -28.1988   14.2759 N.am      13 UNK        -0.7310 
     21 O         -56.6577  -28.9780   12.2234 O.2       13 UNK        -0.5035 
     22 N         -54.2159  -29.0418   14.9678 N.am      13 UNK        -0.4233 
     23 C         -54.6010  -29.9722   15.8523 C.2       13 UNK         0.4989 
     24 O         -55.3432  -30.9119   15.5641 O.2       13 UNK        -0.4996 
     25 CA        -54.0899  -29.8657   17.3004 C.3       12 UNK         0.0216 
     26 CB        -53.0959  -31.0034   17.6058 C.3       12 UNK        -0.1964 
     27 N         -53.4748  -28.5754   17.6433 N.am      12 UNK        -0.4276 
     28 C         -53.4653  -28.0528   18.8779 C.2       12 UNK         0.5020 
     29 O         -54.0872  -28.5315   19.8278 O.2       12 UNK        -0.5489 
     30 CA        -52.5906  -26.8124   19.1149 C.3       11 UNK         0.0294 
     31 CB        -51.0984  -27.1605   18.9639 C.3       11 UNK        -0.2019 
     32 N         -52.9236  -25.7137   18.2068 N.am      11 UNK        -0.4493 
     33 C         -53.3969  -24.5175   18.5886 C.2       11 UNK         0.4932 
     34 O         -53.6776  -24.2366   19.7546 O.2       11 UNK        -0.5029 
     35 CA        -53.5621  -23.4233   17.5119 C.3       10 UNK         0.0280 
     36 CB        -52.4623  -22.3592   17.6610 C.3       10 UNK        -0.1976 
     37 N         -53.5377  -23.9336   16.1403 N.am      10 UNK        -0.4242 
     38 C         -54.5334  -24.6324   15.5761 C.2       10 UNK         0.5072 
     39 O         -55.6216  -24.8289   16.1174 O.2       10 UNK        -0.5224 
     40 CA        -54.2602  -25.2705   14.2014 C.3       9 UNK         0.0343 
     41 CB        -54.8470  -24.4066   13.0758 C.3       9 UNK        -0.2003 
     42 N         -52.8408  -25.5372   13.9290 N.am      9 UNK        -0.4272 
     43 C         -52.0298  -26.2835   14.6980 C.2       9 UNK         0.4988 
     44 O         -52.4461  -26.9664   15.6345 O.2       9 UNK        -0.5108 
     45 CA        -50.5096  -26.2461   14.4492 C.3       8 UNK         0.0248 
     46 CB        -50.0369  -27.5975   13.8930 C.3       8 UNK        -0.2001 
     47 N         -50.0493  -25.1675   13.5712 N.am      8 UNK        -0.4140 
     48 C         -50.2653  -23.8538   13.7427 C.2       8 UNK         0.5028 
     49 O         -50.8083  -23.3731   14.7394 O.2       8 UNK        -0.5428 
     50 CA        -49.8978  -22.9348   12.5613 C.3       7 UNK         0.0264 
     51 CB        -48.5062  -22.3232   12.7743 C.3       7 UNK        -0.1988 
     52 N         -49.9570  -23.6103   11.2547 N.am      7 UNK        -0.4454 
     53 C         -51.0622  -24.1806   10.7432 C.2       7 UNK         0.5027 
     54 O         -52.1569  -24.1512   11.3056 O.2       7 UNK        -0.5083 
     55 CA        -50.9280  -24.9592    9.4236 C.3       6 UNK         0.0844 
     56 C56       -51.1940  -24.0497    8.2047 C.3       14 UNK        -0.0967 
     57 S57       -51.2857  -24.9927    6.6456 S.3       14 UNK        -0.2604 
     58 C58       -52.9850  -25.6611    6.7084 C.3       14 UNK         0.0134 
     59 N         -49.6372  -25.6457    9.3548 N.am      6 UNK        -0.4116 
     60 C         -49.4182  -26.8736    9.8443 C.2       5 UNK         0.5034 
     61 O         -50.2888  -27.5776   10.3487 O.2       5 UNK        -0.5045 
     62 CA        -47.9770  -27.4056    9.7930 C.3       5 UNK         0.0224 
     63 CB        -47.7410  -28.1817    8.4910 C.3       5 UNK        -0.1978 
     64 N         -46.9698  -26.3508    9.9279 N.am      5 UNK        -0.4737 
     65 C         -46.7858  -25.6338   11.0462 C.2       4 UNK         0.5027 
     66 O         -47.4246  -25.8106   12.0834 O.2       4 UNK        -0.5211 
     67 CA        -45.7483  -24.4996   10.9898 C.3       4 UNK         0.0297 
     68 CB        -44.3725  -25.0165   11.4378 C.3       4 UNK        -0.1993 
     69 N         -45.6214  -23.8600    9.6780 N.am      4 UNK        -0.4486 
     70 C         -46.6093  -23.3103    8.9569 C.2       3 UNK         0.4961 
     71 O         -47.7916  -23.2922    9.3067 O.2       3 UNK        -0.5105 
     72 CA        -46.2154  -22.7049    7.5956 C.3       3 UNK         0.0299 
     73 CB        -44.7090  -22.3804    7.4736 C.3       3 UNK        -0.1972 
     74 N         -46.6349  -23.5253    6.4524 N.am      3 UNK        -0.4305 
     75 C         -46.4372  -24.8391    6.2667 C.2       2 UNK         0.5006 
     76 O         -45.9516  -25.6062    7.1048 O.2       2 UNK        -0.5106 
     77 CA        -46.8133  -25.3814    4.8840 C.3       2 UNK         0.0296 
     78 CB        -45.6768  -25.1375    3.8731 C.3       2 UNK        -0.2002 
     79 N         -47.0795  -26.8089    5.0080 N.am      2 UNK        -0.4032 
     80 C         -47.8093  -27.5481    4.1644 C.2       1 UNK         0.5000 
     81 O         -48.2657  -27.1206    3.1021 O.2       1 UNK        -0.5238 
     82 H82       -44.1895  -29.7826    6.5630 H         1 UNK         0.0889 
     83 H83       -44.5672  -31.3976    5.9566 H         1 UNK         0.0889 
     84 H84       -45.5759  -30.6667    7.2052 H         1 UNK         0.0889 
     85 H85       -47.4968  -29.8326    6.4195 H         1 UNK         0.3028 
     86 H86       -48.1255  -29.6083    3.6865 H         1 UNK         0.0864 
     87 H87       -49.6431  -28.3282    6.0250 H         1 UNK         0.0720 
     88 H88       -50.2593  -28.6797    4.4260 H         1 UNK         0.0720 
     89 H89       -52.3928  -31.4508    5.7903 H         1 UNK         0.0814 
     90 H90       -52.1839  -30.2132    4.5825 H         1 UNK         0.0814 
     91 H91       -52.1333  -27.7737    5.2704 H         1 UNK         0.1469 
     92 H92       -53.9332  -26.8035    9.0296 H         1 UNK         0.1381 
     93 H93       -53.0284  -30.8886    8.0820 H         1 UNK         0.1206 
     94 H94       -54.9415  -28.6163   10.3099 H         1 UNK         0.0813 
     95 H95       -54.7280  -30.2861    9.8443 H         1 UNK         0.0813 
     96 H96       -53.3849  -30.7902   13.3123 H         1 UNK         0.0638 
     97 H97       -54.7928  -30.8201   12.3092 H         1 UNK         0.0638 
     98 H98       -54.1501  -28.0678   13.1898 H         1 UNK         0.0568 
     99 H99       -57.8547  -28.0300   14.1073 H         1 UNK         0.3450 
    100 H100      -56.4751  -27.9831   15.1739 H         1 UNK         0.3450 
    101 H101      -53.5978  -28.2946   15.2666 H         1 UNK         0.2987 
    102 H102      -54.9724  -30.0077   17.9282 H         1 UNK         0.0766 
    103 H103      -52.8278  -31.0250   18.6623 H         1 UNK         0.0798 
    104 H104      -52.1764  -30.8971   17.0289 H         1 UNK         0.0798 
    105 H105      -53.5234  -31.9777   17.3645 H         1 UNK         0.0798 
    106 H106      -52.9563  -28.0925   16.9127 H         1 UNK         0.3198 
    107 H107      -52.7490  -26.5075   20.1518 H         1 UNK         0.0843 
    108 H108      -50.8240  -27.9939   19.6122 H         1 UNK         0.0831 
    109 H109      -50.4682  -26.3153   19.2413 H         1 UNK         0.0831 
    110 H110      -50.8429  -27.4436   17.9421 H         1 UNK         0.0831 
    111 H111      -52.7647  -25.8855   17.2203 H         1 UNK         0.3133 
    112 H112      -54.5267  -22.9403   17.6816 H         1 UNK         0.0566 
    113 H113      -52.5990  -21.5440   16.9502 H         1 UNK         0.0814 
    114 H114      -52.4719  -21.9216   18.6603 H         1 UNK         0.0814 
    115 H115      -51.4694  -22.7811   17.4985 H         1 UNK         0.0814 
    116 H116      -52.6752  -23.7987   15.6203 H         1 UNK         0.3091 
    117 H117      -54.7902  -26.2192   14.2028 H         1 UNK         0.0702 
    118 H118      -54.7636  -24.9057   12.1101 H         1 UNK         0.0785 
    119 H119      -54.3387  -23.4444   13.0008 H         1 UNK         0.0785 
    120 H120      -55.9060  -24.2064   13.2454 H         1 UNK         0.0785 
    121 H121      -52.4383  -25.0285   13.1480 H         1 UNK         0.2998 
    122 H122      -50.0337  -26.0904   15.4191 H         1 UNK         0.0697 
    123 H123      -50.5229  -27.8337   12.9461 H         1 UNK         0.0825 
    124 H124      -50.2692  -28.4083   14.5850 H         1 UNK         0.0825 
    125 H125      -48.9588  -27.6098   13.7309 H         1 UNK         0.0825 
    126 H126      -49.5244  -25.4508   12.7523 H         1 UNK         0.3029 
    127 H127      -50.6286  -22.1236   12.5371 H         1 UNK         0.0897 
    128 H128      -48.1787  -21.7467   11.9087 H         1 UNK         0.0792 
    129 H129      -48.5103  -21.6498   13.6323 H         1 UNK         0.0792 
    130 H130      -47.7618  -23.0918   12.9771 H         1 UNK         0.0792 
    131 H131      -49.1042  -23.6211   10.7015 H         1 UNK         0.3086 
    132 H132      -51.7192  -25.7097    9.4391 H         1 UNK         0.0583 
    133 H133      -52.1229  -23.4893    8.3294 H         1 UNK         0.1020 
    134 H134      -50.4043  -23.3020    8.1070 H         1 UNK         0.1020 
    135 H135      -53.6067  -25.0640    7.3769 H         1 UNK         0.0694 
    136 H136      -53.4314  -25.5647    5.7176 H         1 UNK         0.0694 
    137 H137      -48.8556  -25.1059    9.0050 H         1 UNK         0.2989 
    138 H138      -47.8535  -28.0955   10.6312 H         1 UNK         0.1055 
    139 H139      -48.4370  -29.0181    8.4088 H         1 UNK         0.0806 
    140 H140      -46.7301  -28.5871    8.4480 H         1 UNK         0.0806 
    141 H141      -47.8923  -27.5439    7.6213 H         1 UNK         0.0806 
    142 H142      -46.4287  -26.1154    9.1014 H         1 UNK         0.3061 
    143 H143      -46.0600  -23.7267   11.6911 H         1 UNK         0.0734 
    144 H144      -44.4319  -25.4770   12.4252 H         1 UNK         0.0832 
    145 H145      -43.9802  -25.7681   10.7514 H         1 UNK         0.0832 
    146 H146      -43.6447  -24.2076   11.5045 H         1 UNK         0.0832 
    147 H147      -44.6970  -23.8547    9.2722 H         1 UNK         0.3156 
    148 H148      -46.7608  -21.7630    7.5185 H         1 UNK         0.0589 
    149 H149      -44.0920  -23.2794    7.4436 H         1 UNK         0.0808 
    150 H150      -44.5065  -21.8191    6.5613 H         1 UNK         0.0808 
    151 H151      -44.3660  -21.7635    8.3057 H         1 UNK         0.0808 
    152 H152      -47.0813  -23.0120    5.7048 H         1 UNK         0.3098 
    153 H153      -47.7229  -24.8786    4.5480 H         1 UNK         0.0720 
    154 H154      -45.4498  -24.0745    3.7834 H         1 UNK         0.0791 
    155 H155      -45.9442  -25.4944    2.8784 H         1 UNK         0.0791 
    156 H156      -44.7588  -25.6444    4.1735 H         1 UNK         0.0791 
    157 H157      -46.7300  -27.2206    5.8638 H         1 UNK         0.3028 
@<TRIPOS>BOND
     1    1    2 1    
     2    1   82 1    
     3    1   83 1    
     4    1   84 1    
     5    2    3 2    
     6    2    4 am   BACKBONE|DICT|INTERRES
     7    4    5 1    
     8    4   85 1    
     9    5    6 1    
    10    5   80 1    
    11    5   86 1    
    12    6    7 1    
    13    6   87 1    
    14    6   88 1    
    15    7    8 1    
    16    8    9 1    
    17    8   89 1    
    18    8   90 1    
    19    9   10 ar   
    20    9   14 ar   
    21   10   11 ar   
    22   10   91 1    
    23   11   12 ar   
    24   11   58 1    
    25   12   13 ar   
    26   12   92 1    
    27   13   14 ar   
    28   13   15 1    
    29   14   93 1    
    30   15   16 1    
    31   15   94 1    
    32   15   95 1    
    33   16   17 1    
    34   17   18 1    
    35   17   96 1    
    36   17   97 1    
    37   18   19 1    
    38   18   22 1    
    39   18   98 1    
    40   19   20 am   BACKBONE|DICT|INTERRES
    41   19   21 2    
    42   20   99 1    
    43   20  100 1    
    44   22   23 am   BACKBONE|DICT|INTERRES
    45   22  101 1    
    46   23   24 2    
    47   23   25 1    
    48   25   26 1    
    49   25   27 1    
    50   25  102 1    
    51   26  103 1    
    52   26  104 1    
    53   26  105 1    
    54   27   28 am   BACKBONE|DICT|INTERRES
    55   27  106 1    
    56   28   29 2    
    57   28   30 1    
    58   30   31 1    
    59   30   32 1    
    60   30  107 1    
    61   31  108 1    
    62   31  109 1    
    63   31  110 1    
    64   32   33 am   BACKBONE|DICT|INTERRES
    65   32  111 1    
    66   33   34 2    
    67   33   35 1    
    68   35   36 1    
    69   35   37 1    
    70   35  112 1    
    71   36  113 1    
    72   36  114 1    
    73   36  115 1    
    74   37   38 am   BACKBONE|DICT|INTERRES
    75   37  116 1    
    76   38   39 2    
    77   38   40 1    
    78   40   41 1    
    79   40   42 1    
    80   40  117 1    
    81   41  118 1    
    82   41  119 1    
    83   41  120 1    
    84   42   43 am   BACKBONE|DICT|INTERRES
    85   42  121 1    
    86   43   44 2    
    87   43   45 1    
    88   45   46 1    
    89   45   47 1    
    90   45  122 1    
    91   46  123 1    
    92   46  124 1    
    93   46  125 1    
    94   47   48 am   BACKBONE|DICT|INTERRES
    95   47  126 1    
    96   48   49 2    
    97   48   50 1    
    98   50   51 1    
    99   50   52 1    
   100   50  127 1    
   101   51  128 1    
   102   51  129 1    
   103   51  130 1    
   104   52   53 am   BACKBONE|DICT|INTERRES
   105   52  131 1    
   106   53   54 2    
   107   53   55 1    
   108   55   56 1    
   109   55   59 1    
   110   55  132 1    
   111   56   57 1    
   112   56  133 1    
   113   56  134 1    
   114   57   58 1    
   115   58  135 1    
   116   58  136 1    
   117   59   60 am   BACKBONE|DICT|INTERRES
   118   59  137 1    
   119   60   61 2    
   120   60   62 1    
   121   62   63 1    
   122   62   64 1    
   123   62  138 1    
   124   63  139 1    
   125   63  140 1    
   126   63  141 1    
   127   64   65 am   BACKBONE|DICT|INTERRES
   128   64  142 1    
   129   65   66 2    
   130   65   67 1    
   131   67   68 1    
   132   67   69 1    
   133   67  143 1    
   134   68  144 1    
   135   68  145 1    
   136   68  146 1    
   137   69   70 am   BACKBONE|DICT|INTERRES
   138   69  147 1    
   139   70   71 2    
   140   70   72 1    
   141   72   73 1    
   142   72   74 1    
   143   72  148 1    
   144   73  149 1    
   145   73  150 1    
   146   73  151 1    
   147   74   75 am   BACKBONE|DICT|INTERRES
   148   74  152 1    
   149   75   76 2    
   150   75   77 1    
   151   77   78 1    
   152   77   79 1    
   153   77  153 1    
   154   78  154 1    
   155   78  155 1    
   156   78  156 1    
   157   79   80 am   BACKBONE|DICT|INTERRES
   158   79  157 1    
   159   80   81 2    
@<TRIPOS>SUBSTRUCTURE
     1 UNK         1 GROUP             0       ****    0 ROOT    
