@<TRIPOS>MOLECULE
3R207
157   159    1
SMALL
USER_CHARGES


@<TRIPOS>ATOM
      1 CA        -46.7179  -32.0594    5.4432 C.3       0 UNK        -0.1975 
      2 C         -47.9188  -32.1618    6.3808 C.2       0 UNK         0.4852 
      3 O         -48.0166  -33.1346    7.1264 O.2       0 UNK        -0.5216 
      4 N         -48.8587  -31.2036    6.3849 N.am      1 UNK        -0.4461 
      5 CA        -48.8736  -29.9609    5.5995 C.3       1 UNK         0.0864 
      6 C6        -50.2784  -29.3086    5.6323 C.3       14 UNK        -0.0898 
      7 S7        -50.5785  -28.2012    4.2138 S.3       14 UNK        -0.2598 
      8 C8        -52.3942  -28.2506    4.0989 C.3       14 UNK         0.0286 
      9 C9        -53.0508  -27.6619    5.3388 C.ar      14 UNK        -0.0844 
     10 C10       -53.1139  -26.2757    5.5077 C.ar      14 UNK        -0.0881 
     11 C11       -53.7053  -25.7251    6.6491 C.ar      14 UNK        -0.0643 
     12 C12       -54.2643  -26.5762    7.6084 C.ar      14 UNK        -0.0930 
     13 C13       -54.2080  -27.9636    7.4508 C.ar      14 UNK        -0.0827 
     14 C14       -53.5963  -28.5013    6.3149 C.ar      14 UNK        -0.1249 
     15 C15       -54.8384  -28.8775    8.4908 C.3       14 UNK         0.0141 
     16 S16       -53.9134  -28.8762   10.0598 S.3       14 UNK        -0.2313 
     17 C17       -54.9323  -30.0452   11.0214 C.3       14 UNK        -0.0915 
     18 CA        -56.0944  -29.3409   11.7841 C.3       13 UNK         0.0968 
     19 C         -57.1978  -30.3318   12.2740 C.2       13 UNK         0.5732 
     20 N         -57.9155  -30.0387   13.3522 N.am      13 UNK        -0.7310 
     21 O         -57.4402  -31.3630   11.6509 O.2       13 UNK        -0.5035 
     22 N         -55.6180  -28.3869   12.8049 N.am      13 UNK        -0.4233 
     23 C         -54.9977  -28.7013   13.9504 C.2       13 UNK         0.4989 
     24 O         -54.7358  -29.8537   14.3051 O.2       13 UNK        -0.4996 
     25 CA        -54.6771  -27.5200   14.8842 C.3       12 UNK         0.0216 
     26 CB        -55.9403  -27.0609   15.6332 C.3       12 UNK        -0.1964 
     27 N         -53.6460  -27.8657   15.8661 N.am      12 UNK        -0.4276 
     28 C         -52.3456  -27.9580   15.5736 C.2       12 UNK         0.5020 
     29 O         -51.8709  -27.7046   14.4645 O.2       12 UNK        -0.5489 
     30 CA        -51.4038  -28.4014   16.6968 C.3       11 UNK         0.0294 
     31 CB        -51.3196  -29.9388   16.7618 C.3       11 UNK        -0.2019 
     32 N         -50.1052  -27.8197   16.3835 N.am      11 UNK        -0.4493 
     33 C         -49.0165  -27.7749   17.1549 C.2       11 UNK         0.4932 
     34 O         -48.9363  -28.2733   18.2777 O.2       11 UNK        -0.5029 
     35 CA        -47.8251  -27.0051   16.5663 C.3       10 UNK         0.0280 
     36 CB        -47.2320  -27.7411   15.3515 C.3       10 UNK        -0.1976 
     37 N         -48.2219  -25.6477   16.1846 N.am      10 UNK        -0.4242 
     38 C         -48.4237  -24.6467   17.0548 C.2       10 UNK         0.5072 
     39 O         -48.2120  -24.7316   18.2652 O.2       10 UNK        -0.5224 
     40 CA        -48.9630  -23.3298   16.4793 C.3       9 UNK         0.0343 
     41 CB        -47.8320  -22.5127   15.8324 C.3       9 UNK        -0.2003 
     42 N         -50.0064  -23.5761   15.4875 N.am      9 UNK        -0.4272 
     43 C         -51.3078  -23.7429   15.7536 C.2       9 UNK         0.4988 
     44 O         -51.7863  -23.6767   16.8872 O.2       9 UNK        -0.5108 
     45 CA        -52.2216  -24.0373   14.5455 C.3       8 UNK         0.0248 
     46 CB        -53.7054  -23.7084   14.8128 C.3       8 UNK        -0.2001 
     47 N         -51.7567  -23.4171   13.2975 N.am      8 UNK        -0.4140 
     48 C         -51.5955  -22.1081   13.0430 C.2       8 UNK         0.5028 
     49 O         -51.8985  -21.2147   13.8350 O.2       8 UNK        -0.5428 
     50 CA        -50.9532  -21.7104   11.6979 C.3       7 UNK         0.0264 
     51 CB        -49.5522  -21.1222   11.9385 C.3       7 UNK        -0.1988 
     52 N         -50.8401  -22.8109   10.7359 N.am      7 UNK        -0.4454 
     53 C         -51.8644  -23.3421   10.0535 C.2       7 UNK         0.5027 
     54 O         -53.0173  -22.9139   10.1211 O.2       7 UNK        -0.5083 
     55 CA        -51.5663  -24.6060    9.2140 C.3       6 UNK         0.0844 
     56 C56       -51.0222  -24.2822    7.8002 C.3       14 UNK        -0.0967 
     57 S57       -52.1445  -23.3831    6.6677 S.3       14 UNK        -0.2604 
     58 C58       -53.7627  -24.2141    6.8483 C.3       14 UNK         0.0134 
     59 N         -50.6801  -25.5436    9.9106 N.am      6 UNK        -0.4116 
     60 C         -50.9573  -26.1379   11.0800 C.2       5 UNK         0.5034 
     61 O         -52.0057  -25.9705   11.6995 O.2       5 UNK        -0.5045 
     62 CA        -49.8447  -27.0005   11.6915 C.3       5 UNK         0.0224 
     63 CB        -49.7862  -28.3882   11.0322 C.3       5 UNK        -0.1978 
     64 N         -48.5485  -26.3252   11.5877 N.am      5 UNK        -0.4737 
     65 C         -48.1585  -25.3458   12.4159 C.2       4 UNK         0.5027 
     66 O         -48.7928  -25.0116   13.4156 O.2       4 UNK        -0.5211 
     67 CA        -46.8528  -24.6013   12.0896 C.3       4 UNK         0.0297 
     68 CB        -45.6903  -25.1745   12.9133 C.3       4 UNK        -0.1993 
     69 N         -46.5050  -24.6244   10.6675 N.am      4 UNK        -0.4486 
     70 C         -47.1894  -23.9852    9.7080 C.2       3 UNK         0.4961 
     71 O         -48.1789  -23.2875    9.9209 O.2       3 UNK        -0.5105 
     72 CA        -46.7327  -24.2247    8.2593 C.3       3 UNK         0.0299 
     73 CB        -45.5879  -23.2700    7.8866 C.3       3 UNK        -0.1972 
     74 N         -46.3248  -25.6125    8.0146 N.am      3 UNK        -0.4305 
     75 C         -47.1344  -26.6707    8.1536 C.2       2 UNK         0.5006 
     76 O         -48.3166  -26.5891    8.4989 O.2       2 UNK        -0.5106 
     77 CA        -46.4951  -28.0527    7.9594 C.3       2 UNK         0.0296 
     78 CB        -46.0398  -28.6222    9.3134 C.3       2 UNK        -0.2002 
     79 N         -47.4415  -28.9807    7.3440 N.am      2 UNK        -0.4032 
     80 C         -47.7844  -28.9607    6.0484 C.2       1 UNK         0.5000 
     81 O         -47.2538  -28.2230    5.2159 O.2       1 UNK        -0.5238 
     82 H82       -47.0213  -31.8206    4.4248 H         1 UNK         0.0889 
     83 H83       -46.0181  -31.3007    5.7918 H         1 UNK         0.0889 
     84 H84       -46.1841  -33.0090    5.4076 H         1 UNK         0.0889 
     85 H85       -49.6462  -31.3250    7.0059 H         1 UNK         0.3028 
     86 H86       -48.6600  -30.2318    4.5639 H         1 UNK         0.0864 
     87 H87       -51.0422  -30.0873    5.6005 H         1 UNK         0.0720 
     88 H88       -50.4488  -28.7599    6.5615 H         1 UNK         0.0720 
     89 H89       -52.7223  -29.2784    3.9354 H         1 UNK         0.0814 
     90 H90       -52.7087  -27.6882    3.2186 H         1 UNK         0.0814 
     91 H91       -52.6871  -25.6243    4.7572 H         1 UNK         0.1469 
     92 H92       -54.7383  -26.1621    8.4880 H         1 UNK         0.1381 
     93 H93       -53.5507  -29.5741    6.1861 H         1 UNK         0.1206 
     94 H94       -54.8996  -29.8992    8.1123 H         1 UNK         0.0813 
     95 H95       -55.8643  -28.5553    8.6739 H         1 UNK         0.0813 
     96 H96       -54.2839  -30.5787   11.7176 H         1 UNK         0.0638 
     97 H97       -55.3107  -30.8019   10.3324 H         1 UNK         0.0638 
     98 H98       -56.6223  -28.7268   11.0543 H         1 UNK         0.0568 
     99 H99       -58.6339  -30.6781   13.6529 H         1 UNK         0.3450 
    100 H100      -57.7436  -29.1924   13.8694 H         1 UNK         0.3450 
    101 H101      -55.8044  -27.4151   12.6059 H         1 UNK         0.2987 
    102 H102      -54.3110  -26.6914   14.2733 H         1 UNK         0.0766 
    103 H103      -56.7156  -26.7351   14.9387 H         1 UNK         0.0798 
    104 H104      -56.3628  -27.8617   16.2418 H         1 UNK         0.0798 
    105 H105      -55.7272  -26.2178   16.2909 H         1 UNK         0.0798 
    106 H106      -53.9652  -28.1384   16.7846 H         1 UNK         0.3198 
    107 H107      -51.7550  -27.9987   17.6491 H         1 UNK         0.0843 
    108 H108      -52.3023  -30.3769   16.9408 H         1 UNK         0.0831 
    109 H109      -50.6674  -30.2734   17.5683 H         1 UNK         0.0831 
    110 H110      -50.9415  -30.3585   15.8286 H         1 UNK         0.0831 
    111 H111      -50.0906  -27.3867   15.4669 H         1 UNK         0.3133 
    112 H112      -47.0499  -26.9436   17.3333 H         1 UNK         0.0566 
    113 H113      -46.3081  -27.2699   15.0186 H         1 UNK         0.0814 
    114 H114      -46.9900  -28.7747   15.6028 H         1 UNK         0.0814 
    115 H115      -47.9206  -27.7642   14.5060 H         1 UNK         0.0814 
    116 H116      -48.4296  -25.4792   15.2035 H         1 UNK         0.3091 
    117 H117      -49.3794  -22.7432   17.3012 H         1 UNK         0.0702 
    118 H118      -48.2000  -21.5565   15.4598 H         1 UNK         0.0785 
    119 H119      -47.3732  -23.0420   14.9964 H         1 UNK         0.0785 
    120 H120      -47.0440  -22.2980   16.5554 H         1 UNK         0.0785 
    121 H121      -49.6900  -23.7590   14.5397 H         1 UNK         0.2998 
    122 H122      -52.1527  -25.1112   14.3780 H         1 UNK         0.0697 
    123 H123      -53.8509  -22.6529   15.0440 H         1 UNK         0.0825 
    124 H124      -54.0859  -24.2821   15.6587 H         1 UNK         0.0825 
    125 H125      -54.3260  -23.9537   13.9511 H         1 UNK         0.0825 
    126 H126      -51.5136  -24.0761   12.5676 H         1 UNK         0.3029 
    127 H127      -51.5810  -20.9332   11.2567 H         1 UNK         0.0897 
    128 H128      -49.0999  -20.7792   11.0077 H         1 UNK         0.0792 
    129 H129      -49.5951  -20.2651   12.6119 H         1 UNK         0.0792 
    130 H130      -48.8806  -21.8556   12.3867 H         1 UNK         0.0792 
    131 H131      -49.9000  -23.1626   10.5597 H         1 UNK         0.3086 
    132 H132      -52.5111  -25.1357    9.1100 H         1 UNK         0.0583 
    133 H133      -50.0941  -23.7131    7.8762 H         1 UNK         0.1020 
    134 H134      -50.7506  -25.2131    7.2982 H         1 UNK         0.1020 
    135 H135      -54.1802  -23.9645    7.8246 H         1 UNK         0.0694 
    136 H136      -54.4497  -23.7942    6.1126 H         1 UNK         0.0694 
    137 H137      -49.8007  -25.7665    9.4533 H         1 UNK         0.2989 
    138 H138      -50.0788  -27.1453   12.7472 H         1 UNK         0.1055 
    139 H139      -50.7362  -28.9102   11.1573 H         1 UNK         0.0806 
    140 H140      -49.0146  -29.0098   11.4862 H         1 UNK         0.0806 
    141 H141      -49.5895  -28.3306    9.9621 H         1 UNK         0.0806 
    142 H142      -47.9999  -26.5133   10.7604 H         1 UNK         0.3061 
    143 H143      -46.9925  -23.5584   12.3817 H         1 UNK         0.0734 
    144 H144      -45.8983  -25.1002   13.9816 H         1 UNK         0.0832 
    145 H145      -45.5108  -26.2262   12.6859 H         1 UNK         0.0832 
    146 H146      -44.7654  -24.6273   12.7306 H         1 UNK         0.0832 
    147 H147      -45.7024  -25.1752   10.3998 H         1 UNK         0.3156 
    148 H148      -47.5807  -24.0098    7.6059 H         1 UNK         0.0589 
    149 H149      -44.6941  -23.4524    8.4847 H         1 UNK         0.0808 
    150 H150      -45.3152  -23.3683    6.8357 H         1 UNK         0.0808 
    151 H151      -45.8803  -22.2311    8.0468 H         1 UNK         0.0808 
    152 H152      -45.3660  -25.7630    7.7337 H         1 UNK         0.3098 
    153 H153      -45.6232  -27.9574    7.3083 H         1 UNK         0.0720 
    154 H154      -45.5654  -29.5964    9.1928 H         1 UNK         0.0791 
    155 H155      -46.8735  -28.7409   10.0064 H         1 UNK         0.0791 
    156 H156      -45.3098  -27.9670    9.7906 H         1 UNK         0.0791 
    157 H157      -47.9370  -29.6049    7.9630 H         1 UNK         0.3028 
@<TRIPOS>BOND
     1    1    2 1    
     2    1   82 1    
     3    1   83 1    
     4    1   84 1    
     5    2    3 2    
     6    2    4 am   BACKBONE|DICT|INTERRES
     7    4    5 1    
     8    4   85 1    
     9    5    6 1    
    10    5   80 1    
    11    5   86 1    
    12    6    7 1    
    13    6   87 1    
    14    6   88 1    
    15    7    8 1    
    16    8    9 1    
    17    8   89 1    
    18    8   90 1    
    19    9   10 ar   
    20    9   14 ar   
    21   10   11 ar   
    22   10   91 1    
    23   11   12 ar   
    24   11   58 1    
    25   12   13 ar   
    26   12   92 1    
    27   13   14 ar   
    28   13   15 1    
    29   14   93 1    
    30   15   16 1    
    31   15   94 1    
    32   15   95 1    
    33   16   17 1    
    34   17   18 1    
    35   17   96 1    
    36   17   97 1    
    37   18   19 1    
    38   18   22 1    
    39   18   98 1    
    40   19   20 am   BACKBONE|DICT|INTERRES
    41   19   21 2    
    42   20   99 1    
    43   20  100 1    
    44   22   23 am   BACKBONE|DICT|INTERRES
    45   22  101 1    
    46   23   24 2    
    47   23   25 1    
    48   25   26 1    
    49   25   27 1    
    50   25  102 1    
    51   26  103 1    
    52   26  104 1    
    53   26  105 1    
    54   27   28 am   BACKBONE|DICT|INTERRES
    55   27  106 1    
    56   28   29 2    
    57   28   30 1    
    58   30   31 1    
    59   30   32 1    
    60   30  107 1    
    61   31  108 1    
    62   31  109 1    
    63   31  110 1    
    64   32   33 am   BACKBONE|DICT|INTERRES
    65   32  111 1    
    66   33   34 2    
    67   33   35 1    
    68   35   36 1    
    69   35   37 1    
    70   35  112 1    
    71   36  113 1    
    72   36  114 1    
    73   36  115 1    
    74   37   38 am   BACKBONE|DICT|INTERRES
    75   37  116 1    
    76   38   39 2    
    77   38   40 1    
    78   40   41 1    
    79   40   42 1    
    80   40  117 1    
    81   41  118 1    
    82   41  119 1    
    83   41  120 1    
    84   42   43 am   BACKBONE|DICT|INTERRES
    85   42  121 1    
    86   43   44 2    
    87   43   45 1    
    88   45   46 1    
    89   45   47 1    
    90   45  122 1    
    91   46  123 1    
    92   46  124 1    
    93   46  125 1    
    94   47   48 am   BACKBONE|DICT|INTERRES
    95   47  126 1    
    96   48   49 2    
    97   48   50 1    
    98   50   51 1    
    99   50   52 1    
   100   50  127 1    
   101   51  128 1    
   102   51  129 1    
   103   51  130 1    
   104   52   53 am   BACKBONE|DICT|INTERRES
   105   52  131 1    
   106   53   54 2    
   107   53   55 1    
   108   55   56 1    
   109   55   59 1    
   110   55  132 1    
   111   56   57 1    
   112   56  133 1    
   113   56  134 1    
   114   57   58 1    
   115   58  135 1    
   116   58  136 1    
   117   59   60 am   BACKBONE|DICT|INTERRES
   118   59  137 1    
   119   60   61 2    
   120   60   62 1    
   121   62   63 1    
   122   62   64 1    
   123   62  138 1    
   124   63  139 1    
   125   63  140 1    
   126   63  141 1    
   127   64   65 am   BACKBONE|DICT|INTERRES
   128   64  142 1    
   129   65   66 2    
   130   65   67 1    
   131   67   68 1    
   132   67   69 1    
   133   67  143 1    
   134   68  144 1    
   135   68  145 1    
   136   68  146 1    
   137   69   70 am   BACKBONE|DICT|INTERRES
   138   69  147 1    
   139   70   71 2    
   140   70   72 1    
   141   72   73 1    
   142   72   74 1    
   143   72  148 1    
   144   73  149 1    
   145   73  150 1    
   146   73  151 1    
   147   74   75 am   BACKBONE|DICT|INTERRES
   148   74  152 1    
   149   75   76 2    
   150   75   77 1    
   151   77   78 1    
   152   77   79 1    
   153   77  153 1    
   154   78  154 1    
   155   78  155 1    
   156   78  156 1    
   157   79   80 am   BACKBONE|DICT|INTERRES
   158   79  157 1    
   159   80   81 2    
@<TRIPOS>SUBSTRUCTURE
     1 UNK         1 GROUP             0       ****    0 ROOT    
