@<TRIPOS>MOLECULE
3R207
157   159    1
SMALL
USER_CHARGES


@<TRIPOS>ATOM
      1 CA        -51.0270  -31.9335    4.2906 C.3       0 UNK        -0.1975 
      2 C         -50.9573  -30.6225    5.0600 C.2       0 UNK         0.4852 
      3 O         -51.9180  -29.8517    5.0425 O.2       0 UNK        -0.5216 
      4 N         -49.8318  -30.3696    5.7404 N.am      1 UNK        -0.4461 
      5 CA        -49.5655  -29.1461    6.5028 C.3       1 UNK         0.0864 
      6 C6        -48.3188  -29.2997    7.4119 C.3       14 UNK        -0.0898 
      7 S7        -48.5303  -30.6051    8.6743 S.3       14 UNK        -0.2598 
      8 C8        -48.7159  -29.6508   10.2168 C.3       14 UNK         0.0286 
      9 C9        -50.1161  -29.0770   10.3773 C.ar      14 UNK        -0.0844 
     10 C10       -50.4766  -27.9105    9.7010 C.ar      14 UNK        -0.0881 
     11 C11       -51.7548  -27.3598    9.8443 C.ar      14 UNK        -0.0643 
     12 C12       -52.6660  -27.9799   10.7020 C.ar      14 UNK        -0.0930 
     13 C13       -52.3180  -29.1437   11.3943 C.ar      14 UNK        -0.0827 
     14 C14       -51.0446  -29.6938   11.2207 C.ar      14 UNK        -0.1249 
     15 C15       -53.3057  -29.7841   12.3579 C.3       14 UNK         0.0141 
     16 S16       -54.1290  -31.2501   11.6665 S.3       14 UNK        -0.2313 
     17 C17       -55.1262  -30.5696   10.2922 C.3       14 UNK        -0.0915 
     18 CA        -56.5871  -30.1742   10.6466 C.3       13 UNK         0.0968 
     19 C         -57.4018  -31.3370   11.2905 C.2       13 UNK         0.5732 
     20 N         -57.9112  -31.1985   12.5091 N.am      13 UNK        -0.7310 
     21 O         -57.5868  -32.3776   10.6634 O.2       13 UNK        -0.5035 
     22 N         -56.6560  -28.8779   11.3459 N.am      13 UNK        -0.4233 
     23 C         -57.7448  -28.0971   11.3792 C.2       13 UNK         0.4989 
     24 O         -58.8131  -28.4017   10.8454 O.2       13 UNK        -0.4996 
     25 CA        -57.6221  -26.7572   12.1300 C.3       12 UNK         0.0216 
     26 CB        -58.9712  -26.0217   12.2532 C.3       12 UNK        -0.1964 
     27 N         -57.0574  -26.9316   13.4709 N.am      12 UNK        -0.4276 
     28 C         -55.7611  -26.8112   13.7745 C.2       12 UNK         0.5020 
     29 O         -54.8778  -26.6065   12.9391 O.2       12 UNK        -0.5489 
     30 CA        -55.3841  -26.9746   15.2495 C.3       11 UNK         0.0294 
     31 CB        -55.2488  -28.4594   15.6325 C.3       11 UNK        -0.2019 
     32 N         -54.1171  -26.2885   15.4827 N.am      11 UNK        -0.4493 
     33 C         -53.7482  -25.7092   16.6302 C.2       11 UNK         0.4932 
     34 O         -54.4436  -25.7104   17.6481 O.2       11 UNK        -0.5029 
     35 CA        -52.3725  -25.0121   16.6316 C.3       10 UNK         0.0280 
     36 CB        -51.9290  -24.5489   18.0353 C.3       10 UNK        -0.1976 
     37 N         -51.3172  -25.8124   15.9999 N.am      10 UNK        -0.4242 
     38 C         -50.9064  -27.0424   16.3493 C.2       10 UNK         0.5072 
     39 O         -51.3973  -27.7104   17.2604 O.2       10 UNK        -0.5224 
     40 CA        -49.7230  -27.6200   15.5550 C.3       9 UNK         0.0343 
     41 CB        -50.1860  -28.1363   14.1843 C.3       9 UNK        -0.2003 
     42 N         -48.6373  -26.6547   15.3748 N.am      9 UNK        -0.4272 
     43 C         -47.8765  -26.1607   16.3636 C.2       9 UNK         0.4988 
     44 O         -47.9643  -26.5092   17.5414 O.2       9 UNK        -0.5108 
     45 CA        -46.8480  -25.0857   15.9741 C.3       8 UNK         0.0248 
     46 CB        -45.5833  -25.7220   15.3739 C.3       8 UNK        -0.2001 
     47 N         -47.4104  -24.1114   15.0375 N.am      8 UNK        -0.4140 
     48 C         -48.3007  -23.1667   15.3746 C.2       8 UNK         0.5028 
     49 O         -48.6666  -22.9480   16.5296 O.2       8 UNK        -0.5428 
     50 CA        -48.8998  -22.3333   14.2296 C.3       7 UNK         0.0264 
     51 CB        -48.0807  -21.0528   14.0015 C.3       7 UNK        -0.1988 
     52 N         -48.9985  -23.0870   12.9766 N.am      7 UNK        -0.4454 
     53 C         -49.8962  -24.0623   12.7605 C.2       7 UNK         0.5027 
     54 O         -50.7373  -24.4061   13.5915 O.2       7 UNK        -0.5083 
     55 CA        -49.8269  -24.8059   11.4102 C.3       6 UNK         0.0844 
     56 C56       -50.7217  -24.0839   10.3711 C.3       14 UNK        -0.0967 
     57 S57       -50.8363  -24.9305    8.7600 S.3       14 UNK        -0.2604 
     58 C58       -52.1844  -26.1207    9.0627 C.3       14 UNK         0.0134 
     59 N         -48.4438  -25.0054   10.9564 N.am      6 UNK        -0.4116 
     60 C         -47.5236  -25.7068   11.6411 C.2       5 UNK         0.5034 
     61 O         -47.7785  -26.3230   12.6747 O.2       5 UNK        -0.5045 
     62 CA        -46.0618  -25.6864   11.1524 C.3       5 UNK         0.0224 
     63 CB        -45.7299  -26.9809   10.3945 C.3       5 UNK        -0.1978 
     64 N         -45.7152  -24.5400   10.3119 N.am      5 UNK        -0.4737 
     65 C         -45.8305  -23.2471   10.6479 C.2       4 UNK         0.5027 
     66 O         -46.1677  -22.8611   11.7669 O.2       4 UNK        -0.5211 
     67 CA        -45.6090  -22.2193    9.5184 C.3       4 UNK         0.0297 
     68 CB        -44.1882  -21.6395    9.5952 C.3       4 UNK        -0.1993 
     69 N         -45.8492  -22.7531    8.1666 N.am      4 UNK        -0.4486 
     70 C         -46.9949  -23.3205    7.7608 C.2       3 UNK         0.4961 
     71 O         -47.9929  -23.4108    8.4790 O.2       3 UNK        -0.5105 
     72 CA        -47.0064  -23.9534    6.3624 C.3       3 UNK         0.0299 
     73 CB        -45.8935  -25.0118    6.2071 C.3       3 UNK        -0.1972 
     74 N         -48.3084  -24.5817    6.1537 N.am      3 UNK        -0.4305 
     75 C         -48.8539  -24.8952    4.9747 C.2       2 UNK         0.5006 
     76 O         -48.3211  -24.6596    3.8880 O.2       2 UNK        -0.5106 
     77 CA        -50.2176  -25.6104    5.0393 C.3       2 UNK         0.0296 
     78 CB        -50.8401  -25.8523    3.6470 C.3       2 UNK        -0.2002 
     79 N         -50.1603  -26.8638    5.8071 N.am      2 UNK        -0.4032 
     80 C         -49.4048  -27.9441    5.5476 C.2       1 UNK         0.5000 
     81 O         -48.6062  -28.0293    4.6109 O.2       1 UNK        -0.5238 
     82 H82       -50.1213  -32.5272    4.4133 H         1 UNK         0.0889 
     83 H83       -51.1626  -31.7372    3.2274 H         1 UNK         0.0889 
     84 H84       -51.8713  -32.5280    4.6383 H         1 UNK         0.0889 
     85 H85       -49.0734  -31.0357    5.7135 H         1 UNK         0.3028 
     86 H86       -50.4360  -28.9690    7.1373 H         1 UNK         0.0864 
     87 H87       -47.4439  -29.5560    6.8112 H         1 UNK         0.0720 
     88 H88       -48.0672  -28.3577    7.9004 H         1 UNK         0.0720 
     89 H89       -47.9788  -28.8495   10.2530 H         1 UNK         0.0814 
     90 H90       -48.4850  -30.3056   11.0584 H         1 UNK         0.0814 
     91 H91       -49.7542  -27.4290    9.0612 H         1 UNK         0.1469 
     92 H92       -53.6517  -27.5547   10.8297 H         1 UNK         0.1381 
     93 H93       -50.7733  -30.5932   11.7564 H         1 UNK         0.1206 
     94 H94       -52.7810  -30.0827   13.2659 H         1 UNK         0.0813 
     95 H95       -54.0586  -29.0651   12.6722 H         1 UNK         0.0813 
     96 H96       -55.1463  -31.3366    9.5162 H         1 UNK         0.0638 
     97 H97       -54.6073  -29.7277    9.8351 H         1 UNK         0.0638 
     98 H98       -57.0785  -30.0092    9.6855 H         1 UNK         0.0568 
     99 H99       -57.7724  -30.3475   13.0274 H         1 UNK         0.3450 
    100 H100      -58.4410  -31.9558   12.9104 H         1 UNK         0.3450 
    101 H101      -55.8176  -28.5619   11.8100 H         1 UNK         0.2987 
    102 H102      -56.9616  -26.1239   11.5333 H         1 UNK         0.0766 
    103 H103      -58.8544  -25.0611   12.7555 H         1 UNK         0.0798 
    104 H104      -59.7024  -26.6064   12.8129 H         1 UNK         0.0798 
    105 H105      -59.3988  -25.8182   11.2703 H         1 UNK         0.0798 
    106 H106      -57.7142  -27.1425   14.2098 H         1 UNK         0.3198 
    107 H107      -56.1675  -26.5106   15.8532 H         1 UNK         0.0843 
    108 H108      -56.1673  -29.0096   15.4250 H         1 UNK         0.0831 
    109 H109      -55.0385  -28.5725   16.6962 H         1 UNK         0.0831 
    110 H110      -54.4419  -28.9462   15.0846 H         1 UNK         0.0831 
    111 H111      -53.5347  -26.1960   14.6586 H         1 UNK         0.3133 
    112 H112      -52.4836  -24.1203   16.0131 H         1 UNK         0.0566 
    113 H113      -50.9700  -24.0316   17.9955 H         1 UNK         0.0814 
    114 H114      -52.6527  -23.8564   18.4667 H         1 UNK         0.0814 
    115 H115      -51.8285  -25.3876   18.7250 H         1 UNK         0.0814 
    116 H116      -50.8859  -25.3767   15.1870 H         1 UNK         0.3091 
    117 H117      -49.3238  -28.4663   16.1180 H         1 UNK         0.0702 
    118 H118      -49.3656  -28.5994   13.6356 H         1 UNK         0.0785 
    119 H119      -50.5915  -27.3384   13.5611 H         1 UNK         0.0785 
    120 H120      -50.9652  -28.8896   14.2989 H         1 UNK         0.0785 
    121 H121      -48.4352  -26.3745   14.4180 H         1 UNK         0.2998 
    122 H122      -46.5572  -24.5550   16.8834 H         1 UNK         0.0697 
    123 H123      -45.8023  -26.3044   14.4791 H         1 UNK         0.0825 
    124 H124      -45.1142  -26.3974   16.0906 H         1 UNK         0.0825 
    125 H125      -44.8436  -24.9656   15.1108 H         1 UNK         0.0825 
    126 H126      -47.1667  -24.2141   14.0630 H         1 UNK         0.3029 
    127 H127      -49.9082  -22.0400   14.5308 H         1 UNK         0.0897 
    128 H128      -48.5159  -20.4368   13.2145 H         1 UNK         0.0792 
    129 H129      -48.0496  -20.4461   14.9076 H         1 UNK         0.0792 
    130 H130      -47.0495  -21.2737   13.7244 H         1 UNK         0.0792 
    131 H131      -48.2911  -22.8970   12.2755 H         1 UNK         0.3086 
    132 H132      -50.2480  -25.7965   11.5868 H         1 UNK         0.0583 
    133 H133      -51.7327  -23.9506   10.7621 H         1 UNK         0.1020 
    134 H134      -50.3409  -23.0781   10.1826 H         1 UNK         0.1020 
    135 H135      -53.0036  -25.6099    9.5713 H         1 UNK         0.0694 
    136 H136      -52.5797  -26.4471    8.1003 H         1 UNK         0.0694 
    137 H137      -48.1765  -24.5140   10.1084 H         1 UNK         0.2989 
    138 H138      -45.4296  -25.6371   12.0413 H         1 UNK         0.1055 
    139 H139      -45.9176  -27.8555   11.0189 H         1 UNK         0.0806 
    140 H140      -44.6787  -27.0155   10.1074 H         1 UNK         0.0806 
    141 H141      -46.3294  -27.0854    9.4893 H         1 UNK         0.0806 
    142 H142      -45.4280  -24.7468    9.3670 H         1 UNK         0.3061 
    143 H143      -46.3209  -21.4073    9.6806 H         1 UNK         0.0734 
    144 H144      -43.9934  -21.2158   10.5817 H         1 UNK         0.0832 
    145 H145      -43.4296  -22.4018    9.4133 H         1 UNK         0.0832 
    146 H146      -44.0444  -20.8396    8.8686 H         1 UNK         0.0832 
    147 H147      -45.0740  -22.7100    7.5201 H         1 UNK         0.3156 
    148 H148      -46.8675  -23.1560    5.6298 H         1 UNK         0.0589 
    149 H149      -45.9847  -25.8034    6.9520 H         1 UNK         0.0808 
    150 H150      -45.9269  -25.4814    5.2237 H         1 UNK         0.0808 
    151 H151      -44.9010  -24.5729    6.3108 H         1 UNK         0.0808 
    152 H152      -48.8409  -24.7113    7.0075 H         1 UNK         0.3098 
    153 H153      -50.8891  -24.9437    5.5827 H         1 UNK         0.0720 
    154 H154      -51.8221  -26.3184    3.7281 H         1 UNK         0.0791 
    155 H155      -50.2150  -26.4963    3.0274 H         1 UNK         0.0791 
    156 H156      -50.9703  -24.9122    3.1097 H         1 UNK         0.0791 
    157 H157      -50.7757  -26.8986    6.6069 H         1 UNK         0.3028 
@<TRIPOS>BOND
     1    1    2 1    
     2    1   82 1    
     3    1   83 1    
     4    1   84 1    
     5    2    3 2    
     6    2    4 am   BACKBONE|DICT|INTERRES
     7    4    5 1    
     8    4   85 1    
     9    5    6 1    
    10    5   80 1    
    11    5   86 1    
    12    6    7 1    
    13    6   87 1    
    14    6   88 1    
    15    7    8 1    
    16    8    9 1    
    17    8   89 1    
    18    8   90 1    
    19    9   10 ar   
    20    9   14 ar   
    21   10   11 ar   
    22   10   91 1    
    23   11   12 ar   
    24   11   58 1    
    25   12   13 ar   
    26   12   92 1    
    27   13   14 ar   
    28   13   15 1    
    29   14   93 1    
    30   15   16 1    
    31   15   94 1    
    32   15   95 1    
    33   16   17 1    
    34   17   18 1    
    35   17   96 1    
    36   17   97 1    
    37   18   19 1    
    38   18   22 1    
    39   18   98 1    
    40   19   20 am   BACKBONE|DICT|INTERRES
    41   19   21 2    
    42   20   99 1    
    43   20  100 1    
    44   22   23 am   BACKBONE|DICT|INTERRES
    45   22  101 1    
    46   23   24 2    
    47   23   25 1    
    48   25   26 1    
    49   25   27 1    
    50   25  102 1    
    51   26  103 1    
    52   26  104 1    
    53   26  105 1    
    54   27   28 am   BACKBONE|DICT|INTERRES
    55   27  106 1    
    56   28   29 2    
    57   28   30 1    
    58   30   31 1    
    59   30   32 1    
    60   30  107 1    
    61   31  108 1    
    62   31  109 1    
    63   31  110 1    
    64   32   33 am   BACKBONE|DICT|INTERRES
    65   32  111 1    
    66   33   34 2    
    67   33   35 1    
    68   35   36 1    
    69   35   37 1    
    70   35  112 1    
    71   36  113 1    
    72   36  114 1    
    73   36  115 1    
    74   37   38 am   BACKBONE|DICT|INTERRES
    75   37  116 1    
    76   38   39 2    
    77   38   40 1    
    78   40   41 1    
    79   40   42 1    
    80   40  117 1    
    81   41  118 1    
    82   41  119 1    
    83   41  120 1    
    84   42   43 am   BACKBONE|DICT|INTERRES
    85   42  121 1    
    86   43   44 2    
    87   43   45 1    
    88   45   46 1    
    89   45   47 1    
    90   45  122 1    
    91   46  123 1    
    92   46  124 1    
    93   46  125 1    
    94   47   48 am   BACKBONE|DICT|INTERRES
    95   47  126 1    
    96   48   49 2    
    97   48   50 1    
    98   50   51 1    
    99   50   52 1    
   100   50  127 1    
   101   51  128 1    
   102   51  129 1    
   103   51  130 1    
   104   52   53 am   BACKBONE|DICT|INTERRES
   105   52  131 1    
   106   53   54 2    
   107   53   55 1    
   108   55   56 1    
   109   55   59 1    
   110   55  132 1    
   111   56   57 1    
   112   56  133 1    
   113   56  134 1    
   114   57   58 1    
   115   58  135 1    
   116   58  136 1    
   117   59   60 am   BACKBONE|DICT|INTERRES
   118   59  137 1    
   119   60   61 2    
   120   60   62 1    
   121   62   63 1    
   122   62   64 1    
   123   62  138 1    
   124   63  139 1    
   125   63  140 1    
   126   63  141 1    
   127   64   65 am   BACKBONE|DICT|INTERRES
   128   64  142 1    
   129   65   66 2    
   130   65   67 1    
   131   67   68 1    
   132   67   69 1    
   133   67  143 1    
   134   68  144 1    
   135   68  145 1    
   136   68  146 1    
   137   69   70 am   BACKBONE|DICT|INTERRES
   138   69  147 1    
   139   70   71 2    
   140   70   72 1    
   141   72   73 1    
   142   72   74 1    
   143   72  148 1    
   144   73  149 1    
   145   73  150 1    
   146   73  151 1    
   147   74   75 am   BACKBONE|DICT|INTERRES
   148   74  152 1    
   149   75   76 2    
   150   75   77 1    
   151   77   78 1    
   152   77   79 1    
   153   77  153 1    
   154   78  154 1    
   155   78  155 1    
   156   78  156 1    
   157   79   80 am   BACKBONE|DICT|INTERRES
   158   79  157 1    
   159   80   81 2    
@<TRIPOS>SUBSTRUCTURE
     1 UNK         1 GROUP             0       ****    0 ROOT    
