@<TRIPOS>MOLECULE
3R207
157   159    1
SMALL
USER_CHARGES


@<TRIPOS>ATOM
      1 CA        -45.0153  -31.1612    7.2352 C.3       0 UNK        -0.1975 
      2 C         -45.2844  -29.8157    7.9024 C.2       0 UNK         0.4852 
      3 O         -44.8218  -29.5955    9.0203 O.2       0 UNK        -0.5216 
      4 N         -46.0128  -28.8916    7.2656 N.am      1 UNK        -0.4461 
      5 CA        -46.6251  -28.9975    5.9379 C.3       1 UNK         0.0864 
      6 C6        -48.0810  -29.5420    5.9828 C.3       14 UNK        -0.0898 
      7 S7        -49.1628  -28.7716    7.2406 S.3       14 UNK        -0.2598 
      8 C8        -50.6200  -28.3310    6.2464 C.3       14 UNK         0.0286 
      9 C9        -51.8292  -28.0444    7.1260 C.ar      14 UNK        -0.0844 
     10 C10       -52.3676  -26.7545    7.2101 C.ar      14 UNK        -0.0881 
     11 C11       -53.5091  -26.5109    7.9835 C.ar      14 UNK        -0.0643 
     12 C12       -54.1168  -27.5730    8.6546 C.ar      14 UNK        -0.0930 
     13 C13       -53.5648  -28.8525    8.6159 C.ar      14 UNK        -0.0827 
     14 C14       -52.4286  -29.0881    7.8394 C.ar      14 UNK        -0.1249 
     15 C15       -54.2035  -29.9591    9.4354 C.3       14 UNK         0.0141 
     16 S16       -53.9272  -29.6596   11.2092 S.3       14 UNK        -0.2313 
     17 C17       -55.4458  -30.3671   11.9238 C.3       14 UNK        -0.0915 
     18 CA        -56.5969  -29.3356   12.0886 C.3       13 UNK         0.0968 
     19 C         -57.8261  -30.0363   12.7382 C.2       13 UNK         0.5732 
     20 N         -58.0484  -29.9002   14.0420 N.am      13 UNK        -0.7310 
     21 O         -58.5832  -30.7136   12.0472 O.2       13 UNK        -0.5035 
     22 N         -56.1522  -28.1340   12.8089 N.am      13 UNK        -0.4233 
     23 C         -56.8827  -27.0331   13.0338 C.2       13 UNK         0.4989 
     24 O         -57.9445  -26.7960   12.4568 O.2       13 UNK        -0.4996 
     25 CA        -56.3517  -26.0281   14.0852 C.3       12 UNK         0.0216 
     26 CB        -57.4710  -25.5616   15.0386 C.3       12 UNK        -0.1964 
     27 N         -55.1867  -26.4968   14.8566 N.am      12 UNK        -0.4276 
     28 C         -55.0995  -27.6016   15.6161 C.2       12 UNK         0.5020 
     29 O         -56.0434  -28.3657   15.8261 O.2       12 UNK        -0.5489 
     30 CA        -53.7091  -27.9812   16.1444 C.3       11 UNK         0.0294 
     31 CB        -53.1017  -29.0931   15.2710 C.3       11 UNK        -0.2019 
     32 N         -52.7697  -26.8616   16.1868 N.am      11 UNK        -0.4493 
     33 C         -52.7334  -25.9379   17.1571 C.2       11 UNK         0.4932 
     34 O         -53.5692  -25.8688   18.0596 O.2       11 UNK        -0.5029 
     35 CA        -51.5537  -24.9424   17.1219 C.3       10 UNK         0.0280 
     36 CB        -51.2093  -24.3779   18.5157 C.3       10 UNK        -0.1976 
     37 N         -50.3517  -25.4835   16.4721 N.am      10 UNK        -0.4242 
     38 C         -49.6581  -26.5876   16.8021 C.2       10 UNK         0.5072 
     39 O         -49.9015  -27.2807   17.7906 O.2       10 UNK        -0.5224 
     40 CA        -48.5231  -27.0202   15.8548 C.3       9 UNK         0.0343 
     41 CB        -48.7677  -28.4426   15.3185 C.3       9 UNK        -0.2003 
     42 N         -48.3818  -26.1013   14.7212 N.am      9 UNK        -0.4272 
     43 C         -47.4310  -25.1614   14.6302 C.2       9 UNK         0.4988 
     44 O         -46.5110  -25.0325   15.4386 O.2       9 UNK        -0.5108 
     45 CA        -47.5308  -24.1749   13.4566 C.3       8 UNK         0.0248 
     46 CB        -46.8098  -24.7267   12.2166 C.3       8 UNK        -0.2001 
     47 N         -48.9024  -23.7936   13.1033 N.am      8 UNK        -0.4140 
     48 C         -49.7364  -23.1027   13.8949 C.2       8 UNK         0.5028 
     49 O         -49.4930  -22.8313   15.0698 O.2       8 UNK        -0.5428 
     50 CA        -51.0667  -22.6403   13.2864 C.3       7 UNK         0.0264 
     51 CB        -50.8459  -21.4165   12.3822 C.3       7 UNK        -0.1988 
     52 N         -51.6951  -23.7024   12.5073 N.am      7 UNK        -0.4454 
     53 C         -52.7102  -24.4660   12.9313 C.2       7 UNK         0.5027 
     54 O         -53.2436  -24.3692   14.0379 O.2       7 UNK        -0.5083 
     55 CA        -53.1958  -25.5670   11.9658 C.3       6 UNK         0.0844 
     56 C56       -54.2200  -24.9975   10.9465 C.3       14 UNK        -0.0967 
     57 S57       -53.4622  -24.1675    9.5001 S.3       14 UNK        -0.2604 
     58 C58       -54.1096  -25.1145    8.0803 C.3       14 UNK         0.0134 
     59 N         -52.0960  -26.2998   11.3343 N.am      6 UNK        -0.4116 
     60 C         -51.0545  -26.8527   11.9721 C.2       5 UNK         0.5034 
     61 O         -50.9385  -26.9008   13.1988 O.2       5 UNK        -0.5045 
     62 CA        -49.9058  -27.3770   11.0974 C.3       5 UNK         0.0224 
     63 CB        -50.0728  -28.8829   10.8491 C.3       5 UNK        -0.1978 
     64 N         -49.7224  -26.6807    9.8147 N.am      5 UNK        -0.4737 
     65 C         -49.5446  -25.3623    9.6449 C.2       4 UNK         0.5027 
     66 O         -49.6351  -24.5309   10.5500 O.2       4 UNK        -0.5211 
     67 CA        -49.1962  -24.8827    8.2280 C.3       4 UNK         0.0297 
     68 CB        -50.1297  -23.7478    7.7763 C.3       4 UNK        -0.1993 
     69 N         -47.8172  -24.4020    8.1529 N.am      4 UNK        -0.4486 
     70 C         -46.7279  -25.1671    8.2759 C.2       3 UNK         0.4961 
     71 O         -46.7468  -26.3778    8.5091 O.2       3 UNK        -0.5105 
     72 CA        -45.3786  -24.4838    8.0142 C.3       3 UNK         0.0299 
     73 CB        -44.4253  -24.6318    9.2118 C.3       3 UNK        -0.1972 
     74 N         -44.7994  -25.1416    6.8488 N.am      3 UNK        -0.4305 
     75 C         -45.0982  -24.8299    5.5801 C.2       2 UNK         0.5006 
     76 O         -45.6402  -23.7799    5.2331 O.2       2 UNK        -0.5106 
     77 CA        -44.8021  -25.9182    4.5352 C.3       2 UNK         0.0296 
     78 CB        -43.3158  -25.9178    4.1412 C.3       2 UNK        -0.2002 
     79 N         -45.1895  -27.2452    5.0282 N.am      2 UNK        -0.4032 
     80 C         -46.4577  -27.6452    5.2221 C.2       1 UNK         0.5000 
     81 O         -47.4420  -26.9818    4.8900 O.2       1 UNK        -0.5238 
     82 H82       -45.9397  -31.6222    6.8896 H         1 UNK         0.0889 
     83 H83       -44.5489  -31.8498    7.9395 H         1 UNK         0.0889 
     84 H84       -44.3402  -31.0430    6.3883 H         1 UNK         0.0889 
     85 H85       -46.2262  -28.0203    7.7502 H         1 UNK         0.3028 
     86 H86       -46.0500  -29.6938    5.3252 H         1 UNK         0.0864 
     87 H87       -48.5419  -29.4695    4.9962 H         1 UNK         0.0720 
     88 H88       -48.0555  -30.6090    6.2060 H         1 UNK         0.0720 
     89 H89       -50.8663  -29.1538    5.5737 H         1 UNK         0.0814 
     90 H90       -50.3763  -27.4745    5.6157 H         1 UNK         0.0814 
     91 H91       -51.9103  -25.9457    6.6583 H         1 UNK         0.1469 
     92 H92       -55.0168  -27.4128    9.2294 H         1 UNK         0.1381 
     93 H93       -52.0033  -30.0815    7.7929 H         1 UNK         0.1206 
     94 H94       -55.2722  -29.9887    9.2180 H         1 UNK         0.0813 
     95 H95       -53.8007  -30.9364    9.1655 H         1 UNK         0.0813 
     96 H96       -55.1771  -30.7888   12.8944 H         1 UNK         0.0638 
     97 H97       -55.7666  -31.2104   11.3091 H         1 UNK         0.0638 
     98 H98       -56.9066  -29.0123   11.0933 H         1 UNK         0.0568 
     99 H99       -57.4154  -29.3603   14.6224 H         1 UNK         0.3450 
    100 H100      -58.8453  -30.3558   14.4565 H         1 UNK         0.3450 
    101 H101      -55.2943  -28.2421   13.3253 H         1 UNK         0.2987 
    102 H102      -56.0137  -25.1556   13.5256 H         1 UNK         0.0766 
    103 H103      -57.0989  -24.8343   15.7603 H         1 UNK         0.0798 
    104 H104      -57.9028  -26.3944   15.5946 H         1 UNK         0.0798 
    105 H105      -58.2829  -25.0831   14.4894 H         1 UNK         0.0798 
    106 H106      -54.3568  -25.9159   14.7754 H         1 UNK         0.3198 
    107 H107      -53.8384  -28.3712   17.1565 H         1 UNK         0.0843 
    108 H108      -53.7643  -29.9585   15.2185 H         1 UNK         0.0831 
    109 H109      -52.1521  -29.4408   15.6785 H         1 UNK         0.0831 
    110 H110      -52.9219  -28.7569   14.2487 H         1 UNK         0.0831 
    111 H111      -52.0554  -26.8347   15.4706 H         1 UNK         0.3133 
    112 H112      -51.8819  -24.1081   16.5004 H         1 UNK         0.0566 
    113 H113      -50.3865  -23.6649   18.4609 H         1 UNK         0.0814 
    114 H114      -52.0617  -23.8530   18.9486 H         1 UNK         0.0814 
    115 H115      -50.9248  -25.1669   19.2125 H         1 UNK         0.0814 
    116 H116      -50.0168  -24.9443   15.6846 H         1 UNK         0.3091 
    117 H117      -47.6054  -27.0416   16.4460 H         1 UNK         0.0702 
    118 H118      -47.9818  -28.7469   14.6270 H         1 UNK         0.0785 
    119 H119      -49.7222  -28.5269   14.7995 H         1 UNK         0.0785 
    120 H120      -48.7796  -29.1686   16.1325 H         1 UNK         0.0785 
    121 H121      -49.1099  -26.1478   14.0174 H         1 UNK         0.2998 
    122 H122      -47.0156  -23.2611   13.7601 H         1 UNK         0.0697 
    123 H123      -47.2601  -25.6521   11.8589 H         1 UNK         0.0825 
    124 H124      -45.7624  -24.9384   12.4353 H         1 UNK         0.0825 
    125 H125      -46.8335  -24.0084   11.3973 H         1 UNK         0.0825 
    126 H126      -49.1910  -23.9979   12.1458 H         1 UNK         0.3029 
    127 H127      -51.7222  -22.3389   14.1069 H         1 UNK         0.0897 
    128 H128      -51.7919  -21.0371   11.9954 H         1 UNK         0.0792 
    129 H129      -50.3714  -20.6034   12.9333 H         1 UNK         0.0792 
    130 H130      -50.2075  -21.6511   11.5289 H         1 UNK         0.0792 
    131 H131      -51.2809  -23.9092   11.6035 H         1 UNK         0.3086 
    132 H132      -53.7177  -26.3056   12.5736 H         1 UNK         0.0583 
    133 H133      -54.8934  -24.2841   11.4264 H         1 UNK         0.1020 
    134 H134      -54.8795  -25.7943   10.6141 H         1 UNK         0.1020 
    135 H135      -55.1972  -25.1723    8.1477 H         1 UNK         0.0694 
    136 H136      -53.8944  -24.5591    7.1663 H         1 UNK         0.0694 
    137 H137      -52.0888  -26.3014   10.3238 H         1 UNK         0.2989 
    138 H138      -48.9879  -27.2356   11.6693 H         1 UNK         0.1055 
    139 H139      -50.1940  -29.4247   11.7885 H         1 UNK         0.0806 
    140 H140      -49.2019  -29.3020   10.3449 H         1 UNK         0.0806 
    141 H141      -50.9496  -29.0943   10.2376 H         1 UNK         0.0806 
    142 H142      -49.6115  -27.2793    9.0045 H         1 UNK         0.3061 
    143 H143      -49.3050  -25.7150    7.5297 H         1 UNK         0.0734 
    144 H144      -51.1695  -24.0663    7.7901 H         1 UNK         0.0832 
    145 H145      -50.0527  -22.8747    8.4259 H         1 UNK         0.0832 
    146 H146      -49.9064  -23.4303    6.7576 H         1 UNK         0.0832 
    147 H147      -47.6971  -23.4176    7.9637 H         1 UNK         0.3156 
    148 H148      -45.5236  -23.4201    7.8129 H         1 UNK         0.0589 
    149 H149      -44.2959  -25.6744    9.5066 H         1 UNK         0.0808 
    150 H150      -43.4399  -24.2241    8.9856 H         1 UNK         0.0808 
    151 H151      -44.8044  -24.0913   10.0786 H         1 UNK         0.0808 
    152 H152      -44.3750  -26.0402    7.0244 H         1 UNK         0.3098 
    153 H153      -45.3928  -25.6978    3.6433 H         1 UNK         0.0720 
    154 H154      -43.1145  -26.6459    3.3551 H         1 UNK         0.0791 
    155 H155      -42.6680  -26.1498    4.9876 H         1 UNK         0.0791 
    156 H156      -43.0156  -24.9407    3.7598 H         1 UNK         0.0791 
    157 H157      -44.4420  -27.8589    5.3192 H         1 UNK         0.3028 
@<TRIPOS>BOND
     1    1    2 1    
     2    1   82 1    
     3    1   83 1    
     4    1   84 1    
     5    2    3 2    
     6    2    4 am   BACKBONE|DICT|INTERRES
     7    4    5 1    
     8    4   85 1    
     9    5    6 1    
    10    5   80 1    
    11    5   86 1    
    12    6    7 1    
    13    6   87 1    
    14    6   88 1    
    15    7    8 1    
    16    8    9 1    
    17    8   89 1    
    18    8   90 1    
    19    9   10 ar   
    20    9   14 ar   
    21   10   11 ar   
    22   10   91 1    
    23   11   12 ar   
    24   11   58 1    
    25   12   13 ar   
    26   12   92 1    
    27   13   14 ar   
    28   13   15 1    
    29   14   93 1    
    30   15   16 1    
    31   15   94 1    
    32   15   95 1    
    33   16   17 1    
    34   17   18 1    
    35   17   96 1    
    36   17   97 1    
    37   18   19 1    
    38   18   22 1    
    39   18   98 1    
    40   19   20 am   BACKBONE|DICT|INTERRES
    41   19   21 2    
    42   20   99 1    
    43   20  100 1    
    44   22   23 am   BACKBONE|DICT|INTERRES
    45   22  101 1    
    46   23   24 2    
    47   23   25 1    
    48   25   26 1    
    49   25   27 1    
    50   25  102 1    
    51   26  103 1    
    52   26  104 1    
    53   26  105 1    
    54   27   28 am   BACKBONE|DICT|INTERRES
    55   27  106 1    
    56   28   29 2    
    57   28   30 1    
    58   30   31 1    
    59   30   32 1    
    60   30  107 1    
    61   31  108 1    
    62   31  109 1    
    63   31  110 1    
    64   32   33 am   BACKBONE|DICT|INTERRES
    65   32  111 1    
    66   33   34 2    
    67   33   35 1    
    68   35   36 1    
    69   35   37 1    
    70   35  112 1    
    71   36  113 1    
    72   36  114 1    
    73   36  115 1    
    74   37   38 am   BACKBONE|DICT|INTERRES
    75   37  116 1    
    76   38   39 2    
    77   38   40 1    
    78   40   41 1    
    79   40   42 1    
    80   40  117 1    
    81   41  118 1    
    82   41  119 1    
    83   41  120 1    
    84   42   43 am   BACKBONE|DICT|INTERRES
    85   42  121 1    
    86   43   44 2    
    87   43   45 1    
    88   45   46 1    
    89   45   47 1    
    90   45  122 1    
    91   46  123 1    
    92   46  124 1    
    93   46  125 1    
    94   47   48 am   BACKBONE|DICT|INTERRES
    95   47  126 1    
    96   48   49 2    
    97   48   50 1    
    98   50   51 1    
    99   50   52 1    
   100   50  127 1    
   101   51  128 1    
   102   51  129 1    
   103   51  130 1    
   104   52   53 am   BACKBONE|DICT|INTERRES
   105   52  131 1    
   106   53   54 2    
   107   53   55 1    
   108   55   56 1    
   109   55   59 1    
   110   55  132 1    
   111   56   57 1    
   112   56  133 1    
   113   56  134 1    
   114   57   58 1    
   115   58  135 1    
   116   58  136 1    
   117   59   60 am   BACKBONE|DICT|INTERRES
   118   59  137 1    
   119   60   61 2    
   120   60   62 1    
   121   62   63 1    
   122   62   64 1    
   123   62  138 1    
   124   63  139 1    
   125   63  140 1    
   126   63  141 1    
   127   64   65 am   BACKBONE|DICT|INTERRES
   128   64  142 1    
   129   65   66 2    
   130   65   67 1    
   131   67   68 1    
   132   67   69 1    
   133   67  143 1    
   134   68  144 1    
   135   68  145 1    
   136   68  146 1    
   137   69   70 am   BACKBONE|DICT|INTERRES
   138   69  147 1    
   139   70   71 2    
   140   70   72 1    
   141   72   73 1    
   142   72   74 1    
   143   72  148 1    
   144   73  149 1    
   145   73  150 1    
   146   73  151 1    
   147   74   75 am   BACKBONE|DICT|INTERRES
   148   74  152 1    
   149   75   76 2    
   150   75   77 1    
   151   77   78 1    
   152   77   79 1    
   153   77  153 1    
   154   78  154 1    
   155   78  155 1    
   156   78  156 1    
   157   79   80 am   BACKBONE|DICT|INTERRES
   158   79  157 1    
   159   80   81 2    
@<TRIPOS>SUBSTRUCTURE
     1 UNK         1 GROUP             0       ****    0 ROOT    
