@<TRIPOS>MOLECULE
3R207
157   159    1
SMALL
USER_CHARGES


@<TRIPOS>ATOM
      1 CA        -43.6103  -29.4127    7.1289 C.3       0 UNK        -0.1975 
      2 C         -44.7638  -29.3045    6.1434 C.2       0 UNK         0.4852 
      3 O         -44.5565  -28.9156    4.9944 O.2       0 UNK        -0.5216 
      4 N         -45.9854  -29.6210    6.5887 N.am      1 UNK        -0.4461 
      5 CA        -47.2455  -29.6207    5.8281 C.3       1 UNK         0.0864 
      6 C6        -48.2848  -30.5859    6.4705 C.3       14 UNK        -0.0898 
      7 S7        -48.4391  -30.4370    8.2885 S.3       14 UNK        -0.2598 
      8 C8        -50.0565  -31.2230    8.5899 C.3       14 UNK         0.0286 
      9 C9        -51.1364  -30.2075    8.9409 C.ar      14 UNK        -0.0844 
     10 C10       -51.4035  -29.1340    8.0868 C.ar      14 UNK        -0.0881 
     11 C11       -52.3852  -28.1942    8.4091 C.ar      14 UNK        -0.0643 
     12 C12       -53.1280  -28.3473    9.5819 C.ar      14 UNK        -0.0930 
     13 C13       -52.8822  -29.4241   10.4382 C.ar      14 UNK        -0.0827 
     14 C14       -51.8811  -30.3469   10.1176 C.ar      14 UNK        -0.1249 
     15 C15       -53.7067  -29.5866   11.7039 C.3       14 UNK         0.0141 
     16 S16       -55.1626  -30.6320   11.3917 S.3       14 UNK        -0.2313 
     17 C17       -56.2868  -30.0597   12.7063 C.3       14 UNK        -0.0915 
     18 CA        -57.2850  -28.9891   12.1832 C.3       13 UNK         0.0968 
     19 C         -58.5652  -29.6243   11.5705 C.2       13 UNK         0.5732 
     20 N         -58.4965  -30.0807   10.3257 N.am      13 UNK        -0.7310 
     21 O         -59.6060  -29.7357   12.2210 O.2       13 UNK        -0.5035 
     22 N         -57.5790  -28.0024   13.2282 N.am      13 UNK        -0.4233 
     23 C         -58.1377  -26.8025   13.0220 C.2       13 UNK         0.4989 
     24 O         -58.4613  -26.3760   11.9124 O.2       13 UNK        -0.4996 
     25 CA        -58.3628  -25.9125   14.2605 C.3       12 UNK         0.0216 
     26 CB        -59.8352  -25.9707   14.7004 C.3       12 UNK        -0.1964 
     27 N         -57.5038  -26.2517   15.4024 N.am      12 UNK        -0.4276 
     28 C         -56.1742  -26.0889   15.4326 C.2       12 UNK         0.5020 
     29 O         -55.5152  -25.6047   14.5079 O.2       12 UNK        -0.5489 
     30 CA        -55.4624  -26.5833   16.6962 C.3       11 UNK         0.0294 
     31 CB        -55.4144  -28.1235   16.7407 C.3       11 UNK        -0.2019 
     32 N         -54.1021  -26.0557   16.7076 N.am      11 UNK        -0.4493 
     33 C         -53.3698  -25.8214   17.8014 C.2       11 UNK         0.4932 
     34 O         -53.7798  -26.0089   18.9497 O.2       11 UNK        -0.5029 
     35 CA        -51.9382  -25.2997   17.5633 C.3       10 UNK         0.0280 
     36 CB        -51.0896  -25.2671   18.8519 C.3       10 UNK        -0.1976 
     37 N         -51.2163  -26.0185   16.5048 N.am      10 UNK        -0.4242 
     38 C         -50.9870  -27.3420   16.4241 C.2       10 UNK         0.5072 
     39 O         -51.4280  -28.1716   17.2208 O.2       10 UNK        -0.5224 
     40 CA        -50.0909  -27.8370   15.2698 C.3       9 UNK         0.0343 
     41 CB        -50.9524  -28.3375   14.0977 C.3       9 UNK        -0.2003 
     42 N         -49.1410  -26.8300   14.7873 N.am      9 UNK        -0.4272 
     43 C         -48.1610  -26.2864   15.5257 C.2       9 UNK         0.4988 
     44 O         -47.8785  -26.6592   16.6655 O.2       9 UNK        -0.5108 
     45 CA        -47.3751  -25.1110   14.9158 C.3       8 UNK         0.0248 
     46 CB        -46.0355  -25.6064   14.3504 C.3       8 UNK        -0.2001 
     47 N         -48.1022  -24.3504   13.8899 N.am      8 UNK        -0.4140 
     48 C         -49.2519  -23.6878   14.0963 C.2       8 UNK         0.5028 
     49 O         -49.8519  -23.6759   15.1716 O.2       8 UNK        -0.5428 
     50 CA        -49.8585  -22.9438   12.8953 C.3       7 UNK         0.0264 
     51 CB        -49.0690  -21.6639   12.5768 C.3       7 UNK        -0.1988 
     52 N         -49.9422  -23.7849   11.7016 N.am      7 UNK        -0.4454 
     53 C         -50.7303  -24.8652   11.5851 C.2       7 UNK         0.5027 
     54 O         -51.5325  -25.2235   12.4471 O.2       7 UNK        -0.5083 
     55 CA        -50.5710  -25.7000   10.2969 C.3       6 UNK         0.0844 
     56 C56       -51.4102  -25.0606    9.1581 C.3       14 UNK        -0.0967 
     57 S57       -51.2233  -25.8547    7.5278 S.3       14 UNK        -0.2604 
     58 C58       -52.6262  -27.0101    7.4891 C.3       14 UNK         0.0134 
     59 N         -49.1538  -25.9054    9.9650 N.am      6 UNK        -0.4116 
     60 C         -48.2638  -26.5074   10.7731 C.2       5 UNK         0.5034 
     61 O         -48.5544  -27.0309   11.8485 O.2       5 UNK        -0.5045 
     62 CA        -46.7857  -26.4563   10.3574 C.3       5 UNK         0.0224 
     63 CB        -46.4188  -27.6355    9.4453 C.3       5 UNK        -0.1978 
     64 N         -46.4524  -25.1907    9.7045 N.am      5 UNK        -0.4737 
     65 C         -46.3038  -24.0263   10.3501 C.2       4 UNK         0.5027 
     66 O         -46.3797  -23.9119   11.5726 O.2       4 UNK        -0.5211 
     67 CA        -46.0750  -22.7727    9.4871 C.3       4 UNK         0.0297 
     68 CB        -44.5853  -22.6199    9.1433 C.3       4 UNK        -0.1993 
     69 N         -46.8659  -22.7769    8.2536 N.am      4 UNK        -0.4486 
     70 C         -48.2050  -22.7372    8.2170 C.2       3 UNK         0.4961 
     71 O         -48.9101  -22.6230    9.2199 O.2       3 UNK        -0.5105 
     72 CA        -48.8763  -22.8932    6.8388 C.3       3 UNK         0.0299 
     73 CB        -49.0495  -21.5177    6.1760 C.3       3 UNK        -0.1972 
     74 N         -48.2054  -23.8058    5.8990 N.am      3 UNK        -0.4305 
     75 C         -47.7962  -25.0583    6.1549 C.2       2 UNK         0.5006 
     76 O         -47.8413  -25.5748    7.2707 O.2       2 UNK        -0.5106 
     77 CA        -47.1836  -25.8310    4.9726 C.3       2 UNK         0.0296 
     78 CB        -45.8653  -25.1755    4.5221 C.3       2 UNK        -0.2002 
     79 N         -46.9073  -27.2356    5.2865 N.am      2 UNK        -0.4032 
     80 C         -47.8046  -28.2083    5.4999 C.2       1 UNK         0.5000 
     81 O         -49.0205  -28.0351    5.3971 O.2       1 UNK        -0.5238 
     82 H82       -42.8569  -30.1023    6.7494 H         1 UNK         0.0889 
     83 H83       -43.9392  -29.7728    8.1035 H         1 UNK         0.0889 
     84 H84       -43.1424  -28.4385    7.2674 H         1 UNK         0.0889 
     85 H85       -46.0967  -29.9087    7.5513 H         1 UNK         0.3028 
     86 H86       -47.0127  -30.0410    4.8473 H         1 UNK         0.0864 
     87 H87       -47.9780  -31.6132    6.2682 H         1 UNK         0.0720 
     88 H88       -49.2657  -30.4885    6.0026 H         1 UNK         0.0720 
     89 H89       -49.9342  -31.9422    9.4009 H         1 UNK         0.0814 
     90 H90       -50.3708  -31.7999    7.7193 H         1 UNK         0.0814 
     91 H91       -50.8270  -29.0088    7.1803 H         1 UNK         0.1469 
     92 H92       -53.8953  -27.6272    9.8312 H         1 UNK         0.1381 
     93 H93       -51.6907  -31.1785   10.7823 H         1 UNK         0.1206 
     94 H94       -53.1049  -30.0302   12.4982 H         1 UNK         0.0813 
     95 H95       -54.0211  -28.6058   12.0655 H         1 UNK         0.0813 
     96 H96       -55.6756  -29.6613   13.5183 H         1 UNK         0.0638 
     97 H97       -56.8069  -30.9202   13.1318 H         1 UNK         0.0638 
     98 H98       -56.7972  -28.4254   11.3848 H         1 UNK         0.0568 
     99 H99       -57.6347  -30.0287    9.8010 H         1 UNK         0.3450 
    100 H100      -59.3114  -30.5066    9.9131 H         1 UNK         0.3450 
    101 H101      -57.3890  -28.2852   14.1764 H         1 UNK         0.2987 
    102 H102      -58.1351  -24.8860   13.9648 H         1 UNK         0.0766 
    103 H103      -60.4984  -25.6895   13.8808 H         1 UNK         0.0798 
    104 H104      -60.0328  -25.2831   15.5233 H         1 UNK         0.0798 
    105 H105      -60.1226  -26.9733   15.0210 H         1 UNK         0.0798 
    106 H106      -57.9631  -26.6494   16.2105 H         1 UNK         0.3198 
    107 H107      -56.0079  -26.2041   17.5636 H         1 UNK         0.0843 
    108 H108      -54.9020  -28.4771   17.6360 H         1 UNK         0.0831 
    109 H109      -54.8896  -28.5337   15.8765 H         1 UNK         0.0831 
    110 H110      -56.4158  -28.5549   16.7543 H         1 UNK         0.0831 
    111 H111      -53.7397  -25.8156   15.7917 H         1 UNK         0.3133 
    112 H112      -52.0433  -24.2718   17.2131 H         1 UNK         0.0566 
    113 H113      -50.0964  -24.8600   18.6604 H         1 UNK         0.0814 
    114 H114      -50.9662  -26.2637   19.2783 H         1 UNK         0.0814 
    115 H115      -51.5554  -24.6405   19.6141 H         1 UNK         0.0814 
    116 H116      -50.7841  -25.4196   15.8068 H         1 UNK         0.3091 
    117 H117      -49.5076  -28.6800   15.6465 H         1 UNK         0.0702 
    118 H118      -50.3372  -28.7190   13.2807 H         1 UNK         0.0785 
    119 H119      -51.5890  -27.5470   13.6970 H         1 UNK         0.0785 
    120 H120      -51.6067  -29.1494   14.4185 H         1 UNK         0.0785 
    121 H121      -49.2430  -26.5293   13.8240 H         1 UNK         0.2998 
    122 H122      -47.1591  -24.4163   15.7299 H         1 UNK         0.0697 
    123 H123      -46.1842  -26.3201   13.5413 H         1 UNK         0.0825 
    124 H124      -45.4488  -26.1084   15.1209 H         1 UNK         0.0825 
    125 H125      -45.4310  -24.7823   13.9714 H         1 UNK         0.0825 
    126 H126      -47.6506  -24.2746   12.9819 H         1 UNK         0.3029 
    127 H127      -50.8754  -22.6529   13.1679 H         1 UNK         0.0897 
    128 H128      -48.0473  -21.8810   12.2645 H         1 UNK         0.0792 
    129 H129      -49.0124  -21.0128   13.4500 H         1 UNK         0.0792 
    130 H130      -49.5456  -21.0954   11.7782 H         1 UNK         0.0792 
    131 H131      -49.3646  -23.5162   10.9089 H         1 UNK         0.3086 
    132 H132      -50.9827  -26.6896   10.5028 H         1 UNK         0.0583 
    133 H133      -52.4678  -25.0619    9.4294 H         1 UNK         0.1020 
    134 H134      -51.1459  -24.0101    9.0310 H         1 UNK         0.1020 
    135 H135      -53.5471  -26.4851    7.7471 H         1 UNK         0.0694 
    136 H136      -52.7539  -27.3723    6.4681 H         1 UNK         0.0694 
    137 H137      -48.8376  -25.5654    9.0624 H         1 UNK         0.2989 
    138 H138      -46.1805  -26.5397   11.2612 H         1 UNK         0.1055 
    139 H139      -47.0355  -27.6614    8.5474 H         1 UNK         0.0806 
    140 H140      -45.3742  -27.5915    9.1376 H         1 UNK         0.0806 
    141 H141      -46.5662  -28.5826    9.9657 H         1 UNK         0.0806 
    142 H142      -46.5168  -25.1840    8.6919 H         1 UNK         0.3061 
    143 H143      -46.3803  -21.9063   10.0777 H         1 UNK         0.0734 
    144 H144      -44.2233  -23.4462    8.5301 H         1 UNK         0.0832 
    145 H145      -44.3946  -21.6915    8.6049 H         1 UNK         0.0832 
    146 H146      -43.9784  -22.5971   10.0496 H         1 UNK         0.0832 
    147 H147      -46.3653  -22.8753    7.3827 H         1 UNK         0.3156 
    148 H148      -49.8717  -23.3012    7.0147 H         1 UNK         0.0589 
    149 H149      -49.6449  -21.5864    5.2654 H         1 UNK         0.0808 
    150 H150      -49.5645  -20.8248    6.8432 H         1 UNK         0.0808 
    151 H151      -48.0893  -21.0688    5.9183 H         1 UNK         0.0808 
    152 H152      -48.1072  -23.4645    4.9538 H         1 UNK         0.3098 
    153 H153      -47.8974  -25.8042    4.1470 H         1 UNK         0.0720 
    154 H154      -46.0177  -24.1461    4.1965 H         1 UNK         0.0791 
    155 H155      -45.4248  -25.7113    3.6810 H         1 UNK         0.0791 
    156 H156      -45.1294  -25.1583    5.3274 H         1 UNK         0.0791 
    157 H157      -45.9318  -27.5065    5.3311 H         1 UNK         0.3028 
@<TRIPOS>BOND
     1    1    2 1    
     2    1   82 1    
     3    1   83 1    
     4    1   84 1    
     5    2    3 2    
     6    2    4 am   BACKBONE|DICT|INTERRES
     7    4    5 1    
     8    4   85 1    
     9    5    6 1    
    10    5   80 1    
    11    5   86 1    
    12    6    7 1    
    13    6   87 1    
    14    6   88 1    
    15    7    8 1    
    16    8    9 1    
    17    8   89 1    
    18    8   90 1    
    19    9   10 ar   
    20    9   14 ar   
    21   10   11 ar   
    22   10   91 1    
    23   11   12 ar   
    24   11   58 1    
    25   12   13 ar   
    26   12   92 1    
    27   13   14 ar   
    28   13   15 1    
    29   14   93 1    
    30   15   16 1    
    31   15   94 1    
    32   15   95 1    
    33   16   17 1    
    34   17   18 1    
    35   17   96 1    
    36   17   97 1    
    37   18   19 1    
    38   18   22 1    
    39   18   98 1    
    40   19   20 am   BACKBONE|DICT|INTERRES
    41   19   21 2    
    42   20   99 1    
    43   20  100 1    
    44   22   23 am   BACKBONE|DICT|INTERRES
    45   22  101 1    
    46   23   24 2    
    47   23   25 1    
    48   25   26 1    
    49   25   27 1    
    50   25  102 1    
    51   26  103 1    
    52   26  104 1    
    53   26  105 1    
    54   27   28 am   BACKBONE|DICT|INTERRES
    55   27  106 1    
    56   28   29 2    
    57   28   30 1    
    58   30   31 1    
    59   30   32 1    
    60   30  107 1    
    61   31  108 1    
    62   31  109 1    
    63   31  110 1    
    64   32   33 am   BACKBONE|DICT|INTERRES
    65   32  111 1    
    66   33   34 2    
    67   33   35 1    
    68   35   36 1    
    69   35   37 1    
    70   35  112 1    
    71   36  113 1    
    72   36  114 1    
    73   36  115 1    
    74   37   38 am   BACKBONE|DICT|INTERRES
    75   37  116 1    
    76   38   39 2    
    77   38   40 1    
    78   40   41 1    
    79   40   42 1    
    80   40  117 1    
    81   41  118 1    
    82   41  119 1    
    83   41  120 1    
    84   42   43 am   BACKBONE|DICT|INTERRES
    85   42  121 1    
    86   43   44 2    
    87   43   45 1    
    88   45   46 1    
    89   45   47 1    
    90   45  122 1    
    91   46  123 1    
    92   46  124 1    
    93   46  125 1    
    94   47   48 am   BACKBONE|DICT|INTERRES
    95   47  126 1    
    96   48   49 2    
    97   48   50 1    
    98   50   51 1    
    99   50   52 1    
   100   50  127 1    
   101   51  128 1    
   102   51  129 1    
   103   51  130 1    
   104   52   53 am   BACKBONE|DICT|INTERRES
   105   52  131 1    
   106   53   54 2    
   107   53   55 1    
   108   55   56 1    
   109   55   59 1    
   110   55  132 1    
   111   56   57 1    
   112   56  133 1    
   113   56  134 1    
   114   57   58 1    
   115   58  135 1    
   116   58  136 1    
   117   59   60 am   BACKBONE|DICT|INTERRES
   118   59  137 1    
   119   60   61 2    
   120   60   62 1    
   121   62   63 1    
   122   62   64 1    
   123   62  138 1    
   124   63  139 1    
   125   63  140 1    
   126   63  141 1    
   127   64   65 am   BACKBONE|DICT|INTERRES
   128   64  142 1    
   129   65   66 2    
   130   65   67 1    
   131   67   68 1    
   132   67   69 1    
   133   67  143 1    
   134   68  144 1    
   135   68  145 1    
   136   68  146 1    
   137   69   70 am   BACKBONE|DICT|INTERRES
   138   69  147 1    
   139   70   71 2    
   140   70   72 1    
   141   72   73 1    
   142   72   74 1    
   143   72  148 1    
   144   73  149 1    
   145   73  150 1    
   146   73  151 1    
   147   74   75 am   BACKBONE|DICT|INTERRES
   148   74  152 1    
   149   75   76 2    
   150   75   77 1    
   151   77   78 1    
   152   77   79 1    
   153   77  153 1    
   154   78  154 1    
   155   78  155 1    
   156   78  156 1    
   157   79   80 am   BACKBONE|DICT|INTERRES
   158   79  157 1    
   159   80   81 2    
@<TRIPOS>SUBSTRUCTURE
     1 UNK         1 GROUP             0       ****    0 ROOT    
