@<TRIPOS>MOLECULE
3R207
157   159    1
SMALL
USER_CHARGES


@<TRIPOS>ATOM
      1 CA        -45.7695  -30.5389    9.1063 C.3       0 UNK        -0.1975 
      2 C         -47.0870  -30.2093    8.4209 C.2       0 UNK         0.4852 
      3 O         -47.9137  -29.5010    8.9932 O.2       0 UNK        -0.5216 
      4 N         -47.2834  -30.7069    7.1925 N.am      1 UNK        -0.4461 
      5 CA        -48.4677  -30.5395    6.3358 C.3       1 UNK         0.0864 
      6 C6        -49.7876  -31.0111    7.0049 C.3       14 UNK        -0.0898 
      7 S7        -50.9714  -31.7597    5.8298 S.3       14 UNK        -0.2598 
      8 C8        -52.1507  -30.4087    5.4929 C.3       14 UNK         0.0286 
      9 C9        -52.8305  -29.9057    6.7579 C.ar      14 UNK        -0.0844 
     10 C10       -52.4499  -28.6784    7.3085 C.ar      14 UNK        -0.0881 
     11 C11       -53.0135  -28.2383    8.5069 C.ar      14 UNK        -0.0643 
     12 C12       -53.9788  -29.0183    9.1444 C.ar      14 UNK        -0.0930 
     13 C13       -54.3897  -30.2327    8.5905 C.ar      14 UNK        -0.0827 
     14 C14       -53.8134  -30.6733    7.3942 C.ar      14 UNK        -0.1249 
     15 C15       -55.4189  -31.0810    9.3233 C.3       14 UNK         0.0141 
     16 S16       -57.0944  -30.9681    8.6151 S.3       14 UNK        -0.2313 
     17 C17       -57.4700  -29.1737    8.5647 C.3       14 UNK        -0.0915 
     18 CA        -58.3740  -28.5363    9.6753 C.3       13 UNK         0.0968 
     19 C         -59.4624  -29.4381   10.3385 C.2       13 UNK         0.5732 
     20 N         -60.1445  -30.2731    9.5662 N.am      13 UNK        -0.7310 
     21 O         -59.7558  -29.3383   11.5289 O.2       13 UNK        -0.5035 
     22 N         -57.6160  -27.6776   10.6016 N.am      13 UNK        -0.4233 
     23 C         -56.8528  -28.0516   11.6355 C.2       13 UNK         0.4989 
     24 O         -56.6273  -29.2180   11.9653 O.2       13 UNK        -0.4996 
     25 CA        -56.2408  -26.9034   12.4503 C.3       12 UNK         0.0216 
     26 CB        -57.3156  -26.1711   13.2786 C.3       12 UNK        -0.1964 
     27 N         -55.2068  -27.4296   13.3393 N.am      12 UNK        -0.4276 
     28 C         -54.1815  -26.7283   13.8339 C.2       12 UNK         0.5020 
     29 O         -53.9798  -25.5384   13.5768 O.2       12 UNK        -0.5489 
     30 CA        -53.2150  -27.4921   14.7534 C.3       11 UNK         0.0294 
     31 CB        -52.3063  -28.4254   13.9356 C.3       11 UNK        -0.2019 
     32 N         -52.3745  -26.5544   15.5004 N.am      11 UNK        -0.4493 
     33 C         -52.5569  -26.1948   16.7771 C.2       11 UNK         0.4932 
     34 O         -53.4398  -26.6565   17.5029 O.2       11 UNK        -0.5029 
     35 CA        -51.5664  -25.1474   17.3252 C.3       10 UNK         0.0280 
     36 CB        -51.7070  -24.8929   18.8415 C.3       10 UNK        -0.1976 
     37 N         -50.1840  -25.4688   16.9511 N.am      10 UNK        -0.4242 
     38 C         -49.4536  -26.5260   17.3355 C.2       10 UNK         0.5072 
     39 O         -49.7990  -27.3282   18.2041 O.2       10 UNK        -0.5224 
     40 CA        -48.1195  -26.7618   16.6025 C.3       9 UNK         0.0343 
     41 CB        -48.2871  -27.8772   15.5571 C.3       9 UNK        -0.2003 
     42 N         -47.5734  -25.5733   15.9398 N.am      9 UNK        -0.4272 
     43 C         -47.0078  -24.5338   16.5696 C.2       9 UNK         0.4988 
     44 O         -46.8978  -24.4505   17.7933 O.2       9 UNK        -0.5108 
     45 CA        -46.4736  -23.3946   15.6842 C.3       8 UNK         0.0248 
     46 CB        -45.1064  -23.7597   15.0826 C.3       8 UNK        -0.2001 
     47 N         -47.4064  -23.0449   14.6115 N.am      8 UNK        -0.4140 
     48 C         -48.5338  -22.3425   14.7929 C.2       8 UNK         0.5028 
     49 O         -48.8730  -21.8559   15.8720 O.2       8 UNK        -0.5428 
     50 CA        -49.4547  -22.1710   13.5714 C.3       7 UNK         0.0264 
     51 CB        -49.0276  -20.9527   12.7374 C.3       7 UNK        -0.1988 
     52 N         -49.5064  -23.3566   12.7124 N.am      7 UNK        -0.4454 
     53 C         -49.9521  -24.5595   13.1018 C.2       7 UNK         0.5027 
     54 O         -50.4165  -24.7893   14.2173 O.2       7 UNK        -0.5083 
     55 CA        -49.8285  -25.7208   12.1015 C.3       6 UNK         0.0844 
     56 C56       -51.0663  -25.7601   11.1834 C.3       14 UNK        -0.0967 
     57 S57       -51.1358  -27.3067   10.2395 S.3       14 UNK        -0.2604 
     58 C58       -52.5390  -26.9515    9.1497 C.3       14 UNK         0.0134 
     59 N         -48.5631  -25.7021   11.3599 N.am      6 UNK        -0.4116 
     60 C         -47.3489  -25.7725   11.9250 C.2       5 UNK         0.5034 
     61 O         -47.1615  -25.8877   13.1357 O.2       5 UNK        -0.5045 
     62 CA        -46.1376  -25.6236   10.9953 C.3       5 UNK         0.0224 
     63 CB        -45.8018  -26.9497   10.2985 C.3       5 UNK        -0.1978 
     64 N         -46.3623  -24.5761    9.9994 N.am      5 UNK        -0.4737 
     65 C         -46.3176  -23.2653   10.2747 C.2       4 UNK         0.5027 
     66 O         -46.0033  -22.8080   11.3738 O.2       4 UNK        -0.5211 
     67 CA        -46.7238  -22.3054    9.1431 C.3       4 UNK         0.0297 
     68 CB        -45.5150  -21.9808    8.2514 C.3       4 UNK        -0.1993 
     69 N         -47.8185  -22.8232    8.3163 N.am      4 UNK        -0.4486 
     70 C         -49.0649  -23.0388    8.7602 C.2       3 UNK         0.4961 
     71 O         -49.4321  -22.8007    9.9099 O.2       3 UNK        -0.5105 
     72 CA        -50.0645  -23.6584    7.7682 C.3       3 UNK         0.0299 
     73 CB        -50.7643  -22.5575    6.9564 C.3       3 UNK        -0.1972 
     74 N         -49.4837  -24.6488    6.8544 N.am      3 UNK        -0.4305 
     75 C         -48.8410  -25.7658    7.2230 C.2       2 UNK         0.5006 
     76 O         -48.5726  -26.0565    8.3900 O.2       2 UNK        -0.5106 
     77 CA        -48.3695  -26.6759    6.0865 C.3       2 UNK         0.0296 
     78 CB        -46.9472  -26.2898    5.6425 C.3       2 UNK        -0.2002 
     79 N         -48.3860  -28.0709    6.5222 N.am      2 UNK        -0.4032 
     80 C         -48.5838  -29.1257    5.7204 C.2       1 UNK         0.5000 
     81 O         -48.8130  -29.0205    4.5137 O.2       1 UNK        -0.5238 
     82 H82       -45.1402  -29.6512    9.1568 H         1 UNK         0.0889 
     83 H83       -45.2195  -31.3173    8.5778 H         1 UNK         0.0889 
     84 H84       -45.9522  -30.8862   10.1229 H         1 UNK         0.0889 
     85 H85       -46.5433  -31.2549    6.7750 H         1 UNK         0.3028 
     86 H86       -48.2698  -31.2105    5.4980 H         1 UNK         0.0864 
     87 H87       -49.5666  -31.7952    7.7305 H         1 UNK         0.0720 
     88 H88       -50.2475  -30.2149    7.5898 H         1 UNK         0.0720 
     89 H89       -52.9089  -30.7680    4.7957 H         1 UNK         0.0814 
     90 H90       -51.6298  -29.5975    4.9820 H         1 UNK         0.0814 
     91 H91       -51.6826  -28.0846    6.8306 H         1 UNK         0.1469 
     92 H92       -54.3981  -28.6864   10.0837 H         1 UNK         0.1381 
     93 H93       -54.1101  -31.6241    6.9726 H         1 UNK         0.1206 
     94 H94       -55.4546  -30.8141   10.3786 H         1 UNK         0.0813 
     95 H95       -55.1042  -32.1252    9.2969 H         1 UNK         0.0813 
     96 H96       -57.9769  -29.0309    7.6092 H         1 UNK         0.0638 
     97 H97       -56.5499  -28.6030    8.4518 H         1 UNK         0.0638 
     98 H98       -58.9848  -27.7972    9.1550 H         1 UNK         0.0568 
     99 H99       -60.8694  -30.8404    9.9762 H         1 UNK         0.3450 
    100 H100      -59.9151  -30.3757    8.5902 H         1 UNK         0.3450 
    101 H101      -57.7500  -26.6880   10.4543 H         1 UNK         0.2987 
    102 H102      -55.7816  -26.2041   11.7477 H         1 UNK         0.0766 
    103 H103      -56.8872  -25.3419   13.8420 H         1 UNK         0.0798 
    104 H104      -57.7994  -26.8425   13.9892 H         1 UNK         0.0798 
    105 H105      -58.0957  -25.7538   12.6410 H         1 UNK         0.0798 
    106 H106      -55.2873  -28.4229   13.5234 H         1 UNK         0.3198 
    107 H107      -53.8051  -28.0984   15.4443 H         1 UNK         0.0843 
    108 H108      -51.7386  -27.8798   13.1841 H         1 UNK         0.0831 
    109 H109      -52.8878  -29.1847   13.4114 H         1 UNK         0.0831 
    110 H110      -51.5960  -28.9485   14.5763 H         1 UNK         0.0831 
    111 H111      -51.6905  -26.0313   14.9595 H         1 UNK         0.3133 
    112 H112      -51.8026  -24.2120   16.8156 H         1 UNK         0.0566 
    113 H113      -50.9881  -24.1500   19.1868 H         1 UNK         0.0814 
    114 H114      -52.7025  -24.5167   19.0801 H         1 UNK         0.0814 
    115 H115      -51.5584  -25.8016   19.4252 H         1 UNK         0.0814 
    116 H116      -49.8318  -24.9388   16.1611 H         1 UNK         0.3091 
    117 H117      -47.3936  -27.0976   17.3460 H         1 UNK         0.0702 
    118 H118      -47.3415  -28.1072   15.0657 H         1 UNK         0.0785 
    119 H119      -49.0061  -27.5991   14.7859 H         1 UNK         0.0785 
    120 H120      -48.6450  -28.7981   16.0196 H         1 UNK         0.0785 
    121 H121      -47.5592  -25.5895   14.9220 H         1 UNK         0.2998 
    122 H122      -46.3351  -22.5163   16.3186 H         1 UNK         0.0697 
    123 H123      -45.1653  -24.6339   14.4336 H         1 UNK         0.0825 
    124 H124      -44.3839  -23.9858   15.8679 H         1 UNK         0.0825 
    125 H125      -44.6999  -22.9362   14.4950 H         1 UNK         0.0825 
    126 H126      -47.2038  -23.4074   13.6892 H         1 UNK         0.3029 
    127 H127      -50.4650  -21.9927   13.9460 H         1 UNK         0.0897 
    128 H128      -49.7261  -20.7673   11.9210 H         1 UNK         0.0792 
    129 H129      -48.9973  -20.0504   13.3495 H         1 UNK         0.0792 
    130 H130      -48.0361  -21.0882   12.3035 H         1 UNK         0.0792 
    131 H131      -49.2285  -23.2306   11.7412 H         1 UNK         0.3086 
    132 H132      -49.8194  -26.6368   12.6944 H         1 UNK         0.0583 
    133 H133      -51.9863  -25.6895   11.7671 H         1 UNK         0.1020 
    134 H134      -51.0717  -24.9103   10.5015 H         1 UNK         0.1020 
    135 H135      -53.3493  -26.4960    9.7216 H         1 UNK         0.0694 
    136 H136      -52.2409  -26.2279    8.3896 H         1 UNK         0.0694 
    137 H137      -48.6291  -25.6756   10.3466 H         1 UNK         0.2989 
    138 H138      -45.2814  -25.3409   11.6125 H         1 UNK         0.1055 
    139 H139      -45.6334  -27.7421   11.0291 H         1 UNK         0.0806 
    140 H140      -44.8972  -26.8640    9.6967 H         1 UNK         0.0806 
    141 H141      -46.6089  -27.2778    9.6447 H         1 UNK         0.0806 
    142 H142      -46.7020  -24.8732    9.0944 H         1 UNK         0.3061 
    143 H143      -47.0658  -21.3774    9.6069 H         1 UNK         0.0734 
    144 H144      -45.7662  -21.2355    7.4965 H         1 UNK         0.0832 
    145 H145      -44.6934  -21.5746    8.8435 H         1 UNK         0.0832 
    146 H146      -45.1390  -22.8671    7.7387 H         1 UNK         0.0832 
    147 H147      -47.6062  -23.0465    7.3550 H         1 UNK         0.3156 
    148 H148      -50.8267  -24.1741    8.3525 H         1 UNK         0.0589 
    149 H149      -50.0665  -22.0251    6.3088 H         1 UNK         0.0808 
    150 H150      -51.5582  -22.9673    6.3316 H         1 UNK         0.0808 
    151 H151      -51.2240  -21.8195    7.6157 H         1 UNK         0.0808 
    152 H152      -49.6296  -24.4829    5.8686 H         1 UNK         0.3098 
    153 H153      -49.0562  -26.5535    5.2461 H         1 UNK         0.0720 
    154 H154      -46.6132  -26.9033    4.8055 H         1 UNK         0.0791 
    155 H155      -46.2272  -26.4112    6.4532 H         1 UNK         0.0791 
    156 H156      -46.9031  -25.2497    5.3169 H         1 UNK         0.0791 
    157 H157      -48.2583  -28.2297    7.5205 H         1 UNK         0.3028 
@<TRIPOS>BOND
     1    1    2 1    
     2    1   82 1    
     3    1   83 1    
     4    1   84 1    
     5    2    3 2    
     6    2    4 am   BACKBONE|DICT|INTERRES
     7    4    5 1    
     8    4   85 1    
     9    5    6 1    
    10    5   80 1    
    11    5   86 1    
    12    6    7 1    
    13    6   87 1    
    14    6   88 1    
    15    7    8 1    
    16    8    9 1    
    17    8   89 1    
    18    8   90 1    
    19    9   10 ar   
    20    9   14 ar   
    21   10   11 ar   
    22   10   91 1    
    23   11   12 ar   
    24   11   58 1    
    25   12   13 ar   
    26   12   92 1    
    27   13   14 ar   
    28   13   15 1    
    29   14   93 1    
    30   15   16 1    
    31   15   94 1    
    32   15   95 1    
    33   16   17 1    
    34   17   18 1    
    35   17   96 1    
    36   17   97 1    
    37   18   19 1    
    38   18   22 1    
    39   18   98 1    
    40   19   20 am   BACKBONE|DICT|INTERRES
    41   19   21 2    
    42   20   99 1    
    43   20  100 1    
    44   22   23 am   BACKBONE|DICT|INTERRES
    45   22  101 1    
    46   23   24 2    
    47   23   25 1    
    48   25   26 1    
    49   25   27 1    
    50   25  102 1    
    51   26  103 1    
    52   26  104 1    
    53   26  105 1    
    54   27   28 am   BACKBONE|DICT|INTERRES
    55   27  106 1    
    56   28   29 2    
    57   28   30 1    
    58   30   31 1    
    59   30   32 1    
    60   30  107 1    
    61   31  108 1    
    62   31  109 1    
    63   31  110 1    
    64   32   33 am   BACKBONE|DICT|INTERRES
    65   32  111 1    
    66   33   34 2    
    67   33   35 1    
    68   35   36 1    
    69   35   37 1    
    70   35  112 1    
    71   36  113 1    
    72   36  114 1    
    73   36  115 1    
    74   37   38 am   BACKBONE|DICT|INTERRES
    75   37  116 1    
    76   38   39 2    
    77   38   40 1    
    78   40   41 1    
    79   40   42 1    
    80   40  117 1    
    81   41  118 1    
    82   41  119 1    
    83   41  120 1    
    84   42   43 am   BACKBONE|DICT|INTERRES
    85   42  121 1    
    86   43   44 2    
    87   43   45 1    
    88   45   46 1    
    89   45   47 1    
    90   45  122 1    
    91   46  123 1    
    92   46  124 1    
    93   46  125 1    
    94   47   48 am   BACKBONE|DICT|INTERRES
    95   47  126 1    
    96   48   49 2    
    97   48   50 1    
    98   50   51 1    
    99   50   52 1    
   100   50  127 1    
   101   51  128 1    
   102   51  129 1    
   103   51  130 1    
   104   52   53 am   BACKBONE|DICT|INTERRES
   105   52  131 1    
   106   53   54 2    
   107   53   55 1    
   108   55   56 1    
   109   55   59 1    
   110   55  132 1    
   111   56   57 1    
   112   56  133 1    
   113   56  134 1    
   114   57   58 1    
   115   58  135 1    
   116   58  136 1    
   117   59   60 am   BACKBONE|DICT|INTERRES
   118   59  137 1    
   119   60   61 2    
   120   60   62 1    
   121   62   63 1    
   122   62   64 1    
   123   62  138 1    
   124   63  139 1    
   125   63  140 1    
   126   63  141 1    
   127   64   65 am   BACKBONE|DICT|INTERRES
   128   64  142 1    
   129   65   66 2    
   130   65   67 1    
   131   67   68 1    
   132   67   69 1    
   133   67  143 1    
   134   68  144 1    
   135   68  145 1    
   136   68  146 1    
   137   69   70 am   BACKBONE|DICT|INTERRES
   138   69  147 1    
   139   70   71 2    
   140   70   72 1    
   141   72   73 1    
   142   72   74 1    
   143   72  148 1    
   144   73  149 1    
   145   73  150 1    
   146   73  151 1    
   147   74   75 am   BACKBONE|DICT|INTERRES
   148   74  152 1    
   149   75   76 2    
   150   75   77 1    
   151   77   78 1    
   152   77   79 1    
   153   77  153 1    
   154   78  154 1    
   155   78  155 1    
   156   78  156 1    
   157   79   80 am   BACKBONE|DICT|INTERRES
   158   79  157 1    
   159   80   81 2    
@<TRIPOS>SUBSTRUCTURE
     1 UNK         1 GROUP             0       ****    0 ROOT    
