@<TRIPOS>MOLECULE
3R207
157   159    1
SMALL
USER_CHARGES


@<TRIPOS>ATOM
      1 CA        -50.4394  -30.2464    8.7217 C.3       0 UNK        -0.1975 
      2 C         -49.6414  -30.1236    7.4329 C.2       0 UNK         0.4852 
      3 O         -48.4656  -30.4867    7.4038 O.2       0 UNK        -0.5216 
      4 N         -50.2737  -29.6129    6.3668 N.am      1 UNK        -0.4461 
      5 CA        -49.6805  -29.4280    5.0329 C.3       1 UNK         0.0864 
      6 C6        -50.7331  -29.0407    3.9608 C.3       14 UNK        -0.0898 
      7 S7        -52.1826  -30.1447    3.8905 S.3       14 UNK        -0.2598 
      8 C8        -53.5212  -29.0098    4.3828 C.3       14 UNK         0.0286 
      9 C9        -53.5591  -28.8130    5.8907 C.ar      14 UNK        -0.0844 
     10 C10       -52.8894  -27.7421    6.4955 C.ar      14 UNK        -0.0881 
     11 C11       -52.9059  -27.5839    7.8863 C.ar      14 UNK        -0.0643 
     12 C12       -53.6383  -28.4916    8.6609 C.ar      14 UNK        -0.0930 
     13 C13       -54.3153  -29.5606    8.0679 C.ar      14 UNK        -0.0827 
     14 C14       -54.2676  -29.7194    6.6828 C.ar      14 UNK        -0.1249 
     15 C15       -55.0903  -30.5425    8.9311 C.3       14 UNK         0.0141 
     16 S16       -53.9598  -31.6471    9.8325 S.3       14 UNK        -0.2313 
     17 C17       -55.0844  -32.4228   11.0454 C.3       14 UNK        -0.0915 
     18 CA        -55.6436  -31.4550   12.1308 C.3       13 UNK         0.0968 
     19 C         -56.4960  -32.2050   13.1937 C.2       13 UNK         0.5732 
     20 N         -56.3442  -31.9289   14.4839 N.am      13 UNK        -0.7310 
     21 O         -57.3253  -33.0421   12.8444 O.2       13 UNK        -0.5035 
     22 N         -54.5913  -30.6058   12.7185 N.am      13 UNK        -0.4233 
     23 C         -54.5089  -29.2796   12.5654 C.2       13 UNK         0.4989 
     24 O         -55.3302  -28.6015   11.9426 O.2       13 UNK        -0.4996 
     25 CA        -53.2663  -28.6065   13.1737 C.3       12 UNK         0.0216 
     26 CB        -52.0286  -28.8446   12.2845 C.3       12 UNK        -0.1964 
     27 N         -53.4696  -27.1659   13.3419 N.am      12 UNK        -0.4276 
     28 C         -54.2551  -26.6094   14.2733 C.2       12 UNK         0.5020 
     29 O         -54.8143  -27.2433   15.1707 O.2       12 UNK        -0.5489 
     30 CA        -54.4163  -25.0841   14.1829 C.3       11 UNK         0.0294 
     31 CB        -55.8710  -24.6151   14.3964 C.3       11 UNK        -0.2019 
     32 N         -53.4599  -24.4264   15.0769 N.am      11 UNK        -0.4493 
     33 C         -53.4963  -24.2757   16.4090 C.2       11 UNK         0.4932 
     34 O         -54.4614  -24.5380   17.1284 O.2       11 UNK        -0.5029 
     35 CA        -52.1845  -23.7559   17.0283 C.3       10 UNK         0.0280 
     36 CB        -52.2907  -23.4415   18.5361 C.3       10 UNK        -0.1976 
     37 N         -51.0802  -24.6796   16.7438 N.am      10 UNK        -0.4242 
     38 C         -50.9652  -25.9587   17.1365 C.2       10 UNK         0.5072 
     39 O         -51.7165  -26.5069   17.9438 O.2       10 UNK        -0.5224 
     40 CA        -49.8423  -26.7964   16.4984 C.3       9 UNK         0.0343 
     41 CB        -50.4408  -27.7468   15.4529 C.3       9 UNK        -0.2003 
     42 N         -48.7938  -25.9969   15.8606 N.am      9 UNK        -0.4272 
     43 C         -47.8429  -25.3313   16.5299 C.2       9 UNK         0.4988 
     44 O         -47.7309  -25.3437   17.7564 O.2       9 UNK        -0.5108 
     45 CA        -46.8567  -24.5009   15.6931 C.3       8 UNK         0.0248 
     46 CB        -45.7401  -25.3974   15.1343 C.3       8 UNK        -0.2001 
     47 N         -47.4977  -23.7645   14.5988 N.am      8 UNK        -0.4140 
     48 C         -48.4017  -22.7871   14.7642 C.2       8 UNK         0.5028 
     49 O         -48.8009  -22.4002   15.8627 O.2       8 UNK        -0.5428 
     50 CA        -48.9865  -22.1501   13.4924 C.3       7 UNK         0.0264 
     51 CB        -47.9846  -21.1732   12.8570 C.3       7 UNK        -0.1988 
     52 N         -49.4182  -23.1402   12.5025 N.am      7 UNK        -0.4454 
     53 C         -50.3993  -24.0308   12.7056 C.2       7 UNK         0.5027 
     54 O         -51.0652  -24.0826   13.7396 O.2       7 UNK        -0.5083 
     55 CA        -50.6724  -25.0657   11.5940 C.3       6 UNK         0.0844 
     56 C56       -51.5928  -24.4925   10.4824 C.3       14 UNK        -0.0967 
     57 S57       -52.8728  -25.6863    9.9696 S.3       14 UNK        -0.2604 
     58 C58       -52.0739  -26.4761    8.5335 C.3       14 UNK         0.0134 
     59 N         -49.4324  -25.6371   11.0606 N.am      6 UNK        -0.4116 
     60 C         -48.5429  -26.3264   11.7917 C.2       5 UNK         0.5034 
     61 O         -48.6995  -26.6188   12.9771 O.2       5 UNK        -0.5045 
     62 CA        -47.2236  -26.6916   11.0994 C.3       5 UNK         0.0224 
     63 CB        -47.3987  -27.9144   10.1835 C.3       5 UNK        -0.1978 
     64 N         -46.6746  -25.5586   10.3481 N.am      5 UNK        -0.4737 
     65 C         -46.1986  -24.4422   10.9212 C.2       4 UNK         0.5027 
     66 O         -46.1364  -24.2732   12.1371 O.2       4 UNK        -0.5211 
     67 CA        -45.7535  -23.3049    9.9876 C.3       4 UNK         0.0297 
     68 CB        -44.2993  -23.5166    9.5389 C.3       4 UNK        -0.1993 
     69 N         -46.6137  -23.1583    8.8129 N.am      4 UNK        -0.4486 
     70 C         -47.9153  -22.8356    8.8464 C.2       3 UNK         0.4961 
     71 O         -48.5372  -22.5812    9.8763 O.2       3 UNK        -0.5105 
     72 CA        -48.6620  -22.8721    7.5034 C.3       3 UNK         0.0299 
     73 CB        -48.5106  -21.5359    6.7601 C.3       3 UNK        -0.1972 
     74 N         -48.2099  -23.9740    6.6478 N.am      3 UNK        -0.4305 
     75 C         -48.3447  -25.2682    6.9639 C.2       2 UNK         0.5006 
     76 O         -48.9091  -25.6742    7.9844 O.2       2 UNK        -0.5106 
     77 CA        -47.6900  -26.2752    6.0188 C.3       2 UNK         0.0296 
     78 CB        -46.2825  -26.6557    6.5156 C.3       2 UNK        -0.2002 
     79 N         -48.5516  -27.4472    5.9605 N.am      2 UNK        -0.4032 
     80 C         -48.5461  -28.3798    5.0011 C.2       1 UNK         0.5000 
     81 O         -47.7227  -28.4117    4.0842 O.2       1 UNK        -0.5238 
     82 H82       -50.2977  -29.3630    9.3435 H         1 UNK         0.0889 
     83 H83       -50.1171  -31.1192    9.2888 H         1 UNK         0.0889 
     84 H84       -51.5028  -30.3595    8.5169 H         1 UNK         0.0889 
     85 H85       -51.2547  -29.3738    6.4397 H         1 UNK         0.3028 
     86 H86       -49.2387  -30.3839    4.7437 H         1 UNK         0.0864 
     87 H87       -50.2748  -29.0582    2.9698 H         1 UNK         0.0720 
     88 H88       -51.0696  -28.0130    4.1060 H         1 UNK         0.0720 
     89 H89       -54.4716  -29.4267    4.0458 H         1 UNK         0.0814 
     90 H90       -53.4174  -28.0536    3.8677 H         1 UNK         0.0814 
     91 H91       -52.3350  -27.0428    5.8847 H         1 UNK         0.1469 
     92 H92       -53.6743  -28.3840    9.7342 H         1 UNK         0.1381 
     93 H93       -54.7807  -30.5509    6.2187 H         1 UNK         0.1206 
     94 H94       -55.7080  -29.9779    9.6285 H         1 UNK         0.0813 
     95 H95       -55.7737  -31.1411    8.3271 H         1 UNK         0.0813 
     96 H96       -54.5308  -33.2348   11.5202 H         1 UNK         0.0638 
     97 H97       -55.9020  -32.8946   10.4974 H         1 UNK         0.0638 
     98 H98       -56.3781  -30.8185   11.6371 H         1 UNK         0.0568 
     99 H99       -56.9082  -32.4189   15.1605 H         1 UNK         0.3450 
    100 H100      -55.6984  -31.2179   14.7868 H         1 UNK         0.3450 
    101 H101      -53.8751  -31.0938   13.2363 H         1 UNK         0.2987 
    102 H102      -53.0839  -29.0485   14.1556 H         1 UNK         0.0766 
    103 H103      -51.1154  -28.4848   12.7555 H         1 UNK         0.0798 
    104 H104      -52.1126  -28.3443   11.3214 H         1 UNK         0.0798 
    105 H105      -51.8819  -29.9067   12.0833 H         1 UNK         0.0798 
    106 H106      -53.1146  -26.5802   12.6011 H         1 UNK         0.3198 
    107 H107      -54.1349  -24.7759   13.1741 H         1 UNK         0.0843 
    108 H108      -55.9486  -23.5286   14.3605 H         1 UNK         0.0831 
    109 H109      -56.2793  -24.9513   15.3496 H         1 UNK         0.0831 
    110 H110      -56.5192  -25.0147   13.6157 H         1 UNK         0.0831 
    111 H111      -52.5701  -24.2024   14.6279 H         1 UNK         0.3133 
    112 H112      -51.9412  -22.8231   16.5168 H         1 UNK         0.0566 
    113 H113      -51.3455  -23.0669   18.9289 H         1 UNK         0.0814 
    114 H114      -53.0452  -22.6754   18.7182 H         1 UNK         0.0814 
    115 H115      -52.5737  -24.3169   19.1210 H         1 UNK         0.0814 
    116 H116      -50.4092  -24.3450   16.0638 H         1 UNK         0.3091 
    117 H117      -49.3882  -27.3983   17.2884 H         1 UNK         0.0702 
    118 H118      -49.6792  -28.3919   15.0146 H         1 UNK         0.0785 
    119 H119      -50.9129  -27.1845   14.6473 H         1 UNK         0.0785 
    120 H120      -51.2024  -28.3916   15.8935 H         1 UNK         0.0785 
    121 H121      -48.7827  -25.9881   14.8439 H         1 UNK         0.2998 
    122 H122      -46.3989  -23.7659   16.3584 H         1 UNK         0.0697 
    123 H123      -44.9748  -24.8079   14.6292 H         1 UNK         0.0825 
    124 H124      -45.2463  -25.9533   15.9325 H         1 UNK         0.0825 
    125 H125      -46.1273  -26.1242   14.4189 H         1 UNK         0.0825 
    126 H126      -47.1861  -23.9935   13.6564 H         1 UNK         0.3029 
    127 H127      -49.8692  -21.5790   13.7889 H         1 UNK         0.0897 
    128 H128      -48.4191  -20.6633   11.9969 H         1 UNK         0.0792 
    129 H129      -47.6821  -20.4057   13.5707 H         1 UNK         0.0792 
    130 H130      -47.0805  -21.6814   12.5222 H         1 UNK         0.0792 
    131 H131      -48.9638  -23.1049   11.5915 H         1 UNK         0.3086 
    132 H132      -51.1928  -25.8858   12.0912 H         1 UNK         0.0583 
    133 H133      -52.1315  -23.6053   10.8231 H         1 UNK         0.1020 
    134 H134      -51.0157  -24.1593    9.6179 H         1 UNK         0.1020 
    135 H135      -51.8344  -25.7034    7.8011 H         1 UNK         0.0694 
    136 H136      -51.1261  -26.9074    8.8566 H         1 UNK         0.0694 
    137 H137      -49.2195  -25.4544   10.0864 H         1 UNK         0.2989 
    138 H138      -46.5074  -26.9556   11.8811 H         1 UNK         0.1055 
    139 H139      -47.7880  -28.7657   10.7437 H         1 UNK         0.0806 
    140 H140      -46.4478  -28.2248    9.7506 H         1 UNK         0.0806 
    141 H141      -48.0933  -27.7237    9.3660 H         1 UNK         0.0806 
    142 H142      -46.7390  -25.5988    9.3420 H         1 UNK         0.3061 
    143 H143      -45.8034  -22.3724   10.5534 H         1 UNK         0.0734 
    144 H144      -43.9396  -22.6757    8.9455 H         1 UNK         0.0832 
    145 H145      -43.6365  -23.6083   10.4007 H         1 UNK         0.0832 
    146 H146      -44.1851  -24.4232    8.9432 H         1 UNK         0.0832 
    147 H147      -46.1928  -23.3421    7.9143 H         1 UNK         0.3156 
    148 H148      -49.7221  -23.0256    7.7163 H         1 UNK         0.0589 
    149 H149      -49.0997  -21.5231    5.8429 H         1 UNK         0.0808 
    150 H150      -47.4722  -21.3315    6.4960 H         1 UNK         0.0808 
    151 H151      -48.8587  -20.7064    7.3775 H         1 UNK         0.0808 
    152 H152      -47.7390  -23.7233    5.7896 H         1 UNK         0.3098 
    153 H153      -47.6216  -25.8353    5.0216 H         1 UNK         0.0720 
    154 H154      -46.3172  -27.1448    7.4890 H         1 UNK         0.0791 
    155 H155      -45.6450  -25.7759    6.6102 H         1 UNK         0.0791 
    156 H156      -45.7880  -27.3363    5.8226 H         1 UNK         0.0791 
    157 H157      -49.2572  -27.4831    6.6845 H         1 UNK         0.3028 
@<TRIPOS>BOND
     1    1    2 1    
     2    1   82 1    
     3    1   83 1    
     4    1   84 1    
     5    2    3 2    
     6    2    4 am   BACKBONE|DICT|INTERRES
     7    4    5 1    
     8    4   85 1    
     9    5    6 1    
    10    5   80 1    
    11    5   86 1    
    12    6    7 1    
    13    6   87 1    
    14    6   88 1    
    15    7    8 1    
    16    8    9 1    
    17    8   89 1    
    18    8   90 1    
    19    9   10 ar   
    20    9   14 ar   
    21   10   11 ar   
    22   10   91 1    
    23   11   12 ar   
    24   11   58 1    
    25   12   13 ar   
    26   12   92 1    
    27   13   14 ar   
    28   13   15 1    
    29   14   93 1    
    30   15   16 1    
    31   15   94 1    
    32   15   95 1    
    33   16   17 1    
    34   17   18 1    
    35   17   96 1    
    36   17   97 1    
    37   18   19 1    
    38   18   22 1    
    39   18   98 1    
    40   19   20 am   BACKBONE|DICT|INTERRES
    41   19   21 2    
    42   20   99 1    
    43   20  100 1    
    44   22   23 am   BACKBONE|DICT|INTERRES
    45   22  101 1    
    46   23   24 2    
    47   23   25 1    
    48   25   26 1    
    49   25   27 1    
    50   25  102 1    
    51   26  103 1    
    52   26  104 1    
    53   26  105 1    
    54   27   28 am   BACKBONE|DICT|INTERRES
    55   27  106 1    
    56   28   29 2    
    57   28   30 1    
    58   30   31 1    
    59   30   32 1    
    60   30  107 1    
    61   31  108 1    
    62   31  109 1    
    63   31  110 1    
    64   32   33 am   BACKBONE|DICT|INTERRES
    65   32  111 1    
    66   33   34 2    
    67   33   35 1    
    68   35   36 1    
    69   35   37 1    
    70   35  112 1    
    71   36  113 1    
    72   36  114 1    
    73   36  115 1    
    74   37   38 am   BACKBONE|DICT|INTERRES
    75   37  116 1    
    76   38   39 2    
    77   38   40 1    
    78   40   41 1    
    79   40   42 1    
    80   40  117 1    
    81   41  118 1    
    82   41  119 1    
    83   41  120 1    
    84   42   43 am   BACKBONE|DICT|INTERRES
    85   42  121 1    
    86   43   44 2    
    87   43   45 1    
    88   45   46 1    
    89   45   47 1    
    90   45  122 1    
    91   46  123 1    
    92   46  124 1    
    93   46  125 1    
    94   47   48 am   BACKBONE|DICT|INTERRES
    95   47  126 1    
    96   48   49 2    
    97   48   50 1    
    98   50   51 1    
    99   50   52 1    
   100   50  127 1    
   101   51  128 1    
   102   51  129 1    
   103   51  130 1    
   104   52   53 am   BACKBONE|DICT|INTERRES
   105   52  131 1    
   106   53   54 2    
   107   53   55 1    
   108   55   56 1    
   109   55   59 1    
   110   55  132 1    
   111   56   57 1    
   112   56  133 1    
   113   56  134 1    
   114   57   58 1    
   115   58  135 1    
   116   58  136 1    
   117   59   60 am   BACKBONE|DICT|INTERRES
   118   59  137 1    
   119   60   61 2    
   120   60   62 1    
   121   62   63 1    
   122   62   64 1    
   123   62  138 1    
   124   63  139 1    
   125   63  140 1    
   126   63  141 1    
   127   64   65 am   BACKBONE|DICT|INTERRES
   128   64  142 1    
   129   65   66 2    
   130   65   67 1    
   131   67   68 1    
   132   67   69 1    
   133   67  143 1    
   134   68  144 1    
   135   68  145 1    
   136   68  146 1    
   137   69   70 am   BACKBONE|DICT|INTERRES
   138   69  147 1    
   139   70   71 2    
   140   70   72 1    
   141   72   73 1    
   142   72   74 1    
   143   72  148 1    
   144   73  149 1    
   145   73  150 1    
   146   73  151 1    
   147   74   75 am   BACKBONE|DICT|INTERRES
   148   74  152 1    
   149   75   76 2    
   150   75   77 1    
   151   77   78 1    
   152   77   79 1    
   153   77  153 1    
   154   78  154 1    
   155   78  155 1    
   156   78  156 1    
   157   79   80 am   BACKBONE|DICT|INTERRES
   158   79  157 1    
   159   80   81 2    
@<TRIPOS>SUBSTRUCTURE
     1 UNK         1 GROUP             0       ****    0 ROOT    
