@<TRIPOS>MOLECULE
3R207
157   159    1
SMALL
USER_CHARGES


@<TRIPOS>ATOM
      1 CA        -47.9479  -30.3280    7.5424 C.3       0 UNK        -0.1975 
      2 C         -47.9742  -28.9725    6.8540 C.2       0 UNK         0.4852 
      3 O         -46.9205  -28.3926    6.5848 O.2       0 UNK        -0.5216 
      4 N         -49.1824  -28.4751    6.5659 N.am      1 UNK        -0.4461 
      5 CA        -49.4642  -27.2311    5.8404 C.3       1 UNK         0.0864 
      6 C6        -50.9839  -26.9861    5.6621 C.3       14 UNK        -0.0898 
      7 S7        -51.8148  -28.3899    4.8370 S.3       14 UNK        -0.2598 
      8 C8        -53.5284  -28.2471    5.4604 C.3       14 UNK         0.0286 
      9 C9        -53.7746  -28.6935    6.9058 C.ar      14 UNK        -0.0844 
     10 C10       -52.7430  -29.0032    7.8002 C.ar      14 UNK        -0.0881 
     11 C11       -53.0115  -29.3408    9.1285 C.ar      14 UNK        -0.0643 
     12 C12       -54.3394  -29.4109    9.5588 C.ar      14 UNK        -0.0930 
     13 C13       -55.3905  -29.1422    8.6718 C.ar      14 UNK        -0.0827 
     14 C14       -55.0959  -28.7739    7.3554 C.ar      14 UNK        -0.1249 
     15 C15       -56.8445  -29.1996    9.1289 C.3       14 UNK         0.0141 
     16 S16       -57.2578  -30.7596    9.9839 S.3       14 UNK        -0.2313 
     17 C17       -58.5395  -30.1843   11.1574 C.3       14 UNK        -0.0915 
     18 CA        -57.9718  -29.7963   12.5524 C.3       13 UNK         0.0968 
     19 C         -57.6440  -31.0428   13.4273 C.2       13 UNK         0.5732 
     20 N         -56.4003  -31.2789   13.8300 N.am      13 UNK        -0.7310 
     21 O         -58.5469  -31.8066   13.7613 O.2       13 UNK        -0.5035 
     22 N         -56.8694  -28.8412   12.4057 N.am      13 UNK        -0.4233 
     23 C         -56.4263  -27.9825   13.3237 C.2       13 UNK         0.4989 
     24 O         -56.9416  -27.8053   14.4288 O.2       13 UNK        -0.4996 
     25 CA        -55.1657  -27.1996   12.9208 C.3       12 UNK         0.0216 
     26 CB        -55.4084  -25.6832   12.9709 C.3       12 UNK        -0.1964 
     27 N         -54.0154  -27.5414   13.7562 N.am      12 UNK        -0.4276 
     28 C         -53.5086  -28.7711   13.9377 C.2       12 UNK         0.5020 
     29 O         -53.9460  -29.7759   13.3744 O.2       12 UNK        -0.5489 
     30 CA        -52.3014  -28.9093   14.8827 C.3       11 UNK         0.0294 
     31 CB        -51.0623  -29.3923   14.1099 C.3       11 UNK        -0.2019 
     32 N         -51.9822  -27.6434   15.5460 N.am      11 UNK        -0.4493 
     33 C         -52.3518  -27.2958   16.7849 C.2       11 UNK         0.4932 
     34 O         -52.9506  -28.0443   17.5586 O.2       11 UNK        -0.5029 
     35 CA        -52.0128  -25.8517   17.2068 C.3       10 UNK         0.0280 
     36 CB        -52.0431  -25.6386   18.7354 C.3       10 UNK        -0.1976 
     37 N         -50.7557  -25.3715   16.6188 N.am      10 UNK        -0.4242 
     38 C         -49.5148  -25.8282   16.8513 C.2       10 UNK         0.5072 
     39 O         -49.2451  -26.7043   17.6740 O.2       10 UNK        -0.5224 
     40 CA        -48.3726  -25.2316   16.0055 C.3       9 UNK         0.0343 
     41 CB        -47.8652  -26.2694   14.9902 C.3       9 UNK        -0.2003 
     42 N         -48.7379  -24.0108   15.2822 N.am      9 UNK        -0.4272 
     43 C         -48.9398  -22.8081   15.8386 C.2       9 UNK         0.4988 
     44 O         -48.8240  -22.5790   17.0426 O.2       9 UNK        -0.5108 
     45 CA        -49.3641  -21.6772   14.8899 C.3       8 UNK         0.0248 
     46 CB        -48.1344  -21.0453   14.2165 C.3       8 UNK        -0.2001 
     47 N         -50.2917  -22.1612   13.8643 N.am      8 UNK        -0.4140 
     48 C         -51.6173  -22.2654   14.0290 C.2       8 UNK         0.5028 
     49 O         -52.2080  -21.9181   15.0519 O.2       8 UNK        -0.5428 
     50 CA        -52.4290  -22.8645   12.8651 C.3       7 UNK         0.0264 
     51 CB        -52.8899  -21.7585   11.9028 C.3       7 UNK        -0.1988 
     52 N         -51.7102  -23.8965   12.1103 N.am      7 UNK        -0.4454 
     53 C         -51.4001  -25.1071   12.5953 C.2       7 UNK         0.5027 
     54 O         -51.7219  -25.4904   13.7213 O.2       7 UNK        -0.5083 
     55 CA        -50.5663  -26.0490   11.6998 C.3       6 UNK         0.0844 
     56 C56       -51.4941  -26.9540   10.8534 C.3       14 UNK        -0.0967 
     57 S57       -50.5846  -28.3453   10.1041 S.3       14 UNK        -0.2604 
     58 C58       -51.8649  -29.6485   10.0876 C.3       14 UNK         0.0134 
     59 N         -49.5436  -25.3836   10.8781 N.am      6 UNK        -0.4116 
     60 C         -48.6307  -24.4988   11.3069 C.2       5 UNK         0.5034 
     61 O         -48.6046  -24.0288   12.4451 O.2       5 UNK        -0.5045 
     62 CA        -47.5554  -24.1002   10.2867 C.3       5 UNK         0.0224 
     63 CB        -46.6239  -22.9753   10.7860 C.3       5 UNK        -0.1978 
     64 N         -46.7925  -25.2749    9.8568 N.am      5 UNK        -0.4737 
     65 C         -46.0154  -26.0747   10.6050 C.2       4 UNK         0.5027 
     66 O         -45.7702  -25.8964   11.7975 O.2       4 UNK        -0.5211 
     67 CA        -45.4115  -27.2979    9.8962 C.3       4 UNK         0.0297 
     68 CB        -46.3341  -28.5119   10.0772 C.3       4 UNK        -0.1993 
     69 N         -45.1804  -27.0496    8.4692 N.am      4 UNK        -0.4486 
     70 C         -44.1685  -26.3046    8.0004 C.2       3 UNK         0.4961 
     71 O         -43.2495  -25.8741    8.6981 O.2       3 UNK        -0.5105 
     72 CA        -44.2134  -25.9407    6.5085 C.3       3 UNK         0.0299 
     73 CB        -43.7873  -27.1273    5.6285 C.3       3 UNK        -0.1972 
     74 N         -45.5396  -25.4620    6.1089 N.am      3 UNK        -0.4305 
     75 C         -46.0501  -24.2700    6.4604 C.2       2 UNK         0.5006 
     76 O         -45.4305  -23.4304    7.1133 O.2       2 UNK        -0.5106 
     77 CA        -47.4868  -23.9381    6.0129 C.3       2 UNK         0.0296 
     78 CB        -47.4670  -22.9410    4.8424 C.3       2 UNK        -0.2002 
     79 N         -48.2644  -25.1158    5.6236 N.am      2 UNK        -0.4032 
     80 C         -48.7850  -26.0032    6.4812 C.2       1 UNK         0.5000 
     81 O         -48.7344  -25.8868    7.7102 O.2       1 UNK        -0.5238 
     82 H82       -48.5022  -31.0641    6.9608 H         1 UNK         0.0889 
     83 H83       -48.3950  -30.2636    8.5342 H         1 UNK         0.0889 
     84 H84       -46.9244  -30.6862    7.6502 H         1 UNK         0.0889 
     85 H85       -49.9964  -29.0112    6.8203 H         1 UNK         0.3028 
     86 H86       -49.0309  -27.3655    4.8469 H         1 UNK         0.0864 
     87 H87       -51.1590  -26.0962    5.0544 H         1 UNK         0.0720 
     88 H88       -51.4559  -26.7894    6.6264 H         1 UNK         0.0720 
     89 H89       -54.1653  -28.8416    4.8036 H         1 UNK         0.0814 
     90 H90       -53.8569  -27.2128    5.3487 H         1 UNK         0.0814 
     91 H91       -51.7149  -28.9667    7.4856 H         1 UNK         0.1469 
     92 H92       -54.5503  -29.6893   10.5821 H         1 UNK         0.1381 
     93 H93       -55.9022  -28.5399    6.6731 H         1 UNK         0.1206 
     94 H94       -57.5218  -29.0940    8.2799 H         1 UNK         0.0813 
     95 H95       -57.0356  -28.3386    9.7689 H         1 UNK         0.0813 
     96 H96       -59.0564  -29.3281   10.7212 H         1 UNK         0.0638 
     97 H97       -59.3008  -30.9613   11.2483 H         1 UNK         0.0638 
     98 H98       -58.7704  -29.2792   13.0872 H         1 UNK         0.0568 
     99 H99       -55.6309  -30.6690   13.5679 H         1 UNK         0.3450 
    100 H100      -56.2186  -32.0899   14.3983 H         1 UNK         0.3450 
    101 H101      -56.3425  -28.9495   11.5537 H         1 UNK         0.2987 
    102 H102      -54.9044  -27.4562   11.8921 H         1 UNK         0.0766 
    103 H103      -54.5710  -25.1388   12.5372 H         1 UNK         0.0798 
    104 H104      -55.5541  -25.3283   13.9920 H         1 UNK         0.0798 
    105 H105      -56.2969  -25.4097   12.4000 H         1 UNK         0.0798 
    106 H106      -53.5713  -26.7757   14.2435 H         1 UNK         0.3198 
    107 H107      -52.5569  -29.6669   15.6265 H         1 UNK         0.0843 
    108 H108      -50.7857  -28.7037   13.3129 H         1 UNK         0.0831 
    109 H109      -51.2449  -30.3638   13.6485 H         1 UNK         0.0831 
    110 H110      -50.2021  -29.5048   14.7701 H         1 UNK         0.0831 
    111 H111      -51.5565  -26.9244   14.9668 H         1 UNK         0.3133 
    112 H112      -52.7959  -25.2252   16.7772 H         1 UNK         0.0566 
    113 H113      -51.7971  -24.6096   18.9974 H         1 UNK         0.0814 
    114 H114      -53.0351  -25.8463   19.1382 H         1 UNK         0.0814 
    115 H115      -51.3418  -26.2941   19.2523 H         1 UNK         0.0814 
    116 H116      -50.8578  -24.6804   15.8878 H         1 UNK         0.3091 
    117 H117      -47.5545  -24.9892   16.6868 H         1 UNK         0.0702 
    118 H118      -47.0340  -25.8787   14.4022 H         1 UNK         0.0785 
    119 H119      -48.6505  -26.5706   14.2974 H         1 UNK         0.0785 
    120 H120      -47.5114  -27.1703   15.4931 H         1 UNK         0.0785 
    121 H121      -48.7872  -24.0831   14.2677 H         1 UNK         0.2998 
    122 H122      -49.8565  -20.9043   15.4843 H         1 UNK         0.0697 
    123 H123      -47.5801  -21.7694   13.6182 H         1 UNK         0.0825 
    124 H124      -47.4458  -20.6454   14.9620 H         1 UNK         0.0825 
    125 H125      -48.4199  -20.2202   13.5640 H         1 UNK         0.0825 
    126 H126      -49.8715  -22.5504   13.0282 H         1 UNK         0.3029 
    127 H127      -53.3179  -23.3218   13.3037 H         1 UNK         0.0897 
    128 H128      -52.0467  -21.2703   11.4125 H         1 UNK         0.0792 
    129 H129      -53.4486  -20.9869   12.4347 H         1 UNK         0.0792 
    130 H130      -53.5471  -22.1548   11.1284 H         1 UNK         0.0792 
    131 H131      -51.4097  -23.6576   11.1763 H         1 UNK         0.3086 
    132 H132      -50.0126  -26.6917   12.3848 H         1 UNK         0.0583 
    133 H133      -52.2965  -27.3653   11.4676 H         1 UNK         0.1020 
    134 H134      -51.9819  -26.3840   10.0604 H         1 UNK         0.1020 
    135 H135      -51.4013  -30.5882    9.7851 H         1 UNK         0.0694 
    136 H136      -52.2332  -29.8014   11.1032 H         1 UNK         0.0694 
    137 H137      -49.4572  -25.7245    9.9276 H         1 UNK         0.2989 
    138 H138      -48.0804  -23.7253    9.4069 H         1 UNK         0.1055 
    139 H139      -47.1919  -22.0712   11.0080 H         1 UNK         0.0806 
    140 H140      -45.8809  -22.7157   10.0317 H         1 UNK         0.0806 
    141 H141      -46.0936  -23.2550   11.6968 H         1 UNK         0.0806 
    142 H142      -46.9864  -25.5775    8.9095 H         1 UNK         0.3061 
    143 H143      -44.4542  -27.5250   10.3706 H         1 UNK         0.0734 
    144 H144      -45.9324  -29.3951    9.5815 H         1 UNK         0.0832 
    145 H145      -46.4478  -28.7570   11.1341 H         1 UNK         0.0832 
    146 H146      -47.3327  -28.3180    9.6847 H         1 UNK         0.0832 
    147 H147      -45.8641  -27.4181    7.8104 H         1 UNK         0.3156 
    148 H148      -43.4980  -25.1322    6.3414 H         1 UNK         0.0589 
    149 H149      -44.4608  -27.9783    5.7307 H         1 UNK         0.0808 
    150 H150      -43.7576  -26.8486    4.5751 H         1 UNK         0.0808 
    151 H151      -42.7882  -27.4712    5.8996 H         1 UNK         0.0808 
    152 H152      -46.1201  -26.1117    5.5979 H         1 UNK         0.3098 
    153 H153      -47.9876  -23.4589    6.8568 H         1 UNK         0.0720 
    154 H154      -48.4760  -22.6403    4.5594 H         1 UNK         0.0791 
    155 H155      -46.9804  -23.3605    3.9608 H         1 UNK         0.0791 
    156 H156      -46.9251  -22.0332    5.1119 H         1 UNK         0.0791 
    157 H157      -48.3663  -25.2769    4.6313 H         1 UNK         0.3028 
@<TRIPOS>BOND
     1    1    2 1    
     2    1   82 1    
     3    1   83 1    
     4    1   84 1    
     5    2    3 2    
     6    2    4 am   BACKBONE|DICT|INTERRES
     7    4    5 1    
     8    4   85 1    
     9    5    6 1    
    10    5   80 1    
    11    5   86 1    
    12    6    7 1    
    13    6   87 1    
    14    6   88 1    
    15    7    8 1    
    16    8    9 1    
    17    8   89 1    
    18    8   90 1    
    19    9   10 ar   
    20    9   14 ar   
    21   10   11 ar   
    22   10   91 1    
    23   11   12 ar   
    24   11   58 1    
    25   12   13 ar   
    26   12   92 1    
    27   13   14 ar   
    28   13   15 1    
    29   14   93 1    
    30   15   16 1    
    31   15   94 1    
    32   15   95 1    
    33   16   17 1    
    34   17   18 1    
    35   17   96 1    
    36   17   97 1    
    37   18   19 1    
    38   18   22 1    
    39   18   98 1    
    40   19   20 am   BACKBONE|DICT|INTERRES
    41   19   21 2    
    42   20   99 1    
    43   20  100 1    
    44   22   23 am   BACKBONE|DICT|INTERRES
    45   22  101 1    
    46   23   24 2    
    47   23   25 1    
    48   25   26 1    
    49   25   27 1    
    50   25  102 1    
    51   26  103 1    
    52   26  104 1    
    53   26  105 1    
    54   27   28 am   BACKBONE|DICT|INTERRES
    55   27  106 1    
    56   28   29 2    
    57   28   30 1    
    58   30   31 1    
    59   30   32 1    
    60   30  107 1    
    61   31  108 1    
    62   31  109 1    
    63   31  110 1    
    64   32   33 am   BACKBONE|DICT|INTERRES
    65   32  111 1    
    66   33   34 2    
    67   33   35 1    
    68   35   36 1    
    69   35   37 1    
    70   35  112 1    
    71   36  113 1    
    72   36  114 1    
    73   36  115 1    
    74   37   38 am   BACKBONE|DICT|INTERRES
    75   37  116 1    
    76   38   39 2    
    77   38   40 1    
    78   40   41 1    
    79   40   42 1    
    80   40  117 1    
    81   41  118 1    
    82   41  119 1    
    83   41  120 1    
    84   42   43 am   BACKBONE|DICT|INTERRES
    85   42  121 1    
    86   43   44 2    
    87   43   45 1    
    88   45   46 1    
    89   45   47 1    
    90   45  122 1    
    91   46  123 1    
    92   46  124 1    
    93   46  125 1    
    94   47   48 am   BACKBONE|DICT|INTERRES
    95   47  126 1    
    96   48   49 2    
    97   48   50 1    
    98   50   51 1    
    99   50   52 1    
   100   50  127 1    
   101   51  128 1    
   102   51  129 1    
   103   51  130 1    
   104   52   53 am   BACKBONE|DICT|INTERRES
   105   52  131 1    
   106   53   54 2    
   107   53   55 1    
   108   55   56 1    
   109   55   59 1    
   110   55  132 1    
   111   56   57 1    
   112   56  133 1    
   113   56  134 1    
   114   57   58 1    
   115   58  135 1    
   116   58  136 1    
   117   59   60 am   BACKBONE|DICT|INTERRES
   118   59  137 1    
   119   60   61 2    
   120   60   62 1    
   121   62   63 1    
   122   62   64 1    
   123   62  138 1    
   124   63  139 1    
   125   63  140 1    
   126   63  141 1    
   127   64   65 am   BACKBONE|DICT|INTERRES
   128   64  142 1    
   129   65   66 2    
   130   65   67 1    
   131   67   68 1    
   132   67   69 1    
   133   67  143 1    
   134   68  144 1    
   135   68  145 1    
   136   68  146 1    
   137   69   70 am   BACKBONE|DICT|INTERRES
   138   69  147 1    
   139   70   71 2    
   140   70   72 1    
   141   72   73 1    
   142   72   74 1    
   143   72  148 1    
   144   73  149 1    
   145   73  150 1    
   146   73  151 1    
   147   74   75 am   BACKBONE|DICT|INTERRES
   148   74  152 1    
   149   75   76 2    
   150   75   77 1    
   151   77   78 1    
   152   77   79 1    
   153   77  153 1    
   154   78  154 1    
   155   78  155 1    
   156   78  156 1    
   157   79   80 am   BACKBONE|DICT|INTERRES
   158   79  157 1    
   159   80   81 2    
@<TRIPOS>SUBSTRUCTURE
     1 UNK         1 GROUP             0       ****    0 ROOT    
