@<TRIPOS>MOLECULE
3R207
157   159    1
SMALL
USER_CHARGES


@<TRIPOS>ATOM
      1 CA        -51.2229  -28.8277    1.5446 C.3       0 UNK        -0.1975 
      2 C         -51.1296  -27.5701    2.3957 C.2       0 UNK         0.4852 
      3 O         -50.6920  -26.5291    1.9054 O.2       0 UNK        -0.5216 
      4 N         -51.5232  -27.6599    3.6730 N.am      1 UNK        -0.4461 
      5 CA        -51.5353  -26.5531    4.6402 C.3       1 UNK         0.0864 
      6 C6        -52.6948  -26.7158    5.6591 C.3       14 UNK        -0.0898 
      7 S7        -52.5415  -28.1803    6.7435 S.3       14 UNK        -0.2598 
      8 C8        -52.2416  -27.3615    8.3395 C.3       14 UNK         0.0286 
      9 C9        -51.6147  -28.3069    9.3493 C.ar      14 UNK        -0.0844 
     10 C10       -50.2453  -28.5744    9.2969 C.ar      14 UNK        -0.0881 
     11 C11       -49.6444  -29.4193   10.2337 C.ar      14 UNK        -0.0643 
     12 C12       -50.4299  -29.9974   11.2369 C.ar      14 UNK        -0.0930 
     13 C13       -51.8033  -29.7351   11.3009 C.ar      14 UNK        -0.0827 
     14 C14       -52.3888  -28.8901   10.3533 C.ar      14 UNK        -0.1249 
     15 C15       -52.6532  -30.3226   12.4164 C.3       14 UNK         0.0141 
     16 S16       -54.0020  -31.3688   11.7879 S.3       14 UNK        -0.2313 
     17 C17       -55.1882  -31.2444   13.1697 C.3       14 UNK        -0.0915 
     18 CA        -56.2954  -30.1882   12.9002 C.3       13 UNK         0.0968 
     19 C         -57.4303  -30.2496   13.9638 C.2       13 UNK         0.5732 
     20 N         -57.8465  -29.1465   14.5766 N.am      13 UNK        -0.7310 
     21 O         -57.9688  -31.3233   14.2245 O.2       13 UNK        -0.5035 
     22 N         -55.7284  -28.8400   12.7475 N.am      13 UNK        -0.4233 
     23 C         -56.0322  -27.9792   11.7681 C.2       13 UNK         0.4989 
     24 O         -56.7796  -28.2553   10.8280 O.2       13 UNK        -0.4996 
     25 CA        -55.3895  -26.5743   11.8318 C.3       12 UNK         0.0216 
     26 CB        -56.2787  -25.4926   11.1840 C.3       12 UNK        -0.1964 
     27 N         -54.9702  -26.1459   13.1728 N.am      12 UNK        -0.4276 
     28 C         -55.7232  -26.0668   14.2775 C.2       12 UNK         0.5020 
     29 O         -56.9184  -26.3689   14.3147 O.2       12 UNK        -0.5489 
     30 CA        -54.9939  -25.6335   15.5651 C.3       11 UNK         0.0294 
     31 CB        -55.9120  -25.6861   16.8034 C.3       11 UNK        -0.2019 
     32 N         -53.7570  -26.3789   15.8466 N.am      11 UNK        -0.4493 
     33 C         -53.5710  -27.7106   15.8369 C.2       11 UNK         0.4932 
     34 O         -54.4028  -28.5162   15.4170 O.2       11 UNK        -0.5029 
     35 CA        -52.2447  -28.2416   16.4158 C.3       10 UNK         0.0280 
     36 CB        -51.7219  -29.4853   15.6783 C.3       10 UNK        -0.1976 
     37 N         -51.1952  -27.2212   16.4301 N.am      10 UNK        -0.4242 
     38 C         -50.7711  -26.5767   17.5250 C.2       10 UNK         0.5072 
     39 O         -51.1987  -26.7897   18.6603 O.2       10 UNK        -0.5224 
     40 CA        -49.7039  -25.4884   17.3235 C.3       9 UNK         0.0343 
     41 CB        -48.2977  -26.1076   17.3119 C.3       9 UNK        -0.2003 
     42 N         -49.8937  -24.6771   16.1173 N.am      9 UNK        -0.4272 
     43 C         -50.9684  -23.9156   15.8614 C.2       9 UNK         0.4988 
     44 O         -51.9728  -23.8787   16.5728 O.2       9 UNK        -0.5108 
     45 CA        -50.9192  -23.0621   14.5865 C.3       8 UNK         0.0248 
     46 CB        -49.9539  -21.8761   14.7504 C.3       8 UNK        -0.2001 
     47 N         -50.5313  -23.8594   13.4259 N.am      8 UNK        -0.4140 
     48 C         -51.3483  -24.7112   12.7930 C.2       8 UNK         0.5028 
     49 O         -52.5322  -24.8743   13.0846 O.2       8 UNK        -0.5428 
     50 CA        -50.7293  -25.5482   11.6643 C.3       7 UNK         0.0264 
     51 CB        -50.6672  -24.7366   10.3609 C.3       7 UNK        -0.1988 
     52 N         -49.3908  -26.0356   11.9948 N.am      7 UNK        -0.4454 
     53 C         -49.1103  -26.8628   13.0146 C.2       7 UNK         0.5027 
     54 O         -49.9539  -27.3004   13.7974 O.2       7 UNK        -0.5083 
     55 CA        -47.6245  -27.2056   13.2497 C.3       6 UNK         0.0844 
     56 C56       -47.2080  -28.5036   12.5141 C.3       14 UNK        -0.0967 
     57 S57       -47.1112  -28.3424   10.6942 S.3       14 UNK        -0.2604 
     58 C58       -48.1560  -29.7262   10.1317 C.3       14 UNK         0.0134 
     59 N         -46.7253  -26.0824   12.9639 N.am      6 UNK        -0.4116 
     60 C         -46.7991  -24.8662   13.5245 C.2       5 UNK         0.5034 
     61 O         -47.5969  -24.5702   14.4148 O.2       5 UNK        -0.5045 
     62 CA        -45.8626  -23.7730   12.9821 C.3       5 UNK         0.0224 
     63 CB        -44.6824  -23.5621   13.9439 C.3       5 UNK        -0.1978 
     64 N         -45.3458  -23.9956   11.6248 N.am      5 UNK        -0.4737 
     65 C         -46.0828  -24.1462   10.5159 C.2       4 UNK         0.5027 
     66 O         -47.3139  -24.2352   10.5087 O.2       4 UNK        -0.5211 
     67 CA        -45.2986  -24.2397    9.2029 C.3       4 UNK         0.0297 
     68 CB        -44.6745  -25.6355    9.0292 C.3       4 UNK        -0.1993 
     69 N         -46.1997  -23.9786    8.0863 N.am      4 UNK        -0.4486 
     70 C         -45.8943  -23.3034    6.9723 C.2       3 UNK         0.4961 
     71 O         -44.7998  -22.7753    6.7659 O.2       3 UNK        -0.5105 
     72 CA        -47.0034  -23.2481    5.9019 C.3       3 UNK         0.0299 
     73 CB        -46.5514  -22.5845    4.5835 C.3       3 UNK        -0.1972 
     74 N         -47.5752  -24.5785    5.6589 N.am      3 UNK        -0.4305 
     75 C         -46.9384  -25.6791    5.2339 C.2       2 UNK         0.5006 
     76 O         -45.7743  -25.6920    4.8324 O.2       2 UNK        -0.5106 
     77 CA        -47.7069  -27.0122    5.3016 C.3       2 UNK         0.0296 
     78 CB        -47.5964  -27.6079    6.7174 C.3       2 UNK        -0.2002 
     79 N         -49.1059  -26.9863    4.8432 N.am      2 UNK        -0.4032 
     80 C         -50.1625  -26.3060    5.3173 C.2       1 UNK         0.5000 
     81 O         -50.0886  -25.5042    6.2511 O.2       1 UNK        -0.5238 
     82 H82       -51.6127  -29.6745    2.1093 H         1 UNK         0.0889 
     83 H83       -50.2385  -29.0981    1.1635 H         1 UNK         0.0889 
     84 H84       -51.8820  -28.6558    0.6940 H         1 UNK         0.0889 
     85 H85       -51.8601  -28.5434    4.0319 H         1 UNK         0.3028 
     86 H86       -51.7440  -25.6348    4.0867 H         1 UNK         0.0864 
     87 H87       -53.6399  -26.8020    5.1205 H         1 UNK         0.0720 
     88 H88       -52.7967  -25.8120    6.2628 H         1 UNK         0.0720 
     89 H89       -53.1801  -26.9546    8.7193 H         1 UNK         0.0814 
     90 H90       -51.5773  -26.5113    8.1917 H         1 UNK         0.0814 
     91 H91       -49.6484  -28.1213    8.5215 H         1 UNK         0.1469 
     92 H92       -49.9718  -30.6489   11.9681 H         1 UNK         0.1381 
     93 H93       -53.4491  -28.6876   10.4007 H         1 UNK         0.1206 
     94 H94       -53.0648  -29.4964   12.9961 H         1 UNK         0.0813 
     95 H95       -52.0467  -30.9181   13.0997 H         1 UNK         0.0813 
     96 H96       -54.6589  -31.0246   14.0987 H         1 UNK         0.0638 
     97 H97       -55.6276  -32.2349   13.2997 H         1 UNK         0.0638 
     98 H98       -56.7816  -30.4767   11.9669 H         1 UNK         0.0568 
     99 H99       -58.5880  -29.2155   15.2542 H         1 UNK         0.3450 
    100 H100      -57.4324  -28.2401   14.3777 H         1 UNK         0.3450 
    101 H101      -55.1643  -28.5240   13.5295 H         1 UNK         0.2987 
    102 H102      -54.4728  -26.6383   11.2445 H         1 UNK         0.0766 
    103 H103      -55.7949  -24.5161   11.2084 H         1 UNK         0.0798 
    104 H104      -57.2391  -25.4045   11.6930 H         1 UNK         0.0798 
    105 H105      -56.4832  -25.7231   10.1377 H         1 UNK         0.0798 
    106 H106      -54.0038  -25.8173   13.2409 H         1 UNK         0.3198 
    107 H107      -54.6983  -24.5940   15.4125 H         1 UNK         0.0843 
    108 H108      -56.2473  -26.7033   17.0106 H         1 UNK         0.0831 
    109 H109      -56.8016  -25.0715   16.6597 H         1 UNK         0.0831 
    110 H110      -55.4022  -25.3129   17.6916 H         1 UNK         0.0831 
    111 H111      -52.9872  -25.8049   16.1709 H         1 UNK         0.3133 
    112 H112      -52.4777  -28.5546   17.4352 H         1 UNK         0.0566 
    113 H113      -50.8619  -29.9124   16.1942 H         1 UNK         0.0814 
    114 H114      -52.4802  -30.2669   15.6184 H         1 UNK         0.0814 
    115 H115      -51.4078  -29.2428   14.6654 H         1 UNK         0.0814 
    116 H116      -50.7686  -27.0102   15.5300 H         1 UNK         0.3091 
    117 H117      -49.7659  -24.8102   18.1771 H         1 UNK         0.0702 
    118 H118      -47.5258  -25.3414   17.2351 H         1 UNK         0.0785 
    119 H119      -48.1701  -26.7969   16.4778 H         1 UNK         0.0785 
    120 H120      -48.1098  -26.6671   18.2293 H         1 UNK         0.0785 
    121 H121      -49.1079  -24.6416   15.4707 H         1 UNK         0.2998 
    122 H122      -51.9197  -22.6593   14.4130 H         1 UNK         0.0697 
    123 H123      -48.9252  -22.2026   14.9079 H         1 UNK         0.0825 
    124 H124      -50.2349  -21.2621   15.6072 H         1 UNK         0.0825 
    125 H125      -49.9685  -21.2305   13.8723 H         1 UNK         0.0825 
    126 H126      -49.5595  -23.8308   13.1515 H         1 UNK         0.3029 
    127 H127      -51.3668  -26.4199   11.5072 H         1 UNK         0.0897 
    128 H128      -50.1134  -23.8056   10.4897 H         1 UNK         0.0792 
    129 H129      -51.6686  -24.4775   10.0149 H         1 UNK         0.0792 
    130 H130      -50.1774  -25.2977    9.5654 H         1 UNK         0.0792 
    131 H131      -48.6269  -25.6918   11.4226 H         1 UNK         0.3086 
    132 H132      -47.5246  -27.4048   14.3177 H         1 UNK         0.0583 
    133 H133      -46.2256  -28.8189   12.8689 H         1 UNK         0.1020 
    134 H134      -47.8825  -29.3187   12.7827 H         1 UNK         0.1020 
    135 H135      -47.9106  -29.9416    9.0908 H         1 UNK         0.0694 
    136 H136      -47.9037  -30.6282   10.6914 H         1 UNK         0.0694 
    137 H137      -46.0581  -26.2251   12.2204 H         1 UNK         0.2989 
    138 H138      -46.4482  -22.8514   12.9550 H         1 UNK         0.1055 
    139 H139      -45.0340  -23.3667   14.9583 H         1 UNK         0.0806 
    140 H140      -44.0739  -22.7079   13.6466 H         1 UNK         0.0806 
    141 H141      -44.0350  -24.4390   13.9873 H         1 UNK         0.0806 
    142 H142      -44.3409  -23.9576   11.5242 H         1 UNK         0.3061 
    143 H143      -44.5083  -23.4862    9.2276 H         1 UNK         0.0734 
    144 H144      -44.1055  -25.7000    8.1015 H         1 UNK         0.0832 
    145 H145      -43.9899  -25.8705    9.8449 H         1 UNK         0.0832 
    146 H146      -45.4361  -26.4156    9.0052 H         1 UNK         0.0832 
    147 H147      -47.1463  -24.3080    8.2269 H         1 UNK         0.3156 
    148 H148      -47.8065  -22.6391    6.3194 H         1 UNK         0.0589 
    149 H149      -45.7121  -23.1109    4.1281 H         1 UNK         0.0808 
    150 H150      -47.3628  -22.5549    3.8565 H         1 UNK         0.0808 
    151 H151      -46.2327  -21.5559    4.7558 H         1 UNK         0.0808 
    152 H152      -48.5373  -24.7165    5.9705 H         1 UNK         0.3098 
    153 H153      -47.1969  -27.6968    4.6218 H         1 UNK         0.0720 
    154 H154      -48.0878  -28.5786    6.7797 H         1 UNK         0.0791 
    155 H155      -48.0356  -26.9493    7.4671 H         1 UNK         0.0791 
    156 H156      -46.5524  -27.7565    6.9966 H         1 UNK         0.0791 
    157 H157      -49.2939  -27.5767    4.0455 H         1 UNK         0.3028 
@<TRIPOS>BOND
     1    1    2 1    
     2    1   82 1    
     3    1   83 1    
     4    1   84 1    
     5    2    3 2    
     6    2    4 am   BACKBONE|DICT|INTERRES
     7    4    5 1    
     8    4   85 1    
     9    5    6 1    
    10    5   80 1    
    11    5   86 1    
    12    6    7 1    
    13    6   87 1    
    14    6   88 1    
    15    7    8 1    
    16    8    9 1    
    17    8   89 1    
    18    8   90 1    
    19    9   10 ar   
    20    9   14 ar   
    21   10   11 ar   
    22   10   91 1    
    23   11   12 ar   
    24   11   58 1    
    25   12   13 ar   
    26   12   92 1    
    27   13   14 ar   
    28   13   15 1    
    29   14   93 1    
    30   15   16 1    
    31   15   94 1    
    32   15   95 1    
    33   16   17 1    
    34   17   18 1    
    35   17   96 1    
    36   17   97 1    
    37   18   19 1    
    38   18   22 1    
    39   18   98 1    
    40   19   20 am   BACKBONE|DICT|INTERRES
    41   19   21 2    
    42   20   99 1    
    43   20  100 1    
    44   22   23 am   BACKBONE|DICT|INTERRES
    45   22  101 1    
    46   23   24 2    
    47   23   25 1    
    48   25   26 1    
    49   25   27 1    
    50   25  102 1    
    51   26  103 1    
    52   26  104 1    
    53   26  105 1    
    54   27   28 am   BACKBONE|DICT|INTERRES
    55   27  106 1    
    56   28   29 2    
    57   28   30 1    
    58   30   31 1    
    59   30   32 1    
    60   30  107 1    
    61   31  108 1    
    62   31  109 1    
    63   31  110 1    
    64   32   33 am   BACKBONE|DICT|INTERRES
    65   32  111 1    
    66   33   34 2    
    67   33   35 1    
    68   35   36 1    
    69   35   37 1    
    70   35  112 1    
    71   36  113 1    
    72   36  114 1    
    73   36  115 1    
    74   37   38 am   BACKBONE|DICT|INTERRES
    75   37  116 1    
    76   38   39 2    
    77   38   40 1    
    78   40   41 1    
    79   40   42 1    
    80   40  117 1    
    81   41  118 1    
    82   41  119 1    
    83   41  120 1    
    84   42   43 am   BACKBONE|DICT|INTERRES
    85   42  121 1    
    86   43   44 2    
    87   43   45 1    
    88   45   46 1    
    89   45   47 1    
    90   45  122 1    
    91   46  123 1    
    92   46  124 1    
    93   46  125 1    
    94   47   48 am   BACKBONE|DICT|INTERRES
    95   47  126 1    
    96   48   49 2    
    97   48   50 1    
    98   50   51 1    
    99   50   52 1    
   100   50  127 1    
   101   51  128 1    
   102   51  129 1    
   103   51  130 1    
   104   52   53 am   BACKBONE|DICT|INTERRES
   105   52  131 1    
   106   53   54 2    
   107   53   55 1    
   108   55   56 1    
   109   55   59 1    
   110   55  132 1    
   111   56   57 1    
   112   56  133 1    
   113   56  134 1    
   114   57   58 1    
   115   58  135 1    
   116   58  136 1    
   117   59   60 am   BACKBONE|DICT|INTERRES
   118   59  137 1    
   119   60   61 2    
   120   60   62 1    
   121   62   63 1    
   122   62   64 1    
   123   62  138 1    
   124   63  139 1    
   125   63  140 1    
   126   63  141 1    
   127   64   65 am   BACKBONE|DICT|INTERRES
   128   64  142 1    
   129   65   66 2    
   130   65   67 1    
   131   67   68 1    
   132   67   69 1    
   133   67  143 1    
   134   68  144 1    
   135   68  145 1    
   136   68  146 1    
   137   69   70 am   BACKBONE|DICT|INTERRES
   138   69  147 1    
   139   70   71 2    
   140   70   72 1    
   141   72   73 1    
   142   72   74 1    
   143   72  148 1    
   144   73  149 1    
   145   73  150 1    
   146   73  151 1    
   147   74   75 am   BACKBONE|DICT|INTERRES
   148   74  152 1    
   149   75   76 2    
   150   75   77 1    
   151   77   78 1    
   152   77   79 1    
   153   77  153 1    
   154   78  154 1    
   155   78  155 1    
   156   78  156 1    
   157   79   80 am   BACKBONE|DICT|INTERRES
   158   79  157 1    
   159   80   81 2    
@<TRIPOS>SUBSTRUCTURE
     1 UNK         1 GROUP             0       ****    0 ROOT    
