@<TRIPOS>MOLECULE
3R207
157   159    1
SMALL
USER_CHARGES


@<TRIPOS>ATOM
      1 CA        -49.5716  -30.5364    9.7876 C.3       0 UNK        -0.1975 
      2 C         -48.7290  -30.3726    8.5323 C.2       0 UNK         0.4852 
      3 O         -47.7521  -31.1000    8.3470 O.2       0 UNK        -0.5216 
      4 N         -49.0968  -29.4212    7.6653 N.am      1 UNK        -0.4461 
      5 CA        -48.4326  -29.1095    6.3954 C.3       1 UNK         0.0864 
      6 C6        -49.3890  -28.4042    5.3931 C.3       14 UNK        -0.0898 
      7 S7        -50.3753  -27.0461    6.1128 S.3       14 UNK        -0.2598 
      8 C8        -52.0350  -27.7855    6.1712 C.3       14 UNK         0.0286 
      9 C9        -52.9624  -26.9520    7.0402 C.ar      14 UNK        -0.0844 
     10 C10       -53.4490  -25.7273    6.5749 C.ar      14 UNK        -0.0881 
     11 C11       -54.2756  -24.9379    7.3802 C.ar      14 UNK        -0.0643 
     12 C12       -54.6471  -25.4013    8.6472 C.ar      14 UNK        -0.0930 
     13 C13       -54.1688  -26.6277    9.1206 C.ar      14 UNK        -0.0827 
     14 C14       -53.3218  -27.3949    8.3160 C.ar      14 UNK        -0.1249 
     15 C15       -54.5405  -27.1161   10.5110 C.3       14 UNK         0.0141 
     16 S16       -55.7346  -28.4852   10.4426 S.3       14 UNK        -0.2313 
     17 C17       -55.9810  -28.7912   12.2271 C.3       14 UNK        -0.0915 
     18 CA        -55.1366  -29.9015   12.9382 C.3       13 UNK         0.0968 
     19 C         -53.8869  -30.4380   12.1829 C.2       13 UNK         0.5732 
     20 N         -52.6706  -30.0289   12.5219 N.am      13 UNK        -0.7310 
     21 O         -54.0167  -31.2891   11.3062 O.2       13 UNK        -0.5035 
     22 N         -54.8411  -29.5185   14.3272 N.am      13 UNK        -0.4233 
     23 C         -55.6642  -29.7384   15.3603 C.2       13 UNK         0.4989 
     24 O         -56.7455  -30.3203   15.2529 O.2       13 UNK        -0.4996 
     25 CA        -55.2533  -29.1865   16.7392 C.3       12 UNK         0.0216 
     26 CB        -55.6913  -30.1020   17.9034 C.3       12 UNK        -0.1964 
     27 N         -53.8386  -28.8126   16.8517 N.am      12 UNK        -0.4276 
     28 C         -52.7641  -29.6181   16.8770 C.2       12 UNK         0.5020 
     29 O         -52.8292  -30.8438   16.7793 O.2       12 UNK        -0.5489 
     30 CA        -51.3809  -28.9493   17.0256 C.3       11 UNK         0.0294 
     31 CB        -50.3503  -29.5561   16.0549 C.3       11 UNK        -0.2019 
     32 N         -51.4455  -27.5013   16.8095 N.am      11 UNK        -0.4493 
     33 C         -51.6121  -26.5803   17.7706 C.2       11 UNK         0.4932 
     34 O         -51.6265  -26.8443   18.9725 O.2       11 UNK        -0.5029 
     35 CA        -51.8431  -25.1232   17.3226 C.3       10 UNK         0.0280 
     36 CB        -50.5446  -24.3120   17.4528 C.3       10 UNK        -0.1976 
     37 N         -52.3615  -25.0084   15.9539 N.am      10 UNK        -0.4242 
     38 C         -53.5800  -25.4240   15.5671 C.2       10 UNK         0.5072 
     39 O         -54.4149  -25.8816   16.3474 O.2       10 UNK        -0.5224 
     40 CA        -53.9059  -25.4091   14.0593 C.3       9 UNK         0.0343 
     41 CB        -54.6571  -24.1250   13.6797 C.3       9 UNK        -0.2003 
     42 N         -52.7265  -25.5559   13.2024 N.am      9 UNK        -0.4272 
     43 C         -51.8797  -26.5966   13.2457 C.2       9 UNK         0.4988 
     44 O         -52.1178  -27.6206   13.8898 O.2       9 UNK        -0.5108 
     45 CA        -50.5309  -26.4758   12.5046 C.3       8 UNK         0.0248 
     46 CB        -50.5558  -27.3215   11.2237 C.3       8 UNK        -0.2001 
     47 N         -50.1398  -25.1070   12.1536 N.am      8 UNK        -0.4140 
     48 C         -50.0451  -24.0607   12.9918 C.2       8 UNK         0.5028 
     49 O         -50.1620  -24.1555   14.2138 O.2       8 UNK        -0.5428 
     50 CA        -49.9109  -22.6577   12.3640 C.3       7 UNK         0.0264 
     51 CB        -48.4652  -22.1575   12.4667 C.3       7 UNK        -0.1988 
     52 N         -50.3558  -22.6010   10.9656 N.am      7 UNK        -0.4454 
     53 C         -51.5998  -22.8993   10.5527 C.2       7 UNK         0.5027 
     54 O         -52.5327  -23.0958   11.3333 O.2       7 UNK        -0.5083 
     55 CA        -51.8461  -23.1018    9.0418 C.3       6 UNK         0.0844 
     56 C56       -52.9088  -22.1093    8.5058 C.3       14 UNK        -0.0967 
     57 S57       -53.3436  -22.3965    6.7545 S.3       14 UNK        -0.2604 
     58 C58       -54.7342  -23.5716    6.8890 C.3       14 UNK         0.0134 
     59 N         -50.6288  -23.1403    8.2223 N.am      6 UNK        -0.4116 
     60 C         -49.6854  -24.0906    8.2887 C.2       5 UNK         0.5034 
     61 O         -49.7008  -25.0022    9.1177 O.2       5 UNK        -0.5045 
     62 CA        -48.5164  -24.0074    7.2874 C.3       5 UNK         0.0224 
     63 CB        -48.5703  -22.7911    6.3334 C.3       5 UNK        -0.1978 
     64 N         -47.2199  -24.0795    7.9676 N.am      5 UNK        -0.4737 
     65 C         -46.7530  -23.2369    8.9006 C.2       4 UNK         0.5027 
     66 O         -47.3639  -22.2405    9.2933 O.2       4 UNK        -0.5211 
     67 CA        -45.3623  -23.5767    9.4745 C.3       4 UNK         0.0297 
     68 CB        -44.9460  -22.6837   10.6625 C.3       4 UNK        -0.1993 
     69 N         -45.2095  -24.9969    9.8137 N.am      4 UNK        -0.4486 
     70 C         -45.9489  -25.7294   10.6595 C.2       3 UNK         0.4961 
     71 O         -46.8947  -25.2850   11.3096 O.2       3 UNK        -0.5105 
     72 CA        -45.5500  -27.2151   10.7984 C.3       3 UNK         0.0299 
     73 CB        -46.4669  -27.9904   11.7639 C.3       3 UNK        -0.1972 
     74 N         -45.5145  -27.9219    9.5132 N.am      3 UNK        -0.4305 
     75 C         -44.5664  -27.8031    8.5726 C.2       2 UNK         0.5006 
     76 O         -43.5978  -27.0490    8.6783 O.2       2 UNK        -0.5106 
     77 CA        -44.7131  -28.6522    7.2983 C.3       2 UNK         0.0296 
     78 CB        -43.7670  -29.8629    7.3514 C.3       2 UNK        -0.2002 
     79 N         -46.0783  -29.1238    7.0540 N.am      2 UNK        -0.4032 
     80 C         -47.0964  -28.3655    6.6255 C.2       1 UNK         0.5000 
     81 O         -47.0037  -27.1512    6.4331 O.2       1 UNK        -0.5238 
     82 H82       -49.0433  -30.1337   10.6514 H         1 UNK         0.0889 
     83 H83       -49.7695  -31.5923    9.9709 H         1 UNK         0.0889 
     84 H84       -50.5313  -30.0282    9.6961 H         1 UNK         0.0889 
     85 H85       -49.8745  -28.8147    7.8856 H         1 UNK         0.3028 
     86 H86       -48.1639  -30.0597    5.9275 H         1 UNK         0.0864 
     87 H87       -48.8348  -28.0137    4.5375 H         1 UNK         0.0720 
     88 H88       -50.0725  -29.1437    4.9731 H         1 UNK         0.0720 
     89 H89       -52.4378  -27.8572    5.1599 H         1 UNK         0.0814 
     90 H90       -51.9709  -28.8055    6.5536 H         1 UNK         0.0814 
     91 H91       -53.1552  -25.3704    5.5970 H         1 UNK         0.1469 
     92 H92       -55.2870  -24.7957    9.2743 H         1 UNK         0.1381 
     93 H93       -52.9459  -28.3387    8.6872 H         1 UNK         0.1206 
     94 H94       -54.9527  -26.2993   11.1053 H         1 UNK         0.0813 
     95 H95       -53.6439  -27.4561   11.0283 H         1 UNK         0.0813 
     96 H96       -57.0390  -29.0170   12.3678 H         1 UNK         0.0638 
     97 H97       -55.8423  -27.8360   12.7337 H         1 UNK         0.0638 
     98 H98       -55.7785  -30.7842   12.9787 H         1 UNK         0.0568 
     99 H99       -51.8858  -30.4433   12.0490 H         1 UNK         0.3450 
    100 H100      -52.5160  -29.2688   13.1751 H         1 UNK         0.3450 
    101 H101      -53.9555  -29.0605   14.4890 H         1 UNK         0.2987 
    102 H102      -55.8052  -28.2515   16.8464 H         1 UNK         0.0766 
    103 H103      -55.4031  -29.6838   18.8678 H         1 UNK         0.0798 
    104 H104      -56.7748  -30.2261   17.9185 H         1 UNK         0.0798 
    105 H105      -55.2546  -31.0979   17.8243 H         1 UNK         0.0798 
    106 H106      -53.6786  -27.8128   16.9080 H         1 UNK         0.3198 
    107 H107      -51.0390  -29.1520   18.0427 H         1 UNK         0.0843 
    108 H108      -50.6687  -29.4744   15.0159 H         1 UNK         0.0831 
    109 H109      -50.1970  -30.6161   16.2616 H         1 UNK         0.0831 
    110 H110      -49.3804  -29.0676   16.1483 H         1 UNK         0.0831 
    111 H111      -51.4842  -27.2087   15.8398 H         1 UNK         0.3133 
    112 H112      -52.5836  -24.6863   17.9958 H         1 UNK         0.0566 
    113 H113      -49.7499  -24.7200   16.8268 H         1 UNK         0.0814 
    114 H114      -50.1827  -24.3173   18.4819 H         1 UNK         0.0814 
    115 H115      -50.6947  -23.2708   17.1670 H         1 UNK         0.0814 
    116 H116      -51.7068  -24.6626   15.2546 H         1 UNK         0.3091 
    117 H117      -54.5609  -26.2589   13.8642 H         1 UNK         0.0702 
    118 H118      -54.9669  -24.1405   12.6346 H         1 UNK         0.0785 
    119 H119      -54.0396  -23.2385   13.8307 H         1 UNK         0.0785 
    120 H120      -55.5577  -24.0048   14.2835 H         1 UNK         0.0785 
    121 H121      -52.4881  -24.7547   12.6273 H         1 UNK         0.2998 
    122 H122      -49.7604  -26.8720   13.1684 H         1 UNK         0.0697 
    123 H123      -51.3047  -26.9611   10.5177 H         1 UNK         0.0825 
    124 H124      -50.7831  -28.3620   11.4477 H         1 UNK         0.0825 
    125 H125      -49.5932  -27.3001   10.7137 H         1 UNK         0.0825 
    126 H126      -49.9762  -24.9387   11.1652 H         1 UNK         0.3029 
    127 H127      -50.5487  -21.9836   12.9396 H         1 UNK         0.0897 
    128 H128      -48.3559  -21.1530   12.0575 H         1 UNK         0.0792 
    129 H129      -48.1337  -22.1274   13.5054 H         1 UNK         0.0792 
    130 H130      -47.7877  -22.8172   11.9274 H         1 UNK         0.0792 
    131 H131      -49.6316  -22.4755   10.2691 H         1 UNK         0.3086 
    132 H132      -52.2690  -24.1033    8.9739 H         1 UNK         0.0583 
    133 H133      -53.8213  -22.1620    9.1034 H         1 UNK         0.1020 
    134 H134      -52.5485  -21.0833    8.6011 H         1 UNK         0.1020 
    135 H135      -55.5022  -23.1550    7.5425 H         1 UNK         0.0694 
    136 H136      -55.1958  -23.6840    5.9070 H         1 UNK         0.0694 
    137 H137      -50.5441  -22.4217    7.5189 H         1 UNK         0.2989 
    138 H138      -48.5804  -24.9054    6.6737 H         1 UNK         0.1055 
    139 H139      -47.7344  -22.8098    5.6340 H         1 UNK         0.0806 
    140 H140      -48.5277  -21.8415    6.8682 H         1 UNK         0.0806 
    141 H141      -49.4814  -22.7989    5.7333 H         1 UNK         0.0806 
    142 H142      -46.6725  -24.9029    7.7536 H         1 UNK         0.3061 
    143 H143      -44.6578  -23.3807    8.6648 H         1 UNK         0.0734 
    144 H144      -45.0389  -21.6259   10.4136 H         1 UNK         0.0832 
    145 H145      -45.5556  -22.8671   11.5458 H         1 UNK         0.0832 
    146 H146      -43.9062  -22.8583   10.9382 H         1 UNK         0.0832 
    147 H147      -44.4664  -25.4942    9.3272 H         1 UNK         0.3156 
    148 H148      -44.5439  -27.2302   11.2228 H         1 UNK         0.0589 
    149 H149      -47.4922  -28.0342   11.3987 H         1 UNK         0.0808 
    150 H150      -46.1181  -29.0129   11.9090 H         1 UNK         0.0808 
    151 H151      -46.4918  -27.5172   12.7466 H         1 UNK         0.0808 
    152 H152      -46.2836  -28.5469    9.3246 H         1 UNK         0.3098 
    153 H153      -44.4158  -28.0241    6.4557 H         1 UNK         0.0720 
    154 H154      -43.7948  -30.4294    6.4204 H         1 UNK         0.0791 
    155 H155      -42.7342  -29.5463    7.5046 H         1 UNK         0.0791 
    156 H156      -44.0246  -30.5414    8.1659 H         1 UNK         0.0791 
    157 H157      -46.2784  -30.0944    7.2734 H         1 UNK         0.3028 
@<TRIPOS>BOND
     1    1    2 1    
     2    1   82 1    
     3    1   83 1    
     4    1   84 1    
     5    2    3 2    
     6    2    4 am   BACKBONE|DICT|INTERRES
     7    4    5 1    
     8    4   85 1    
     9    5    6 1    
    10    5   80 1    
    11    5   86 1    
    12    6    7 1    
    13    6   87 1    
    14    6   88 1    
    15    7    8 1    
    16    8    9 1    
    17    8   89 1    
    18    8   90 1    
    19    9   10 ar   
    20    9   14 ar   
    21   10   11 ar   
    22   10   91 1    
    23   11   12 ar   
    24   11   58 1    
    25   12   13 ar   
    26   12   92 1    
    27   13   14 ar   
    28   13   15 1    
    29   14   93 1    
    30   15   16 1    
    31   15   94 1    
    32   15   95 1    
    33   16   17 1    
    34   17   18 1    
    35   17   96 1    
    36   17   97 1    
    37   18   19 1    
    38   18   22 1    
    39   18   98 1    
    40   19   20 am   BACKBONE|DICT|INTERRES
    41   19   21 2    
    42   20   99 1    
    43   20  100 1    
    44   22   23 am   BACKBONE|DICT|INTERRES
    45   22  101 1    
    46   23   24 2    
    47   23   25 1    
    48   25   26 1    
    49   25   27 1    
    50   25  102 1    
    51   26  103 1    
    52   26  104 1    
    53   26  105 1    
    54   27   28 am   BACKBONE|DICT|INTERRES
    55   27  106 1    
    56   28   29 2    
    57   28   30 1    
    58   30   31 1    
    59   30   32 1    
    60   30  107 1    
    61   31  108 1    
    62   31  109 1    
    63   31  110 1    
    64   32   33 am   BACKBONE|DICT|INTERRES
    65   32  111 1    
    66   33   34 2    
    67   33   35 1    
    68   35   36 1    
    69   35   37 1    
    70   35  112 1    
    71   36  113 1    
    72   36  114 1    
    73   36  115 1    
    74   37   38 am   BACKBONE|DICT|INTERRES
    75   37  116 1    
    76   38   39 2    
    77   38   40 1    
    78   40   41 1    
    79   40   42 1    
    80   40  117 1    
    81   41  118 1    
    82   41  119 1    
    83   41  120 1    
    84   42   43 am   BACKBONE|DICT|INTERRES
    85   42  121 1    
    86   43   44 2    
    87   43   45 1    
    88   45   46 1    
    89   45   47 1    
    90   45  122 1    
    91   46  123 1    
    92   46  124 1    
    93   46  125 1    
    94   47   48 am   BACKBONE|DICT|INTERRES
    95   47  126 1    
    96   48   49 2    
    97   48   50 1    
    98   50   51 1    
    99   50   52 1    
   100   50  127 1    
   101   51  128 1    
   102   51  129 1    
   103   51  130 1    
   104   52   53 am   BACKBONE|DICT|INTERRES
   105   52  131 1    
   106   53   54 2    
   107   53   55 1    
   108   55   56 1    
   109   55   59 1    
   110   55  132 1    
   111   56   57 1    
   112   56  133 1    
   113   56  134 1    
   114   57   58 1    
   115   58  135 1    
   116   58  136 1    
   117   59   60 am   BACKBONE|DICT|INTERRES
   118   59  137 1    
   119   60   61 2    
   120   60   62 1    
   121   62   63 1    
   122   62   64 1    
   123   62  138 1    
   124   63  139 1    
   125   63  140 1    
   126   63  141 1    
   127   64   65 am   BACKBONE|DICT|INTERRES
   128   64  142 1    
   129   65   66 2    
   130   65   67 1    
   131   67   68 1    
   132   67   69 1    
   133   67  143 1    
   134   68  144 1    
   135   68  145 1    
   136   68  146 1    
   137   69   70 am   BACKBONE|DICT|INTERRES
   138   69  147 1    
   139   70   71 2    
   140   70   72 1    
   141   72   73 1    
   142   72   74 1    
   143   72  148 1    
   144   73  149 1    
   145   73  150 1    
   146   73  151 1    
   147   74   75 am   BACKBONE|DICT|INTERRES
   148   74  152 1    
   149   75   76 2    
   150   75   77 1    
   151   77   78 1    
   152   77   79 1    
   153   77  153 1    
   154   78  154 1    
   155   78  155 1    
   156   78  156 1    
   157   79   80 am   BACKBONE|DICT|INTERRES
   158   79  157 1    
   159   80   81 2    
@<TRIPOS>SUBSTRUCTURE
     1 UNK         1 GROUP             0       ****    0 ROOT    
