@<TRIPOS>MOLECULE
3R207
157   159    1
SMALL
USER_CHARGES


@<TRIPOS>ATOM
      1 CA        -49.4271  -29.4255   10.5193 C.3       0 UNK        -0.1975 
      2 C         -48.9028  -29.7782    9.1362 C.2       0 UNK         0.4852 
      3 O         -47.9287  -30.5246    9.0321 O.2       0 UNK        -0.5216 
      4 N         -49.5349  -29.2410    8.0859 N.am      1 UNK        -0.4461 
      5 CA        -49.1302  -29.4122    6.6885 C.3       1 UNK         0.0864 
      6 C6        -50.3166  -29.8003    5.7650 C.3       14 UNK        -0.0898 
      7 S7        -50.9926  -31.4472    6.1780 S.3       14 UNK        -0.2598 
      8 C8        -52.7158  -31.0775    6.6466 C.3       14 UNK         0.0286 
      9 C9        -52.8053  -30.3305    7.9695 C.ar      14 UNK        -0.0844 
     10 C10       -52.9490  -28.9412    7.9814 C.ar      14 UNK        -0.0881 
     11 C11       -53.0010  -28.2444    9.1898 C.ar      14 UNK        -0.0643 
     12 C12       -52.9294  -28.9458   10.3952 C.ar      14 UNK        -0.0930 
     13 C13       -52.8349  -30.3420   10.3991 C.ar      14 UNK        -0.0827 
     14 C14       -52.7594  -31.0271    9.1816 C.ar      14 UNK        -0.1249 
     15 C15       -52.8169  -31.1129   11.7141 C.3       14 UNK         0.0141 
     16 S16       -54.1868  -30.6495   12.8244 S.3       14 UNK        -0.2313 
     17 C17       -55.6577  -31.1894   11.8860 C.3       14 UNK        -0.0915 
     18 CA        -56.2438  -30.1109   10.9303 C.3       13 UNK         0.0968 
     19 C         -57.5437  -30.6283   10.2478 C.2       13 UNK         0.5732 
     20 N         -58.7006  -30.0122   10.4608 N.am      13 UNK        -0.7310 
     21 O         -57.5012  -31.6084    9.5079 O.2       13 UNK        -0.5035 
     22 N         -56.3587  -28.7908   11.5758 N.am      13 UNK        -0.4233 
     23 C         -56.4579  -27.6264   10.9201 C.2       13 UNK         0.4989 
     24 O         -56.4996  -27.5332    9.6932 O.2       13 UNK        -0.4996 
     25 CA        -56.5405  -26.3392   11.7601 C.3       12 UNK         0.0216 
     26 CB        -57.9758  -25.7860   11.7479 C.3       12 UNK        -0.1964 
     27 N         -56.1085  -26.5100   13.1513 N.am      12 UNK        -0.4276 
     28 C         -54.8349  -26.4749   13.5626 C.2       12 UNK         0.5020 
     29 O         -53.8663  -26.3237   12.8147 O.2       12 UNK        -0.5489 
     30 CA        -54.6109  -26.6419   15.0687 C.3       11 UNK         0.0294 
     31 CB        -54.5230  -28.1277   15.4588 C.3       11 UNK        -0.2019 
     32 N         -53.3760  -25.9631   15.4464 N.am      11 UNK        -0.4493 
     33 C         -53.1128  -25.4608   16.6586 C.2       11 UNK         0.4932 
     34 O         -53.9064  -25.4981   17.6012 O.2       11 UNK        -0.5029 
     35 CA        -51.7244  -24.8210   16.8407 C.3       10 UNK         0.0280 
     36 CB        -51.4013  -24.4523   18.3042 C.3       10 UNK        -0.1976 
     37 N         -50.6643  -25.6453   16.2556 N.am      10 UNK        -0.4242 
     38 C         -50.2921  -26.8865   16.6033 C.2       10 UNK         0.5072 
     39 O         -50.7705  -27.5218   17.5439 O.2       10 UNK        -0.5224 
     40 CA        -49.1924  -27.5359   15.7441 C.3       9 UNK         0.0343 
     41 CB        -49.8216  -28.3200   14.5789 C.3       9 UNK        -0.2003 
     42 N         -48.2302  -26.5653   15.2136 N.am      9 UNK        -0.4272 
     43 C         -47.3555  -25.8672   15.9532 C.2       9 UNK         0.4988 
     44 O         -47.2028  -26.0238   17.1653 O.2       9 UNK        -0.5108 
     45 CA        -46.5217  -24.7993   15.2223 C.3       8 UNK         0.0248 
     46 CB        -45.3245  -25.4384   14.5007 C.3       8 UNK        -0.2001 
     47 N         -47.3160  -24.0096   14.2754 N.am      8 UNK        -0.4140 
     48 C         -48.2929  -23.1617   14.6332 C.2       8 UNK         0.5028 
     49 O         -48.5844  -22.9048   15.8013 O.2       8 UNK        -0.5428 
     50 CA        -49.1049  -22.5054   13.5035 C.3       7 UNK         0.0264 
     51 CB        -48.3806  -21.2628   12.9620 C.3       7 UNK        -0.1988 
     52 N         -49.4029  -23.4227   12.4015 N.am      7 UNK        -0.4454 
     53 C         -50.1660  -24.5217   12.5074 C.2       7 UNK         0.5027 
     54 O         -50.7465  -24.8514   13.5414 O.2       7 UNK        -0.5083 
     55 CA        -50.2568  -25.4301   11.2644 C.3       6 UNK         0.0844 
     56 C56       -51.3046  -24.8702   10.2740 C.3       14 UNK        -0.0967 
     57 S57       -51.5530  -25.9423    8.8202 S.3       14 UNK        -0.2604 
     58 C58       -53.1472  -26.7348    9.1852 C.3       14 UNK         0.0134 
     59 N         -48.9352  -25.6404   10.6563 N.am      6 UNK        -0.4116 
     60 C         -47.8873  -26.1950   11.2852 C.2       5 UNK         0.5034 
     61 O         -47.9478  -26.6807   12.4126 O.2       5 UNK        -0.5045 
     62 CA        -46.5274  -26.1561   10.5753 C.3       5 UNK         0.0224 
     63 CB        -46.3444  -27.3645    9.6517 C.3       5 UNK        -0.1978 
     64 N         -46.3525  -24.9206    9.8158 N.am      5 UNK        -0.4737 
     65 C         -46.0441  -23.7428   10.3724 C.2       4 UNK         0.5027 
     66 O         -45.8406  -23.5906   11.5770 O.2       4 UNK        -0.5211 
     67 CA        -45.9903  -22.5276    9.4310 C.3       4 UNK         0.0297 
     68 CB        -44.6152  -22.4304    8.7521 C.3       4 UNK        -0.1993 
     69 N         -47.0432  -22.5480    8.4108 N.am      4 UNK        -0.4486 
     70 C         -48.3514  -22.4577    8.6845 C.2       3 UNK         0.4961 
     71 O         -48.8050  -22.3348    9.8219 O.2       3 UNK        -0.5105 
     72 CA        -49.3264  -22.5468    7.4992 C.3       3 UNK         0.0299 
     73 CB        -49.4789  -21.1706    6.8318 C.3       3 UNK        -0.1972 
     74 N         -49.0166  -23.5552    6.4762 N.am      3 UNK        -0.4305 
     75 C         -48.7324  -24.8493    6.6857 C.2       2 UNK         0.5006 
     76 O         -48.4635  -25.3287    7.7884 O.2       2 UNK        -0.5106 
     77 CA        -48.7888  -25.7485    5.4398 C.3       2 UNK         0.0296 
     78 CB        -47.4973  -25.6514    4.6011 C.3       2 UNK        -0.2002 
     79 N         -49.1652  -27.1310    5.7779 N.am      2 UNK        -0.4032 
     80 C         -48.3990  -28.1297    6.2471 C.2       1 UNK         0.5000 
     81 O         -47.1723  -28.0815    6.3513 O.2       1 UNK        -0.5238 
     82 H82       -50.1127  -28.5796   10.4886 H         1 UNK         0.0889 
     83 H83       -48.6039  -29.1677   11.1844 H         1 UNK         0.0889 
     84 H84       -49.9483  -30.2804   10.9460 H         1 UNK         0.0889 
     85 H85       -50.3321  -28.6403    8.2452 H         1 UNK         0.3028 
     86 H86       -48.3973  -30.2184    6.6109 H         1 UNK         0.0864 
     87 H87       -51.1127  -29.0572    5.7999 H         1 UNK         0.0720 
     88 H88       -49.9856  -29.8400    4.7255 H         1 UNK         0.0720 
     89 H89       -53.2664  -32.0162    6.7240 H         1 UNK         0.0814 
     90 H90       -53.1980  -30.5113    5.8482 H         1 UNK         0.0814 
     91 H91       -53.0112  -28.3945    7.0507 H         1 UNK         0.1469 
     92 H92       -52.9782  -28.4069   11.3320 H         1 UNK         0.1381 
     93 H93       -52.6665  -32.1045    9.1730 H         1 UNK         0.1206 
     94 H94       -52.8532  -32.1889   11.5380 H         1 UNK         0.0813 
     95 H95       -51.8758  -30.9151   12.2274 H         1 UNK         0.0813 
     96 H96       -56.4108  -31.4877   12.6176 H         1 UNK         0.0638 
     97 H97       -55.4034  -32.0935   11.3296 H         1 UNK         0.0638 
     98 H98       -55.5369  -29.9917   10.1091 H         1 UNK         0.0568 
     99 H99       -59.5333  -30.3570   10.0101 H         1 UNK         0.3450 
    100 H100      -58.7476  -29.2067   11.0626 H         1 UNK         0.3450 
    101 H101      -56.3197  -28.7853   12.5827 H         1 UNK         0.2987 
    102 H102      -55.8914  -25.6024   11.2813 H         1 UNK         0.0766 
    103 H103      -58.0370  -24.8305   12.2694 H         1 UNK         0.0798 
    104 H104      -58.6802  -26.4724   12.2194 H         1 UNK         0.0798 
    105 H105      -58.3210  -25.6160   10.7268 H         1 UNK         0.0798 
    106 H106      -56.8387  -26.6351   13.8387 H         1 UNK         0.3198 
    107 H107      -55.4501  -26.1777   15.5919 H         1 UNK         0.0843 
    108 H108      -53.6617  -28.6098   14.9948 H         1 UNK         0.0831 
    109 H109      -55.4139  -28.6748   15.1488 H         1 UNK         0.0831 
    110 H110      -54.4283  -28.2492   16.5379 H         1 UNK         0.0831 
    111 H111      -52.7081  -25.8447   14.6907 H         1 UNK         0.3133 
    112 H112      -51.7361  -23.8948   16.2643 H         1 UNK         0.0566 
    113 H113      -50.4164  -23.9922   18.3859 H         1 UNK         0.0814 
    114 H114      -52.1267  -23.7379   18.6952 H         1 UNK         0.0814 
    115 H115      -51.4203  -25.3247   18.9579 H         1 UNK         0.0814 
    116 H116      -50.2679  -25.2711   15.3987 H         1 UNK         0.3091 
    117 H117      -48.6471  -28.2391   16.3769 H         1 UNK         0.0702 
    118 H118      -50.5274  -29.0669   14.9449 H         1 UNK         0.0785 
    119 H119      -50.3655  -27.6640   13.8979 H         1 UNK         0.0785 
    120 H120      -49.0629  -28.8460   13.9991 H         1 UNK         0.0785 
    121 H121      -48.2287  -26.4348   14.2035 H         1 UNK         0.2998 
    122 H122      -46.1303  -24.1122   15.9755 H         1 UNK         0.0697 
    123 H123      -45.6417  -26.1654   13.7537 H         1 UNK         0.0825 
    124 H124      -44.6801  -25.9618   15.2081 H         1 UNK         0.0825 
    125 H125      -44.7138  -24.6868   13.9999 H         1 UNK         0.0825 
    126 H126      -47.0968  -24.1136   13.2914 H         1 UNK         0.3029 
    127 H127      -50.0577  -22.1839   13.9300 H         1 UNK         0.0897 
    128 H128      -48.9893  -20.7405   12.2236 H         1 UNK         0.0792 
    129 H129      -47.4325  -21.5210   12.4891 H         1 UNK         0.0792 
    130 H130      -48.1648  -20.5554   13.7638 H         1 UNK         0.0792 
    131 H131      -49.0174  -23.1790   11.4911 H         1 UNK         0.3086 
    132 H132      -50.6114  -26.4045   11.6069 H         1 UNK         0.0583 
    133 H133      -52.2587  -24.7112   10.7804 H         1 UNK         0.1020 
    134 H134      -51.0012  -23.8869    9.9142 H         1 UNK         0.1020 
    135 H135      -53.5509  -26.3961   10.1391 H         1 UNK         0.0694 
    136 H136      -53.8751  -26.4377    8.4288 H         1 UNK         0.0694 
    137 H137      -48.8171  -25.3306    9.6953 H         1 UNK         0.2989 
    138 H138      -45.7502  -26.2037   11.3410 H         1 UNK         0.1055 
    139 H139      -46.3880  -28.2968   10.2155 H         1 UNK         0.0806 
    140 H140      -45.3806  -27.3382    9.1433 H         1 UNK         0.0806 
    141 H141      -47.1220  -27.4027    8.8907 H         1 UNK         0.0806 
    142 H142      -46.6152  -24.9484    8.8377 H         1 UNK         0.3061 
    143 H143      -46.1332  -21.6331   10.0414 H         1 UNK         0.0734 
    144 H144      -44.5327  -21.5264    8.1486 H         1 UNK         0.0832 
    145 H145      -43.8168  -22.3957    9.4949 H         1 UNK         0.0832 
    146 H146      -44.4205  -23.2868    8.1052 H         1 UNK         0.0832 
    147 H147      -46.7587  -22.6617    7.4487 H         1 UNK         0.3156 
    148 H148      -50.2990  -22.8214    7.9105 H         1 UNK         0.0589 
    149 H149      -48.5600  -20.8583    6.3340 H         1 UNK         0.0808 
    150 H150      -50.2787  -21.1732    6.0910 H         1 UNK         0.0808 
    151 H151      -49.7273  -20.4041    7.5677 H         1 UNK         0.0808 
    152 H152      -49.1843  -23.2663    5.5231 H         1 UNK         0.3098 
    153 H153      -49.6077  -25.3836    4.8177 H         1 UNK         0.0720 
    154 H154      -47.3756  -24.6491    4.1892 H         1 UNK         0.0791 
    155 H155      -47.5138  -26.3461    3.7614 H         1 UNK         0.0791 
    156 H156      -46.6068  -25.8600    5.1948 H         1 UNK         0.0791 
    157 H157      -50.1612  -27.2947    5.7661 H         1 UNK         0.3028 
@<TRIPOS>BOND
     1    1    2 1    
     2    1   82 1    
     3    1   83 1    
     4    1   84 1    
     5    2    3 2    
     6    2    4 am   BACKBONE|DICT|INTERRES
     7    4    5 1    
     8    4   85 1    
     9    5    6 1    
    10    5   80 1    
    11    5   86 1    
    12    6    7 1    
    13    6   87 1    
    14    6   88 1    
    15    7    8 1    
    16    8    9 1    
    17    8   89 1    
    18    8   90 1    
    19    9   10 ar   
    20    9   14 ar   
    21   10   11 ar   
    22   10   91 1    
    23   11   12 ar   
    24   11   58 1    
    25   12   13 ar   
    26   12   92 1    
    27   13   14 ar   
    28   13   15 1    
    29   14   93 1    
    30   15   16 1    
    31   15   94 1    
    32   15   95 1    
    33   16   17 1    
    34   17   18 1    
    35   17   96 1    
    36   17   97 1    
    37   18   19 1    
    38   18   22 1    
    39   18   98 1    
    40   19   20 am   BACKBONE|DICT|INTERRES
    41   19   21 2    
    42   20   99 1    
    43   20  100 1    
    44   22   23 am   BACKBONE|DICT|INTERRES
    45   22  101 1    
    46   23   24 2    
    47   23   25 1    
    48   25   26 1    
    49   25   27 1    
    50   25  102 1    
    51   26  103 1    
    52   26  104 1    
    53   26  105 1    
    54   27   28 am   BACKBONE|DICT|INTERRES
    55   27  106 1    
    56   28   29 2    
    57   28   30 1    
    58   30   31 1    
    59   30   32 1    
    60   30  107 1    
    61   31  108 1    
    62   31  109 1    
    63   31  110 1    
    64   32   33 am   BACKBONE|DICT|INTERRES
    65   32  111 1    
    66   33   34 2    
    67   33   35 1    
    68   35   36 1    
    69   35   37 1    
    70   35  112 1    
    71   36  113 1    
    72   36  114 1    
    73   36  115 1    
    74   37   38 am   BACKBONE|DICT|INTERRES
    75   37  116 1    
    76   38   39 2    
    77   38   40 1    
    78   40   41 1    
    79   40   42 1    
    80   40  117 1    
    81   41  118 1    
    82   41  119 1    
    83   41  120 1    
    84   42   43 am   BACKBONE|DICT|INTERRES
    85   42  121 1    
    86   43   44 2    
    87   43   45 1    
    88   45   46 1    
    89   45   47 1    
    90   45  122 1    
    91   46  123 1    
    92   46  124 1    
    93   46  125 1    
    94   47   48 am   BACKBONE|DICT|INTERRES
    95   47  126 1    
    96   48   49 2    
    97   48   50 1    
    98   50   51 1    
    99   50   52 1    
   100   50  127 1    
   101   51  128 1    
   102   51  129 1    
   103   51  130 1    
   104   52   53 am   BACKBONE|DICT|INTERRES
   105   52  131 1    
   106   53   54 2    
   107   53   55 1    
   108   55   56 1    
   109   55   59 1    
   110   55  132 1    
   111   56   57 1    
   112   56  133 1    
   113   56  134 1    
   114   57   58 1    
   115   58  135 1    
   116   58  136 1    
   117   59   60 am   BACKBONE|DICT|INTERRES
   118   59  137 1    
   119   60   61 2    
   120   60   62 1    
   121   62   63 1    
   122   62   64 1    
   123   62  138 1    
   124   63  139 1    
   125   63  140 1    
   126   63  141 1    
   127   64   65 am   BACKBONE|DICT|INTERRES
   128   64  142 1    
   129   65   66 2    
   130   65   67 1    
   131   67   68 1    
   132   67   69 1    
   133   67  143 1    
   134   68  144 1    
   135   68  145 1    
   136   68  146 1    
   137   69   70 am   BACKBONE|DICT|INTERRES
   138   69  147 1    
   139   70   71 2    
   140   70   72 1    
   141   72   73 1    
   142   72   74 1    
   143   72  148 1    
   144   73  149 1    
   145   73  150 1    
   146   73  151 1    
   147   74   75 am   BACKBONE|DICT|INTERRES
   148   74  152 1    
   149   75   76 2    
   150   75   77 1    
   151   77   78 1    
   152   77   79 1    
   153   77  153 1    
   154   78  154 1    
   155   78  155 1    
   156   78  156 1    
   157   79   80 am   BACKBONE|DICT|INTERRES
   158   79  157 1    
   159   80   81 2    
@<TRIPOS>SUBSTRUCTURE
     1 UNK         1 GROUP             0       ****    0 ROOT    
