@<TRIPOS>MOLECULE
3R207
157   159    1
SMALL
USER_CHARGES


@<TRIPOS>ATOM
      1 CA        -48.3439  -32.3058    4.4168 C.3       0 UNK        -0.1975 
      2 C         -48.2060  -30.9674    3.7067 C.2       0 UNK         0.4852 
      3 O         -47.3062  -30.8015    2.8825 O.2       0 UNK        -0.5216 
      4 N         -49.0906  -30.0112    4.0206 N.am      1 UNK        -0.4461 
      5 CA        -49.1060  -28.6563    3.4529 C.3       1 UNK         0.0864 
      6 C6        -50.4640  -27.9487    3.6889 C.3       14 UNK        -0.0898 
      7 S7        -50.9758  -27.8773    5.4437 S.3       14 UNK        -0.2598 
      8 C8        -52.7819  -27.9525    5.2443 C.3       14 UNK         0.0286 
      9 C9        -53.5041  -27.8893    6.5809 C.ar      14 UNK        -0.0844 
     10 C10       -53.5481  -26.6885    7.2966 C.ar      14 UNK        -0.0881 
     11 C11       -54.2497  -26.6094    8.5027 C.ar      14 UNK        -0.0643 
     12 C12       -54.9245  -27.7355    8.9802 C.ar      14 UNK        -0.0930 
     13 C13       -54.8628  -28.9498    8.2921 C.ar      14 UNK        -0.0827 
     14 C14       -54.1523  -29.0202    7.0896 C.ar      14 UNK        -0.1249 
     15 C15       -55.5693  -30.1808    8.8447 C.3       14 UNK         0.0141 
     16 S16       -54.4476  -31.2181    9.8390 S.3       14 UNK        -0.2313 
     17 C17       -54.1986  -30.1989   11.3346 C.3       14 UNK        -0.0915 
     18 CA        -54.5263  -30.9501   12.6624 C.3       13 UNK         0.0968 
     19 C         -53.3613  -31.8358   13.2034 C.2       13 UNK         0.5732 
     20 N         -52.5681  -32.4441   12.3321 N.am      13 UNK        -0.7310 
     21 O         -53.1992  -32.0226   14.4087 O.2       13 UNK        -0.5035 
     22 N         -55.0857  -30.0511   13.6867 N.am      13 UNK        -0.4233 
     23 C         -54.4624  -28.9857   14.2058 C.2       13 UNK         0.4989 
     24 O         -53.3522  -28.5905   13.8447 O.2       13 UNK        -0.4996 
     25 CA        -55.1956  -28.2525   15.3410 C.3       12 UNK         0.0216 
     26 CB        -54.7935  -28.8299   16.7073 C.3       12 UNK        -0.1964 
     27 N         -54.8827  -26.8227   15.3044 N.am      12 UNK        -0.4276 
     28 C         -55.4840  -25.9497   14.4848 C.2       12 UNK         0.5020 
     29 O         -56.4603  -26.2431   13.7916 O.2       12 UNK        -0.5489 
     30 CA        -54.9029  -24.5262   14.3802 C.3       11 UNK         0.0294 
     31 CB        -55.9954  -23.4358   14.4239 C.3       11 UNK        -0.2019 
     32 N         -53.7989  -24.2401   15.3039 N.am      11 UNK        -0.4493 
     33 C         -53.8606  -24.0050   16.6217 C.2       11 UNK         0.4932 
     34 O         -54.9010  -24.0266   17.2809 O.2       11 UNK        -0.5029 
     35 CA        -52.5141  -23.7012   17.3067 C.3       10 UNK         0.0280 
     36 CB        -52.6275  -23.5709   18.8408 C.3       10 UNK        -0.1976 
     37 N         -51.4627  -24.6571   16.9403 N.am      10 UNK        -0.4242 
     38 C         -51.4697  -25.9845   17.1451 C.2       10 UNK         0.5072 
     39 O         -52.4073  -26.5808   17.6754 O.2       10 UNK        -0.5224 
     40 CA        -50.2484  -26.8048   16.6811 C.3       9 UNK         0.0343 
     41 CB        -50.6761  -27.9252   15.7204 C.3       9 UNK        -0.2003 
     42 N         -49.2043  -26.0074   16.0345 N.am      9 UNK        -0.4272 
     43 C         -48.3055  -25.2473   16.6737 C.2       9 UNK         0.4988 
     44 O         -48.2169  -25.1749   17.8996 O.2       9 UNK        -0.5108 
     45 CA        -47.3726  -24.3928   15.7975 C.3       8 UNK         0.0248 
     46 CB        -46.1442  -25.2089   15.3651 C.3       8 UNK        -0.2001 
     47 N         -48.0338  -23.8318   14.6133 N.am      8 UNK        -0.4140 
     48 C         -49.0739  -22.9846   14.6427 C.2       8 UNK         0.5028 
     49 O         -49.5898  -22.5706   15.6813 O.2       8 UNK        -0.5428 
     50 CA        -49.6813  -22.5751   13.2891 C.3       7 UNK         0.0264 
     51 CB        -48.7929  -21.5529   12.5625 C.3       7 UNK        -0.1988 
     52 N         -49.9401  -23.7253   12.4191 N.am      7 UNK        -0.4454 
     53 C         -50.8008  -24.7126   12.7139 C.2       7 UNK         0.5027 
     54 O         -51.4980  -24.7269   13.7298 O.2       7 UNK        -0.5083 
     55 CA        -50.8531  -25.9053   11.7357 C.3       6 UNK         0.0844 
     56 C56       -51.7575  -25.6217   10.5088 C.3       14 UNK        -0.0967 
     57 S57       -53.5245  -25.5039   10.9375 S.3       14 UNK        -0.2604 
     58 C58       -54.2877  -25.3121    9.2958 C.3       14 UNK         0.0134 
     59 N         -49.5039  -26.3074   11.3267 N.am      6 UNK        -0.4116 
     60 C         -48.5736  -26.8244   12.1435 C.2       5 UNK         0.5034 
     61 O         -48.7597  -27.0649   13.3342 O.2       5 UNK        -0.5045 
     62 CA        -47.1787  -27.0651   11.5418 C.3       5 UNK         0.0224 
     63 CB        -47.1386  -28.3978   10.7771 C.3       5 UNK        -0.1978 
     64 N         -46.7513  -25.9785   10.6579 N.am      5 UNK        -0.4737 
     65 C         -46.5441  -24.7134   11.0513 C.2       4 UNK         0.5027 
     66 O         -46.6164  -24.3420   12.2208 O.2       4 UNK        -0.5211 
     67 CA        -46.2669  -23.6784    9.9486 C.3       4 UNK         0.0297 
     68 CB        -44.7561  -23.5405    9.7086 C.3       4 UNK        -0.1993 
     69 N         -46.9349  -23.9965    8.6839 N.am      4 UNK        -0.4486 
     70 C         -48.2565  -24.1025    8.5015 C.2       3 UNK         0.4961 
     71 O         -49.0805  -23.8992    9.3940 O.2       3 UNK        -0.5105 
     72 CA        -48.7411  -24.5710    7.1160 C.3       3 UNK         0.0299 
     73 CB        -48.7212  -23.4148    6.0990 C.3       3 UNK        -0.1972 
     74 N         -48.0488  -25.7627    6.5946 N.am      3 UNK        -0.4305 
     75 C         -46.7595  -25.9117    6.2444 C.2       2 UNK         0.5006 
     76 O         -45.9168  -25.0164    6.3179 O.2       2 UNK        -0.5106 
     77 CA        -46.3186  -27.3051    5.7625 C.3       2 UNK         0.0296 
     78 CB        -45.7489  -28.1185    6.9367 C.3       2 UNK        -0.2002 
     79 N         -47.3924  -28.0681    5.1226 N.am      2 UNK        -0.4032 
     80 C         -47.9317  -27.7745    3.9296 C.2       1 UNK         0.5000 
     81 O         -47.5472  -26.8458    3.2161 O.2       1 UNK        -0.5238 
     82 H82       -49.1807  -32.3132    5.1151 H         1 UNK         0.0889 
     83 H83       -47.4348  -32.5302    4.9743 H         1 UNK         0.0889 
     84 H84       -48.5028  -33.1014    3.6894 H         1 UNK         0.0889 
     85 H85       -49.8151  -30.2013    4.6996 H         1 UNK         0.3028 
     86 H86       -48.9818  -28.7604    2.3725 H         1 UNK         0.0864 
     87 H87       -50.4506  -26.9334    3.2870 H         1 UNK         0.0720 
     88 H88       -51.2323  -28.4747    3.1201 H         1 UNK         0.0720 
     89 H89       -53.0478  -28.8666    4.7107 H         1 UNK         0.0814 
     90 H90       -53.1107  -27.1224    4.6170 H         1 UNK         0.0814 
     91 H91       -53.0356  -25.8177    6.9107 H         1 UNK         0.1469 
     92 H92       -55.4803  -27.6628    9.9046 H         1 UNK         0.1381 
     93 H93       -54.1117  -29.9553    6.5476 H         1 UNK         0.1206 
     94 H94       -56.4336  -29.8935    9.4457 H         1 UNK         0.0813 
     95 H95       -55.9605  -30.7784    8.0200 H         1 UNK         0.0813 
     96 H96       -54.8431  -29.3253   11.2568 H         1 UNK         0.0638 
     97 H97       -53.1801  -29.8060   11.3374 H         1 UNK         0.0638 
     98 H98       -55.3368  -31.6508   12.4603 H         1 UNK         0.0568 
     99 H99       -51.8244  -33.0356   12.6671 H         1 UNK         0.3450 
    100 H100      -52.7122  -32.3164   11.3416 H         1 UNK         0.3450 
    101 H101      -55.9772  -30.3301   14.0696 H         1 UNK         0.2987 
    102 H102      -56.2725  -28.3856   15.2163 H         1 UNK         0.0766 
    103 H103      -55.2781  -28.2948   17.5242 H         1 UNK         0.0798 
    104 H104      -53.7166  -28.7787   16.8670 H         1 UNK         0.0798 
    105 H105      -55.0820  -29.8787   16.7880 H         1 UNK         0.0798 
    106 H106      -54.0689  -26.5211   15.8237 H         1 UNK         0.3198 
    107 H107      -54.4506  -24.4717   13.3917 H         1 UNK         0.0843 
    108 H108      -56.5744  -23.4747   15.3466 H         1 UNK         0.0831 
    109 H109      -56.6990  -23.5587   13.5997 H         1 UNK         0.0831 
    110 H110      -55.5664  -22.4379   14.3346 H         1 UNK         0.0831 
    111 H111      -52.8766  -24.2762   14.8681 H         1 UNK         0.3133 
    112 H112      -52.1893  -22.7341   16.9205 H         1 UNK         0.0566 
    113 H113      -51.6650  -23.3253   19.2895 H         1 UNK         0.0814 
    114 H114      -53.3240  -22.7774   19.1142 H         1 UNK         0.0814 
    115 H115      -52.9877  -24.4912   19.3016 H         1 UNK         0.0814 
    116 H116      -50.6635  -24.2507   16.4660 H         1 UNK         0.3091 
    117 H117      -49.8240  -27.2717   17.5722 H         1 UNK         0.0702 
    118 H118      -51.4204  -28.5797   16.1742 H         1 UNK         0.0785 
    119 H119      -49.8298  -28.5509   15.4372 H         1 UNK         0.0785 
    120 H120      -51.1110  -27.5184   14.8067 H         1 UNK         0.0785 
    121 H121      -49.1637  -26.0644   15.0212 H         1 UNK         0.2998 
    122 H122      -47.0276  -23.5543   16.4058 H         1 UNK         0.0697 
    123 H123      -46.4229  -26.0466   14.7249 H         1 UNK         0.0825 
    124 H124      -45.6207  -25.6176   16.2304 H         1 UNK         0.0825 
    125 H125      -45.4318  -24.5925   14.8164 H         1 UNK         0.0825 
    126 H126      -47.6400  -24.0909   13.7095 H         1 UNK         0.3029 
    127 H127      -50.6428  -22.0983   13.4925 H         1 UNK         0.0897 
    128 H128      -49.2404  -21.2364   11.6200 H         1 UNK         0.0792 
    129 H129      -48.6539  -20.6589   13.1719 H         1 UNK         0.0792 
    130 H130      -47.8028  -21.9526   12.3454 H         1 UNK         0.0792 
    131 H131      -49.4246  -23.7755   11.5476 H         1 UNK         0.3086 
    132 H132      -51.2823  -26.7509   12.2790 H         1 UNK         0.0583 
    133 H133      -51.4592  -24.7056    9.9971 H         1 UNK         0.1020 
    134 H134      -51.6488  -26.4269    9.7801 H         1 UNK         0.1020 
    135 H135      -55.3268  -25.0063    9.4247 H         1 UNK         0.0694 
    136 H136      -53.7915  -24.5030    8.7575 H         1 UNK         0.0694 
    137 H137      -49.2367  -26.0769   10.3813 H         1 UNK         0.2989 
    138 H138      -46.4687  -27.1218   12.3700 H         1 UNK         0.1055 
    139 H139      -46.1360  -28.6135   10.4070 H         1 UNK         0.0806 
    140 H140      -47.8204  -28.4004    9.9259 H         1 UNK         0.0806 
    141 H141      -47.4265  -29.2262   11.4262 H         1 UNK         0.0806 
    142 H142      -46.6548  -26.1910    9.6764 H         1 UNK         0.3061 
    143 H143      -46.6512  -22.7166   10.2930 H         1 UNK         0.0734 
    144 H144      -44.5392  -22.7505    8.9894 H         1 UNK         0.0832 
    145 H145      -44.2359  -23.2870   10.6336 H         1 UNK         0.0832 
    146 H146      -44.3201  -24.4666    9.3314 H         1 UNK         0.0832 
    147 H147      -46.3441  -24.2082    7.8808 H         1 UNK         0.3156 
    148 H148      -49.7828  -24.8728    7.2395 H         1 UNK         0.0589 
    149 H149      -47.7120  -23.0444    5.9170 H         1 UNK         0.0808 
    150 H150      -49.1412  -23.7244    5.1419 H         1 UNK         0.0808 
    151 H151      -49.3152  -22.5726    6.4566 H         1 UNK         0.0808 
    152 H152      -48.6385  -26.5781    6.4982 H         1 UNK         0.3098 
    153 H153      -45.5224  -27.1604    5.0290 H         1 UNK         0.0720 
    154 H154      -45.3417  -29.0711    6.5970 H         1 UNK         0.0791 
    155 H155      -46.5076  -28.3285    7.6911 H         1 UNK         0.0791 
    156 H156      -44.9376  -27.5802    7.4292 H         1 UNK         0.0791 
    157 H157      -47.7647  -28.8579    5.6294 H         1 UNK         0.3028 
@<TRIPOS>BOND
     1    1    2 1    
     2    1   82 1    
     3    1   83 1    
     4    1   84 1    
     5    2    3 2    
     6    2    4 am   BACKBONE|DICT|INTERRES
     7    4    5 1    
     8    4   85 1    
     9    5    6 1    
    10    5   80 1    
    11    5   86 1    
    12    6    7 1    
    13    6   87 1    
    14    6   88 1    
    15    7    8 1    
    16    8    9 1    
    17    8   89 1    
    18    8   90 1    
    19    9   10 ar   
    20    9   14 ar   
    21   10   11 ar   
    22   10   91 1    
    23   11   12 ar   
    24   11   58 1    
    25   12   13 ar   
    26   12   92 1    
    27   13   14 ar   
    28   13   15 1    
    29   14   93 1    
    30   15   16 1    
    31   15   94 1    
    32   15   95 1    
    33   16   17 1    
    34   17   18 1    
    35   17   96 1    
    36   17   97 1    
    37   18   19 1    
    38   18   22 1    
    39   18   98 1    
    40   19   20 am   BACKBONE|DICT|INTERRES
    41   19   21 2    
    42   20   99 1    
    43   20  100 1    
    44   22   23 am   BACKBONE|DICT|INTERRES
    45   22  101 1    
    46   23   24 2    
    47   23   25 1    
    48   25   26 1    
    49   25   27 1    
    50   25  102 1    
    51   26  103 1    
    52   26  104 1    
    53   26  105 1    
    54   27   28 am   BACKBONE|DICT|INTERRES
    55   27  106 1    
    56   28   29 2    
    57   28   30 1    
    58   30   31 1    
    59   30   32 1    
    60   30  107 1    
    61   31  108 1    
    62   31  109 1    
    63   31  110 1    
    64   32   33 am   BACKBONE|DICT|INTERRES
    65   32  111 1    
    66   33   34 2    
    67   33   35 1    
    68   35   36 1    
    69   35   37 1    
    70   35  112 1    
    71   36  113 1    
    72   36  114 1    
    73   36  115 1    
    74   37   38 am   BACKBONE|DICT|INTERRES
    75   37  116 1    
    76   38   39 2    
    77   38   40 1    
    78   40   41 1    
    79   40   42 1    
    80   40  117 1    
    81   41  118 1    
    82   41  119 1    
    83   41  120 1    
    84   42   43 am   BACKBONE|DICT|INTERRES
    85   42  121 1    
    86   43   44 2    
    87   43   45 1    
    88   45   46 1    
    89   45   47 1    
    90   45  122 1    
    91   46  123 1    
    92   46  124 1    
    93   46  125 1    
    94   47   48 am   BACKBONE|DICT|INTERRES
    95   47  126 1    
    96   48   49 2    
    97   48   50 1    
    98   50   51 1    
    99   50   52 1    
   100   50  127 1    
   101   51  128 1    
   102   51  129 1    
   103   51  130 1    
   104   52   53 am   BACKBONE|DICT|INTERRES
   105   52  131 1    
   106   53   54 2    
   107   53   55 1    
   108   55   56 1    
   109   55   59 1    
   110   55  132 1    
   111   56   57 1    
   112   56  133 1    
   113   56  134 1    
   114   57   58 1    
   115   58  135 1    
   116   58  136 1    
   117   59   60 am   BACKBONE|DICT|INTERRES
   118   59  137 1    
   119   60   61 2    
   120   60   62 1    
   121   62   63 1    
   122   62   64 1    
   123   62  138 1    
   124   63  139 1    
   125   63  140 1    
   126   63  141 1    
   127   64   65 am   BACKBONE|DICT|INTERRES
   128   64  142 1    
   129   65   66 2    
   130   65   67 1    
   131   67   68 1    
   132   67   69 1    
   133   67  143 1    
   134   68  144 1    
   135   68  145 1    
   136   68  146 1    
   137   69   70 am   BACKBONE|DICT|INTERRES
   138   69  147 1    
   139   70   71 2    
   140   70   72 1    
   141   72   73 1    
   142   72   74 1    
   143   72  148 1    
   144   73  149 1    
   145   73  150 1    
   146   73  151 1    
   147   74   75 am   BACKBONE|DICT|INTERRES
   148   74  152 1    
   149   75   76 2    
   150   75   77 1    
   151   77   78 1    
   152   77   79 1    
   153   77  153 1    
   154   78  154 1    
   155   78  155 1    
   156   78  156 1    
   157   79   80 am   BACKBONE|DICT|INTERRES
   158   79  157 1    
   159   80   81 2    
@<TRIPOS>SUBSTRUCTURE
     1 UNK         1 GROUP             0       ****    0 ROOT    
