@<TRIPOS>MOLECULE
3R207
157   159    1
SMALL
USER_CHARGES


@<TRIPOS>ATOM
      1 CA        -52.9305  -26.9341    4.9096 C.3       0 UNK        -0.1975 
      2 C         -51.6179  -26.9675    5.6774 C.2       0 UNK         0.4852 
      3 O         -51.1159  -25.9145    6.0706 O.2       0 UNK        -0.5216 
      4 N         -51.0530  -28.1695    5.8687 N.am      1 UNK        -0.4461 
      5 CA        -49.8948  -28.4823    6.7239 C.3       1 UNK         0.0864 
      6 C6        -49.6286  -30.0154    6.7593 C.3       14 UNK        -0.0898 
      7 S7        -49.3524  -30.6365    8.4525 S.3       14 UNK        -0.2598 
      8 C8        -50.9928  -31.3150    8.8886 C.3       14 UNK         0.0286 
      9 C9        -52.1087  -30.2812    8.7828 C.ar      14 UNK        -0.0844 
     10 C10       -52.0302  -29.0822    9.4952 C.ar      14 UNK        -0.0881 
     11 C11       -53.0120  -28.1003    9.3447 C.ar      14 UNK        -0.0643 
     12 C12       -54.1098  -28.3413    8.5148 C.ar      14 UNK        -0.0930 
     13 C13       -54.2297  -29.5602    7.8412 C.ar      14 UNK        -0.0827 
     14 C14       -53.2183  -30.5189    7.9659 C.ar      14 UNK        -0.1249 
     15 C15       -55.4477  -29.8398    6.9709 C.3       14 UNK         0.0141 
     16 S16       -56.9756  -30.0438    7.9485 S.3       14 UNK        -0.2313 
     17 C17       -56.5805  -31.4789    9.0114 C.3       14 UNK        -0.0915 
     18 CA        -56.7526  -31.1896   10.5291 C.3       13 UNK         0.0968 
     19 C         -56.4023  -32.4504   11.3721 C.2       13 UNK         0.5732 
     20 N         -55.3614  -32.4342   12.1964 N.am      13 UNK        -0.7310 
     21 O         -57.0943  -33.4615   11.2789 O.2       13 UNK        -0.5035 
     22 N         -56.0662  -29.9527   10.9378 N.am      13 UNK        -0.4233 
     23 C         -56.3170  -29.2679   12.0604 C.2       13 UNK         0.4989 
     24 O         -57.1160  -29.6183   12.9324 O.2       13 UNK        -0.4996 
     25 CA        -55.5767  -27.9367   12.2040 C.3       12 UNK         0.0216 
     26 CB        -56.2923  -26.8280   11.4093 C.3       12 UNK        -0.1964 
     27 N         -55.4878  -27.5471   13.6098 N.am      12 UNK        -0.4276 
     28 C         -54.4703  -26.8591   14.1393 C.2       12 UNK         0.5020 
     29 O         -53.4833  -26.4896   13.4959 O.2       12 UNK        -0.5489 
     30 CA        -54.5559  -26.5258   15.6350 C.3       11 UNK         0.0294 
     31 CB        -54.4374  -27.7940   16.5027 C.3       11 UNK        -0.2019 
     32 N         -53.4602  -25.6127   15.9421 N.am      11 UNK        -0.4493 
     33 C         -53.3525  -24.7943   16.9937 C.2       11 UNK         0.4932 
     34 O         -54.2220  -24.6696   17.8580 O.2       11 UNK        -0.5029 
     35 CA        -52.0303  -24.0029   17.0886 C.3       10 UNK         0.0280 
     36 CB        -51.8314  -23.2969   18.4467 C.3       10 UNK        -0.1976 
     37 N         -50.8724  -24.8395   16.7425 N.am      10 UNK        -0.4242 
     38 C         -50.4706  -25.9553   17.3729 C.2       10 UNK         0.5072 
     39 O         -50.9370  -26.3568   18.4401 O.2       10 UNK        -0.5224 
     40 CA        -49.3961  -26.8031   16.6752 C.3       9 UNK         0.0343 
     41 CB        -50.0650  -27.8107   15.7249 C.3       9 UNK        -0.2003 
     42 N         -48.4045  -26.0170   15.9373 N.am      9 UNK        -0.4272 
     43 C         -47.4353  -25.2926   16.5154 C.2       9 UNK         0.4988 
     44 O         -47.2963  -25.1831   17.7343 O.2       9 UNK        -0.5108 
     45 CA        -46.4381  -24.5850   15.5811 C.3       8 UNK         0.0248 
     46 CB        -45.4288  -25.5881   14.9989 C.3       8 UNK        -0.2001 
     47 N         -47.0928  -23.8548   14.4947 N.am      8 UNK        -0.4140 
     48 C         -47.8382  -22.7532   14.6659 C.2       8 UNK         0.5028 
     49 O         -48.0063  -22.1980   15.7523 O.2       8 UNK        -0.5428 
     50 CA        -48.5344  -22.1818   13.4185 C.3       7 UNK         0.0264 
     51 CB        -47.5735  -21.2923   12.6133 C.3       7 UNK        -0.1988 
     52 N         -49.0857  -23.2184   12.5446 N.am      7 UNK        -0.4454 
     53 C         -50.0385  -24.0943   12.8987 C.2       7 UNK         0.5027 
     54 O         -50.5933  -24.1071   13.9981 O.2       7 UNK        -0.5083 
     55 CA        -50.3888  -25.1688   11.8574 C.3       6 UNK         0.0844 
     56 C56       -51.3272  -24.5888   10.7673 C.3       14 UNK        -0.0967 
     57 S57       -51.5920  -25.7373    9.3791 S.3       14 UNK        -0.2604 
     58 C58       -52.8791  -26.7896   10.0961 C.3       14 UNK         0.0134 
     59 N         -49.1753  -25.7777   11.3097 N.am      6 UNK        -0.4116 
     60 C         -48.3037  -26.5225   12.0021 C.2       5 UNK         0.5034 
     61 O         -48.4238  -26.7960   13.1943 O.2       5 UNK        -0.5045 
     62 CA        -47.0605  -27.0079   11.2438 C.3       5 UNK         0.0224 
     63 CB        -47.3619  -28.3252   10.5167 C.3       5 UNK        -0.1978 
     64 N         -46.5662  -26.0081   10.2927 N.am      5 UNK        -0.4737 
     65 C         -46.0455  -24.8297   10.6669 C.2       4 UNK         0.5027 
     66 O         -45.8994  -24.4906   11.8415 O.2       4 UNK        -0.5211 
     67 CA        -45.6699  -23.8459    9.5493 C.3       4 UNK         0.0297 
     68 CB        -44.2865  -24.1842    8.9727 C.3       4 UNK        -0.1993 
     69 N         -46.6514  -23.7918    8.4639 N.am      4 UNK        -0.4486 
     70 C         -47.9390  -23.4472    8.5829 C.2       3 UNK         0.4961 
     71 O         -48.4650  -23.1639    9.6601 O.2       3 UNK        -0.5105 
     72 CA        -48.7912  -23.4074    7.2976 C.3       3 UNK         0.0299 
     73 CB        -48.6670  -22.0383    6.6035 C.3       3 UNK        -0.1972 
     74 N         -48.5661  -24.5102    6.3482 N.am      3 UNK        -0.4305 
     75 C         -47.4550  -24.8375    5.6646 C.2       2 UNK         0.5006 
     76 O         -46.4107  -24.1849    5.7178 O.2       2 UNK        -0.5106 
     77 CA        -47.4988  -26.1160    4.7939 C.3       2 UNK         0.0296 
     78 CB        -46.1133  -26.7839    4.6593 C.3       2 UNK        -0.2002 
     79 N         -48.5034  -27.0967    5.2270 N.am      2 UNK        -0.4032 
     80 C         -48.6077  -27.6721    6.4362 C.2       1 UNK         0.5000 
     81 O         -47.7679  -27.5348    7.3275 O.2       1 UNK        -0.5238 
     82 H82       -53.2518  -27.9300    4.6051 H         1 UNK         0.0889 
     83 H83       -52.8287  -26.3194    4.0158 H         1 UNK         0.0889 
     84 H84       -53.7130  -26.5034    5.5339 H         1 UNK         0.0889 
     85 H85       -51.5262  -28.9783    5.4927 H         1 UNK         0.3028 
     86 H86       -50.2016  -28.1553    7.7182 H         1 UNK         0.0864 
     87 H87       -50.4673  -30.5719    6.3379 H         1 UNK         0.0720 
     88 H88       -48.7712  -30.2920    6.1425 H         1 UNK         0.0720 
     89 H89       -50.9579  -31.6940    9.9107 H         1 UNK         0.0814 
     90 H90       -51.1979  -32.1750    8.2492 H         1 UNK         0.0814 
     91 H91       -51.1786  -28.8925   10.1348 H         1 UNK         0.1469 
     92 H92       -54.8768  -27.5877    8.3995 H         1 UNK         0.1381 
     93 H93       -53.2962  -31.4531    7.4266 H         1 UNK         0.1206 
     94 H94       -55.5843  -29.0145    6.2706 H         1 UNK         0.0813 
     95 H95       -55.2943  -30.7326    6.3627 H         1 UNK         0.0813 
     96 H96       -57.2369  -32.2969    8.7092 H         1 UNK         0.0638 
     97 H97       -55.5665  -31.8224    8.8046 H         1 UNK         0.0638 
     98 H98       -57.8173  -31.0172   10.6976 H         1 UNK         0.0568 
     99 H99       -55.1494  -33.2563   12.7389 H         1 UNK         0.3450 
    100 H100      -54.7882  -31.6109   12.2796 H         1 UNK         0.3450 
    101 H101      -55.3988  -29.5910   10.2712 H         1 UNK         0.2987 
    102 H102      -54.5717  -28.0885   11.8118 H         1 UNK         0.0766 
    103 H103      -55.7639  -25.8778   11.4867 H         1 UNK         0.0798 
    104 H104      -57.3095  -26.6705   11.7704 H         1 UNK         0.0798 
    105 H105      -56.3592  -27.0787   10.3502 H         1 UNK         0.0798 
    106 H106      -56.2409  -27.8850   14.1963 H         1 UNK         0.3198 
    107 H107      -55.5073  -26.0254   15.8265 H         1 UNK         0.0843 
    108 H108      -53.5010  -28.3211   16.3153 H         1 UNK         0.0831 
    109 H109      -55.2518  -28.4909   16.3022 H         1 UNK         0.0831 
    110 H110      -54.4761  -27.5542   17.5654 H         1 UNK         0.0831 
    111 H111      -52.7446  -25.5997   15.2226 H         1 UNK         0.3133 
    112 H112      -52.0825  -23.2287   16.3217 H         1 UNK         0.0566 
    113 H113      -50.8884  -22.7509   18.4741 H         1 UNK         0.0814 
    114 H114      -52.6292  -22.5763   18.6303 H         1 UNK         0.0814 
    115 H115      -51.8358  -24.0021   19.2781 H         1 UNK         0.0814 
    116 H116      -50.4557  -24.6266   15.8389 H         1 UNK         0.3091 
    117 H117      -48.8703  -27.3686   17.4476 H         1 UNK         0.0702 
    118 H118      -50.7907  -28.4283   16.2559 H         1 UNK         0.0785 
    119 H119      -50.5949  -27.3098   14.9130 H         1 UNK         0.0785 
    120 H120      -49.3314  -28.4832   15.2801 H         1 UNK         0.0785 
    121 H121      -48.4213  -26.1055   14.9233 H         1 UNK         0.2998 
    122 H122      -45.8813  -23.8606   16.1795 H         1 UNK         0.0697 
    123 H123      -45.9143  -26.3308   14.3655 H         1 UNK         0.0825 
    124 H124      -44.9094  -26.1255   15.7934 H         1 UNK         0.0825 
    125 H125      -44.6708  -25.0839   14.3990 H         1 UNK         0.0825 
    126 H126      -46.9431  -24.2016   13.5518 H         1 UNK         0.3029 
    127 H127      -49.3675  -21.5643   13.7610 H         1 UNK         0.0897 
    128 H128      -48.0792  -20.8273   11.7667 H         1 UNK         0.0792 
    129 H129      -46.7270  -21.8597   12.2250 H         1 UNK         0.0792 
    130 H130      -47.1725  -20.4896   13.2336 H         1 UNK         0.0792 
    131 H131      -48.7125  -23.2682   11.5994 H         1 UNK         0.3086 
    132 H132      -50.9297  -25.9586   12.3825 H         1 UNK         0.0583 
    133 H133      -52.2931  -24.3240   11.2026 H         1 UNK         0.1020 
    134 H134      -50.9258  -23.6638   10.3503 H         1 UNK         0.1020 
    135 H135      -52.6245  -27.0094   11.1316 H         1 UNK         0.0694 
    136 H136      -53.8201  -26.2404   10.1065 H         1 UNK         0.0694 
    137 H137      -48.9797  -25.5783   10.3399 H         1 UNK         0.2989 
    138 H138      -46.2731  -27.1936   11.9776 H         1 UNK         0.1055 
    139 H139      -47.6319  -29.1088   11.2258 H         1 UNK         0.0806 
    140 H140      -46.5003  -28.6803    9.9512 H         1 UNK         0.0806 
    141 H141      -48.1968  -28.2172    9.8242 H         1 UNK         0.0806 
    142 H142      -46.6697  -26.2133    9.3069 H         1 UNK         0.3061 
    143 H143      -45.6210  -22.8496    9.9935 H         1 UNK         0.0734 
    144 H144      -43.9645  -23.4351    8.2491 H         1 UNK         0.0832 
    145 H145      -43.5327  -24.2175    9.7607 H         1 UNK         0.0832 
    146 H146      -44.2823  -25.1546    8.4746 H         1 UNK         0.0832 
    147 H147      -46.3179  -23.9823    7.5206 H         1 UNK         0.3156 
    148 H148      -49.8290  -23.5172    7.6173 H         1 UNK         0.0589 
    149 H149      -47.6530  -21.8492    6.2500 H         1 UNK         0.0808 
    150 H150      -49.3395  -21.9656    5.7489 H         1 UNK         0.0808 
    151 H151      -48.9262  -21.2305    7.2893 H         1 UNK         0.0808 
    152 H152      -49.3765  -25.1168    6.2328 H         1 UNK         0.3098 
    153 H153      -47.8052  -25.7878    3.7998 H         1 UNK         0.0720 
    154 H154      -46.1616  -27.6758    4.0346 H         1 UNK         0.0791 
    155 H155      -45.7089  -27.0753    5.6292 H         1 UNK         0.0791 
    156 H156      -45.3934  -26.1068    4.1978 H         1 UNK         0.0791 
    157 H157      -49.2630  -27.2574    4.5801 H         1 UNK         0.3028 
@<TRIPOS>BOND
     1    1    2 1    
     2    1   82 1    
     3    1   83 1    
     4    1   84 1    
     5    2    3 2    
     6    2    4 am   BACKBONE|DICT|INTERRES
     7    4    5 1    
     8    4   85 1    
     9    5    6 1    
    10    5   80 1    
    11    5   86 1    
    12    6    7 1    
    13    6   87 1    
    14    6   88 1    
    15    7    8 1    
    16    8    9 1    
    17    8   89 1    
    18    8   90 1    
    19    9   10 ar   
    20    9   14 ar   
    21   10   11 ar   
    22   10   91 1    
    23   11   12 ar   
    24   11   58 1    
    25   12   13 ar   
    26   12   92 1    
    27   13   14 ar   
    28   13   15 1    
    29   14   93 1    
    30   15   16 1    
    31   15   94 1    
    32   15   95 1    
    33   16   17 1    
    34   17   18 1    
    35   17   96 1    
    36   17   97 1    
    37   18   19 1    
    38   18   22 1    
    39   18   98 1    
    40   19   20 am   BACKBONE|DICT|INTERRES
    41   19   21 2    
    42   20   99 1    
    43   20  100 1    
    44   22   23 am   BACKBONE|DICT|INTERRES
    45   22  101 1    
    46   23   24 2    
    47   23   25 1    
    48   25   26 1    
    49   25   27 1    
    50   25  102 1    
    51   26  103 1    
    52   26  104 1    
    53   26  105 1    
    54   27   28 am   BACKBONE|DICT|INTERRES
    55   27  106 1    
    56   28   29 2    
    57   28   30 1    
    58   30   31 1    
    59   30   32 1    
    60   30  107 1    
    61   31  108 1    
    62   31  109 1    
    63   31  110 1    
    64   32   33 am   BACKBONE|DICT|INTERRES
    65   32  111 1    
    66   33   34 2    
    67   33   35 1    
    68   35   36 1    
    69   35   37 1    
    70   35  112 1    
    71   36  113 1    
    72   36  114 1    
    73   36  115 1    
    74   37   38 am   BACKBONE|DICT|INTERRES
    75   37  116 1    
    76   38   39 2    
    77   38   40 1    
    78   40   41 1    
    79   40   42 1    
    80   40  117 1    
    81   41  118 1    
    82   41  119 1    
    83   41  120 1    
    84   42   43 am   BACKBONE|DICT|INTERRES
    85   42  121 1    
    86   43   44 2    
    87   43   45 1    
    88   45   46 1    
    89   45   47 1    
    90   45  122 1    
    91   46  123 1    
    92   46  124 1    
    93   46  125 1    
    94   47   48 am   BACKBONE|DICT|INTERRES
    95   47  126 1    
    96   48   49 2    
    97   48   50 1    
    98   50   51 1    
    99   50   52 1    
   100   50  127 1    
   101   51  128 1    
   102   51  129 1    
   103   51  130 1    
   104   52   53 am   BACKBONE|DICT|INTERRES
   105   52  131 1    
   106   53   54 2    
   107   53   55 1    
   108   55   56 1    
   109   55   59 1    
   110   55  132 1    
   111   56   57 1    
   112   56  133 1    
   113   56  134 1    
   114   57   58 1    
   115   58  135 1    
   116   58  136 1    
   117   59   60 am   BACKBONE|DICT|INTERRES
   118   59  137 1    
   119   60   61 2    
   120   60   62 1    
   121   62   63 1    
   122   62   64 1    
   123   62  138 1    
   124   63  139 1    
   125   63  140 1    
   126   63  141 1    
   127   64   65 am   BACKBONE|DICT|INTERRES
   128   64  142 1    
   129   65   66 2    
   130   65   67 1    
   131   67   68 1    
   132   67   69 1    
   133   67  143 1    
   134   68  144 1    
   135   68  145 1    
   136   68  146 1    
   137   69   70 am   BACKBONE|DICT|INTERRES
   138   69  147 1    
   139   70   71 2    
   140   70   72 1    
   141   72   73 1    
   142   72   74 1    
   143   72  148 1    
   144   73  149 1    
   145   73  150 1    
   146   73  151 1    
   147   74   75 am   BACKBONE|DICT|INTERRES
   148   74  152 1    
   149   75   76 2    
   150   75   77 1    
   151   77   78 1    
   152   77   79 1    
   153   77  153 1    
   154   78  154 1    
   155   78  155 1    
   156   78  156 1    
   157   79   80 am   BACKBONE|DICT|INTERRES
   158   79  157 1    
   159   80   81 2    
@<TRIPOS>SUBSTRUCTURE
     1 UNK         1 GROUP             0       ****    0 ROOT    
