@<TRIPOS>MOLECULE
3R207
157   159    1
SMALL
USER_CHARGES


@<TRIPOS>ATOM
      1 CA        -46.0899  -26.9800    3.9290 C.3       0 UNK        -0.1975 
      2 C         -47.5834  -26.7302    4.0712 C.2       0 UNK         0.4852 
      3 O         -48.2011  -26.1650    3.1671 O.2       0 UNK        -0.5216 
      4 N         -48.1712  -27.1322    5.2052 N.am      1 UNK        -0.4461 
      5 CA        -49.5989  -27.0144    5.5326 C.3       1 UNK         0.0864 
      6 C6        -50.0172  -28.0308    6.6284 C.3       14 UNK        -0.0898 
      7 S7        -49.6240  -29.7650    6.2059 S.3       14 UNK        -0.2598 
      8 C8        -51.2540  -30.5799    6.3054 C.3       14 UNK         0.0286 
      9 C9        -51.8932  -30.4311    7.6807 C.ar      14 UNK        -0.0844 
     10 C10       -51.2882  -30.9939    8.8093 C.ar      14 UNK        -0.0881 
     11 C11       -51.8413  -30.8049   10.0795 C.ar      14 UNK        -0.0643 
     12 C12       -53.0217  -30.0672   10.2126 C.ar      14 UNK        -0.0930 
     13 C13       -53.6514  -29.5246    9.0890 C.ar      14 UNK        -0.0827 
     14 C14       -53.0821  -29.7095    7.8264 C.ar      14 UNK        -0.1249 
     15 C15       -54.9217  -28.7005    9.2383 C.3       14 UNK         0.0141 
     16 S16       -56.4298  -29.6870    8.9652 S.3       14 UNK        -0.2313 
     17 C17       -56.5715  -30.6522   10.5094 C.3       14 UNK        -0.0915 
     18 CA        -57.5473  -30.0100   11.5293 C.3       13 UNK         0.0968 
     19 C         -57.8142  -30.9694   12.7203 C.2       13 UNK         0.5732 
     20 N         -58.7988  -31.8490   12.5976 N.am      13 UNK        -0.7310 
     21 O         -57.1166  -30.9513   13.7335 O.2       13 UNK        -0.5035 
     22 N         -57.0534  -28.7042   11.9784 N.am      13 UNK        -0.4233 
     23 C         -57.7655  -27.7733   12.6167 C.2       13 UNK         0.4989 
     24 O         -58.9680  -27.8788   12.8663 O.2       13 UNK        -0.4996 
     25 CA        -56.9872  -26.5114   13.0424 C.3       12 UNK         0.0216 
     26 CB        -57.9121  -25.3904   13.5527 C.3       12 UNK        -0.1964 
     27 N         -55.9753  -26.7886   14.0661 N.am      12 UNK        -0.4276 
     28 C         -54.8304  -27.4604   13.8904 C.2       12 UNK         0.5020 
     29 O         -54.4724  -27.9352   12.8100 O.2       12 UNK        -0.5489 
     30 CA        -53.9194  -27.5729   15.1227 C.3       11 UNK         0.0294 
     31 CB        -52.9235  -28.7419   15.0103 C.3       11 UNK        -0.2019 
     32 N         -53.1768  -26.3268   15.2986 N.am      11 UNK        -0.4493 
     33 C         -53.6599  -25.2083   15.8554 C.2       11 UNK         0.4932 
     34 O         -54.7920  -25.1261   16.3373 O.2       11 UNK        -0.5029 
     35 CA        -52.7214  -23.9843   15.8573 C.3       10 UNK         0.0280 
     36 CB        -53.2128  -22.8401   16.7691 C.3       10 UNK        -0.1976 
     37 N         -51.3297  -24.3421   16.1546 N.am      10 UNK        -0.4242 
     38 C         -50.8481  -24.8949   17.2790 C.2       10 UNK         0.5072 
     39 O         -51.5239  -25.1012   18.2882 O.2       10 UNK        -0.5224 
     40 CA        -49.3674  -25.3239   17.2843 C.3       9 UNK         0.0343 
     41 CB        -49.2659  -26.8588   17.2765 C.3       9 UNK        -0.2003 
     42 N         -48.5890  -24.7947   16.1604 N.am      9 UNK        -0.4272 
     43 C         -48.1622  -23.5291   16.0466 C.2       9 UNK         0.4988 
     44 O         -48.3276  -22.6700   16.9130 O.2       9 UNK        -0.5108 
     45 CA        -47.4622  -23.1485   14.7282 C.3       8 UNK         0.0248 
     46 CB        -45.9793  -23.5510   14.7604 C.3       8 UNK        -0.2001 
     47 N         -48.1061  -23.7317   13.5463 N.am      8 UNK        -0.4140 
     48 C         -49.3617  -23.4668   13.1534 C.2       8 UNK         0.5028 
     49 O         -50.1057  -22.6669   13.7199 O.2       8 UNK        -0.5428 
     50 CA        -49.9021  -24.2748   11.9643 C.3       7 UNK         0.0264 
     51 CB        -49.4465  -23.6707   10.6253 C.3       7 UNK        -0.1988 
     52 N         -49.5095  -25.6828   12.0393 N.am      7 UNK        -0.4454 
     53 C         -49.9751  -26.5475   12.9535 C.2       7 UNK         0.5027 
     54 O         -50.7956  -26.2495   13.8207 O.2       7 UNK        -0.5083 
     55 CA        -49.4125  -27.9813   12.9032 C.3       6 UNK         0.0844 
     56 C56       -50.1396  -28.7811   11.7970 C.3       14 UNK        -0.0967 
     57 S57       -49.5858  -30.5153   11.6803 S.3       14 UNK        -0.2604 
     58 C58       -51.1516  -31.3736   11.3130 C.3       14 UNK         0.0134 
     59 N         -47.9566  -27.9910   12.7353 N.am      6 UNK        -0.4116 
     60 C         -47.0703  -27.4489   13.5833 C.2       5 UNK         0.5034 
     61 O         -47.3730  -26.9204   14.6511 O.2       5 UNK        -0.5045 
     62 CA        -45.6007  -27.4312   13.1253 C.3       5 UNK         0.0224 
     63 CB        -44.8898  -28.7292   13.5389 C.3       5 UNK        -0.1978 
     64 N         -45.4557  -27.2261   11.6788 N.am      5 UNK        -0.4737 
     65 C         -45.9126  -26.1533   11.0196 C.2       4 UNK         0.5027 
     66 O         -46.4442  -25.1838   11.5711 O.2       4 UNK        -0.5211 
     67 CA        -45.8434  -26.2141    9.4907 C.3       4 UNK         0.0297 
     68 CB        -46.8416  -27.2713    8.9646 C.3       4 UNK        -0.1993 
     69 N         -46.1764  -24.8876    8.9795 N.am      4 UNK        -0.4486 
     70 C         -46.1843  -24.5033    7.7018 C.2       3 UNK         0.4961 
     71 O         -45.8395  -25.2191    6.7588 O.2       3 UNK        -0.5105 
     72 CA        -46.7008  -23.0922    7.4121 C.3       3 UNK         0.0299 
     73 CB        -45.5707  -22.1577    6.9507 C.3       3 UNK        -0.1972 
     74 N         -47.6894  -23.2444    6.3552 N.am      3 UNK        -0.4305 
     75 C         -48.8690  -22.6197    6.2793 C.2       2 UNK         0.5006 
     76 O         -49.1991  -21.6769    6.9995 O.2       2 UNK        -0.5106 
     77 CA        -49.8650  -23.1662    5.2382 C.3       2 UNK         0.0296 
     78 CB        -49.7115  -22.4243    3.9008 C.3       2 UNK        -0.2002 
     79 N         -49.7223  -24.6102    5.0135 N.am      2 UNK        -0.4032 
     80 C         -49.9639  -25.5626    5.9267 C.2       1 UNK         0.5000 
     81 O         -50.4170  -25.3204    7.0474 O.2       1 UNK        -0.5238 
     82 H82       -45.6757  -27.4745    4.8077 H         1 UNK         0.0889 
     83 H83       -45.5641  -26.0347    3.7972 H         1 UNK         0.0889 
     84 H84       -45.8936  -27.6068    3.0597 H         1 UNK         0.0889 
     85 H85       -47.6062  -27.5752    5.9147 H         1 UNK         0.3028 
     86 H86       -50.1741  -27.2487    4.6341 H         1 UNK         0.0864 
     87 H87       -49.5244  -27.8048    7.5751 H         1 UNK         0.0720 
     88 H88       -51.0871  -27.9403    6.8206 H         1 UNK         0.0720 
     89 H89       -51.1347  -31.6403    6.0797 H         1 UNK         0.0814 
     90 H90       -51.9013  -30.1719    5.5275 H         1 UNK         0.0814 
     91 H91       -50.3655  -31.5483    8.7038 H         1 UNK         0.1469 
     92 H92       -53.4438  -29.9023   11.1947 H         1 UNK         0.1381 
     93 H93       -53.5586  -29.2740    6.9586 H         1 UNK         0.1206 
     94 H94       -54.9086  -27.8846    8.5141 H         1 UNK         0.0813 
     95 H95       -54.9557  -28.2233   10.2169 H         1 UNK         0.0813 
     96 H96       -56.9229  -31.6462   10.2266 H         1 UNK         0.0638 
     97 H97       -55.5884  -30.8006   10.9553 H         1 UNK         0.0638 
     98 H98       -58.5007  -29.8395   11.0251 H         1 UNK         0.0568 
     99 H99       -59.3694  -31.8817   11.7670 H         1 UNK         0.3450 
    100 H100      -58.9786  -32.4904   13.3541 H         1 UNK         0.3450 
    101 H101      -56.0477  -28.5663   11.9438 H         1 UNK         0.2987 
    102 H102      -56.4746  -26.1365   12.1538 H         1 UNK         0.0766 
    103 H103      -57.3506  -24.4821   13.7733 H         1 UNK         0.0798 
    104 H104      -58.4430  -25.6847   14.4591 H         1 UNK         0.0798 
    105 H105      -58.6623  -25.1312   12.8043 H         1 UNK         0.0798 
    106 H106      -56.1436  -26.3937   14.9833 H         1 UNK         0.3198 
    107 H107      -54.5453  -27.7501   16.0002 H         1 UNK         0.0843 
    108 H108      -52.2543  -28.6242   14.1588 H         1 UNK         0.0831 
    109 H109      -53.4492  -29.6889   14.8817 H         1 UNK         0.0831 
    110 H110      -52.3101  -28.8278   15.9073 H         1 UNK         0.0831 
    111 H111      -52.2596  -26.2857   14.8538 H         1 UNK         0.3133 
    112 H112      -52.7183  -23.6074   14.8336 H         1 UNK         0.0566 
    113 H113      -52.5339  -21.9881   16.7354 H         1 UNK         0.0814 
    114 H114      -54.1943  -22.4845   16.4532 H         1 UNK         0.0814 
    115 H115      -53.3031  -23.1577   17.8082 H         1 UNK         0.0814 
    116 H116      -50.6856  -24.2278   15.3822 H         1 UNK         0.3091 
    117 H117      -48.9249  -24.9564   18.2124 H         1 UNK         0.0702 
    118 H118      -48.2291  -27.1882   17.3468 H         1 UNK         0.0785 
    119 H119      -49.6915  -27.2840   16.3664 H         1 UNK         0.0785 
    120 H120      -49.8013  -27.2934   18.1217 H         1 UNK         0.0785 
    121 H121      -48.3338  -25.4627   15.4373 H         1 UNK         0.2998 
    122 H122      -47.5166  -22.0626   14.6265 H         1 UNK         0.0697 
    123 H123      -45.8551  -24.6268   14.8826 H         1 UNK         0.0825 
    124 H124      -45.4634  -23.0681   15.5914 H         1 UNK         0.0825 
    125 H125      -45.4668  -23.2567   13.8442 H         1 UNK         0.0825 
    126 H126      -47.5511  -24.3750   12.9885 H         1 UNK         0.3029 
    127 H127      -50.9931  -24.2298   12.0007 H         1 UNK         0.0897 
    128 H128      -48.3613  -23.6368   10.5416 H         1 UNK         0.0792 
    129 H129      -49.8091  -22.6473   10.5193 H         1 UNK         0.0792 
    130 H130      -49.8320  -24.2380    9.7773 H         1 UNK         0.0792 
    131 H131      -48.7909  -25.9870   11.3997 H         1 UNK         0.3086 
    132 H132      -49.6297  -28.4513   13.8648 H         1 UNK         0.0583 
    133 H133      -51.2150  -28.7652   11.9835 H         1 UNK         0.1020 
    134 H134      -49.9996  -28.3198   10.8169 H         1 UNK         0.1020 
    135 H135      -50.9475  -32.4337   11.1566 H         1 UNK         0.0694 
    136 H136      -51.8039  -31.3120   12.1859 H         1 UNK         0.0694 
    137 H137      -47.6082  -28.4339   11.8987 H         1 UNK         0.2989 
    138 H138      -45.1112  -26.5956   13.6297 H         1 UNK         0.1055 
    139 H139      -44.9698  -28.8906   14.6151 H         1 UNK         0.0806 
    140 H140      -43.8272  -28.6942   13.2977 H         1 UNK         0.0806 
    141 H141      -45.3186  -29.6027   13.0460 H         1 UNK         0.0806 
    142 H142      -45.0254  -27.9748   11.1539 H         1 UNK         0.3061 
    143 H143      -44.8252  -26.4690    9.1906 H         1 UNK         0.0734 
    144 H144      -46.7692  -27.3916    7.8850 H         1 UNK         0.0832 
    145 H145      -46.6525  -28.2551    9.3954 H         1 UNK         0.0832 
    146 H146      -47.8716  -27.0026    9.2014 H         1 UNK         0.0832 
    147 H147      -46.4384  -24.2387    9.7129 H         1 UNK         0.3156 
    148 H148      -47.1685  -22.6839    8.3109 H         1 UNK         0.0589 
    149 H149      -44.8162  -22.0449    7.7301 H         1 UNK         0.0808 
    150 H150      -45.0685  -22.5393    6.0606 H         1 UNK         0.0808 
    151 H151      -45.9514  -21.1628    6.7191 H         1 UNK         0.0808 
    152 H152      -47.5145  -24.0291    5.7413 H         1 UNK         0.3098 
    153 H153      -50.8721  -22.9845    5.6193 H         1 UNK         0.0720 
    154 H154      -50.4642  -22.7454    3.1805 H         1 UNK         0.0791 
    155 H155      -48.7291  -22.5906    3.4566 H         1 UNK         0.0791 
    156 H156      -49.8314  -21.3483    4.0355 H         1 UNK         0.0791 
    157 H157      -49.3153  -24.9096    4.1309 H         1 UNK         0.3028 
@<TRIPOS>BOND
     1    1    2 1    
     2    1   82 1    
     3    1   83 1    
     4    1   84 1    
     5    2    3 2    
     6    2    4 am   BACKBONE|DICT|INTERRES
     7    4    5 1    
     8    4   85 1    
     9    5    6 1    
    10    5   80 1    
    11    5   86 1    
    12    6    7 1    
    13    6   87 1    
    14    6   88 1    
    15    7    8 1    
    16    8    9 1    
    17    8   89 1    
    18    8   90 1    
    19    9   10 ar   
    20    9   14 ar   
    21   10   11 ar   
    22   10   91 1    
    23   11   12 ar   
    24   11   58 1    
    25   12   13 ar   
    26   12   92 1    
    27   13   14 ar   
    28   13   15 1    
    29   14   93 1    
    30   15   16 1    
    31   15   94 1    
    32   15   95 1    
    33   16   17 1    
    34   17   18 1    
    35   17   96 1    
    36   17   97 1    
    37   18   19 1    
    38   18   22 1    
    39   18   98 1    
    40   19   20 am   BACKBONE|DICT|INTERRES
    41   19   21 2    
    42   20   99 1    
    43   20  100 1    
    44   22   23 am   BACKBONE|DICT|INTERRES
    45   22  101 1    
    46   23   24 2    
    47   23   25 1    
    48   25   26 1    
    49   25   27 1    
    50   25  102 1    
    51   26  103 1    
    52   26  104 1    
    53   26  105 1    
    54   27   28 am   BACKBONE|DICT|INTERRES
    55   27  106 1    
    56   28   29 2    
    57   28   30 1    
    58   30   31 1    
    59   30   32 1    
    60   30  107 1    
    61   31  108 1    
    62   31  109 1    
    63   31  110 1    
    64   32   33 am   BACKBONE|DICT|INTERRES
    65   32  111 1    
    66   33   34 2    
    67   33   35 1    
    68   35   36 1    
    69   35   37 1    
    70   35  112 1    
    71   36  113 1    
    72   36  114 1    
    73   36  115 1    
    74   37   38 am   BACKBONE|DICT|INTERRES
    75   37  116 1    
    76   38   39 2    
    77   38   40 1    
    78   40   41 1    
    79   40   42 1    
    80   40  117 1    
    81   41  118 1    
    82   41  119 1    
    83   41  120 1    
    84   42   43 am   BACKBONE|DICT|INTERRES
    85   42  121 1    
    86   43   44 2    
    87   43   45 1    
    88   45   46 1    
    89   45   47 1    
    90   45  122 1    
    91   46  123 1    
    92   46  124 1    
    93   46  125 1    
    94   47   48 am   BACKBONE|DICT|INTERRES
    95   47  126 1    
    96   48   49 2    
    97   48   50 1    
    98   50   51 1    
    99   50   52 1    
   100   50  127 1    
   101   51  128 1    
   102   51  129 1    
   103   51  130 1    
   104   52   53 am   BACKBONE|DICT|INTERRES
   105   52  131 1    
   106   53   54 2    
   107   53   55 1    
   108   55   56 1    
   109   55   59 1    
   110   55  132 1    
   111   56   57 1    
   112   56  133 1    
   113   56  134 1    
   114   57   58 1    
   115   58  135 1    
   116   58  136 1    
   117   59   60 am   BACKBONE|DICT|INTERRES
   118   59  137 1    
   119   60   61 2    
   120   60   62 1    
   121   62   63 1    
   122   62   64 1    
   123   62  138 1    
   124   63  139 1    
   125   63  140 1    
   126   63  141 1    
   127   64   65 am   BACKBONE|DICT|INTERRES
   128   64  142 1    
   129   65   66 2    
   130   65   67 1    
   131   67   68 1    
   132   67   69 1    
   133   67  143 1    
   134   68  144 1    
   135   68  145 1    
   136   68  146 1    
   137   69   70 am   BACKBONE|DICT|INTERRES
   138   69  147 1    
   139   70   71 2    
   140   70   72 1    
   141   72   73 1    
   142   72   74 1    
   143   72  148 1    
   144   73  149 1    
   145   73  150 1    
   146   73  151 1    
   147   74   75 am   BACKBONE|DICT|INTERRES
   148   74  152 1    
   149   75   76 2    
   150   75   77 1    
   151   77   78 1    
   152   77   79 1    
   153   77  153 1    
   154   78  154 1    
   155   78  155 1    
   156   78  156 1    
   157   79   80 am   BACKBONE|DICT|INTERRES
   158   79  157 1    
   159   80   81 2    
@<TRIPOS>SUBSTRUCTURE
     1 UNK         1 GROUP             0       ****    0 ROOT    
