@<TRIPOS>MOLECULE
3R207
157   159    1
SMALL
USER_CHARGES


@<TRIPOS>ATOM
      1 CA        -46.6395  -30.9301    7.0851 C.3       0 UNK        -0.1975 
      2 C         -46.8313  -30.3429    5.6946 C.2       0 UNK         0.4852 
      3 O         -45.8953  -30.3448    4.8945 O.2       0 UNK        -0.5216 
      4 N         -48.0394  -29.8440    5.4016 N.am      1 UNK        -0.4461 
      5 CA        -48.4052  -29.2086    4.1283 C.3       1 UNK         0.0864 
      6 C6        -49.9453  -29.0951    3.9736 C.3       14 UNK        -0.0898 
      7 S7        -50.7396  -28.1040    5.2914 S.3       14 UNK        -0.2598 
      8 C8        -51.7140  -29.3589    6.1790 C.3       14 UNK         0.0286 
      9 C9        -52.1721  -28.8582    7.5431 C.ar      14 UNK        -0.0844 
     10 C10       -52.8978  -27.6667    7.6579 C.ar      14 UNK        -0.0881 
     11 C11       -53.3286  -27.2063    8.9059 C.ar      14 UNK        -0.0643 
     12 C12       -53.0586  -27.9763   10.0421 C.ar      14 UNK        -0.0930 
     13 C13       -52.3271  -29.1623    9.9453 C.ar      14 UNK        -0.0827 
     14 C14       -51.8821  -29.5968    8.6943 C.ar      14 UNK        -0.1249 
     15 C15       -52.0125  -29.9672   11.1948 C.3       14 UNK         0.0141 
     16 S16       -53.2320  -31.2976   11.4363 S.3       14 UNK        -0.2313 
     17 C17       -53.6063  -31.1704   13.2192 C.3       14 UNK        -0.0915 
     18 CA        -55.0257  -30.5998   13.4900 C.3       13 UNK         0.0968 
     19 C         -55.3983  -30.6635   15.0015 C.2       13 UNK         0.5732 
     20 N         -55.8614  -29.5898   15.6323 N.am      13 UNK        -0.7310 
     21 O         -55.2763  -31.7195   15.6179 O.2       13 UNK        -0.5035 
     22 N         -55.2062  -29.2687   12.8890 N.am      13 UNK        -0.4233 
     23 C         -56.3613  -28.8062   12.3959 C.2       13 UNK         0.4989 
     24 O         -57.3970  -29.4721   12.3384 O.2       13 UNK        -0.4996 
     25 CA        -56.3514  -27.3484   11.8884 C.3       12 UNK         0.0216 
     26 CB        -57.7712  -26.7719   11.7034 C.3       12 UNK        -0.1964 
     27 N         -55.5348  -26.4311   12.7011 N.am      12 UNK        -0.4276 
     28 C         -55.6617  -26.1998   14.0161 C.2       12 UNK         0.5020 
     29 O         -56.4470  -26.8081   14.7498 O.2       12 UNK        -0.5489 
     30 CA        -54.7572  -25.1118   14.6125 C.3       11 UNK         0.0294 
     31 CB        -55.0867  -23.7239   14.0287 C.3       11 UNK        -0.2019 
     32 N         -54.9672  -25.0992   16.0597 N.am      11 UNK        -0.4493 
     33 C         -54.1477  -24.7089   17.0443 C.2       11 UNK         0.4932 
     34 O         -54.5181  -24.7292   18.2181 O.2       11 UNK        -0.5029 
     35 CA        -52.7063  -24.2555   16.7120 C.3       10 UNK         0.0280 
     36 CB        -51.9927  -23.6115   17.9193 C.3       10 UNK        -0.1976 
     37 N         -51.8802  -25.3363   16.1637 N.am      10 UNK        -0.4242 
     38 C         -51.6569  -26.5533   16.6832 C.2       10 UNK         0.5072 
     39 O         -52.0984  -26.9503   17.7620 O.2       10 UNK        -0.5224 
     40 CA        -50.7769  -27.4954   15.8455 C.3       9 UNK         0.0343 
     41 CB        -51.5825  -28.1035   14.6872 C.3       9 UNK        -0.2003 
     42 N         -49.5778  -26.8357   15.3238 N.am      9 UNK        -0.4272 
     43 C         -48.5633  -26.4036   16.0885 C.2       9 UNK         0.4988 
     44 O         -48.4952  -26.5812   17.3054 O.2       9 UNK        -0.5108 
     45 CA        -47.4315  -25.6397   15.3823 C.3       8 UNK         0.0248 
     46 CB        -46.4350  -26.6204   14.7435 C.3       8 UNK        -0.2001 
     47 N         -47.9245  -24.6969   14.3748 N.am      8 UNK        -0.4140 
     48 C         -48.6444  -23.5987   14.6515 C.2       8 UNK         0.5028 
     49 O         -48.9049  -23.2199   15.7935 O.2       8 UNK        -0.5428 
     50 CA        -49.1858  -22.7918   13.4581 C.3       7 UNK         0.0264 
     51 CB        -48.1205  -21.8170   12.9332 C.3       7 UNK        -0.1988 
     52 N         -49.6681  -23.6322   12.3593 N.am      7 UNK        -0.4454 
     53 C         -50.6918  -24.4945   12.4492 C.2       7 UNK         0.5027 
     54 O         -51.3613  -24.6593   13.4692 O.2       7 UNK        -0.5083 
     55 CA        -50.9759  -25.3652   11.2108 C.3       6 UNK         0.0844 
     56 C56       -51.8159  -24.6194   10.1414 C.3       14 UNK        -0.0967 
     57 S57       -53.6059  -24.8407   10.4231 S.3       14 UNK        -0.2604 
     58 C58       -54.0874  -25.8828    8.9997 C.3       14 UNK         0.0134 
     59 N         -49.7423  -25.9215   10.6588 N.am      6 UNK        -0.4116 
     60 C         -48.9737  -26.8271   11.2789 C.2       5 UNK         0.5034 
     61 O         -49.2429  -27.3332   12.3688 O.2       5 UNK        -0.5045 
     62 CA        -47.6529  -27.1827   10.5818 C.3       5 UNK         0.0224 
     63 CB        -47.8804  -28.2587    9.5069 C.3       5 UNK        -0.1978 
     64 N         -47.0175  -26.0011    9.9870 N.am      5 UNK        -0.4737 
     65 C         -46.4757  -25.0069   10.7090 C.2       4 UNK         0.5027 
     66 O         -46.4229  -25.0144   11.9368 O.2       4 UNK        -0.5211 
     67 CA        -45.9398  -23.7775    9.9539 C.3       4 UNK         0.0297 
     68 CB        -44.4649  -23.9849    9.5764 C.3       4 UNK        -0.1993 
     69 N         -46.7065  -23.4457    8.7530 N.am      4 UNK        -0.4486 
     70 C         -48.0142  -23.1521    8.7184 C.2       3 UNK         0.4961 
     71 O         -48.7232  -23.0518    9.7199 O.2       3 UNK        -0.5105 
     72 CA        -48.6531  -23.0081    7.3244 C.3       3 UNK         0.0299 
     73 CB        -48.7156  -21.5284    6.9157 C.3       3 UNK        -0.1972 
     74 N         -47.9818  -23.7823    6.2690 N.am      3 UNK        -0.4305 
     75 C         -47.8046  -25.1108    6.2894 C.2       2 UNK         0.5006 
     76 O         -48.1488  -25.8345    7.2288 O.2       2 UNK        -0.5106 
     77 CA        -47.0733  -25.7312    5.0950 C.3       2 UNK         0.0296 
     78 CB        -45.5483  -25.6523    5.2800 C.3       2 UNK        -0.2002 
     79 N         -47.4864  -27.1248    5.0287 N.am      2 UNK        -0.4032 
     80 C         -47.7244  -27.8359    3.9222 C.2       1 UNK         0.5000 
     81 O         -47.4594  -27.4478    2.7824 O.2       1 UNK        -0.5238 
     82 H82       -45.8375  -30.4074    7.6056 H         1 UNK         0.0889 
     83 H83       -46.3684  -31.9830    7.0127 H         1 UNK         0.0889 
     84 H84       -47.5434  -30.8542    7.6894 H         1 UNK         0.0889 
     85 H85       -48.7703  -29.8670    6.0978 H         1 UNK         0.3028 
     86 H86       -48.0427  -29.8562    3.3267 H         1 UNK         0.0864 
     87 H87       -50.3862  -30.0929    3.9516 H         1 UNK         0.0720 
     88 H88       -50.1983  -28.6478    3.0103 H         1 UNK         0.0720 
     89 H89       -51.1190  -30.2669    6.2877 H         1 UNK         0.0814 
     90 H90       -52.5861  -29.6275    5.5814 H         1 UNK         0.0814 
     91 H91       -53.1167  -27.0914    6.7686 H         1 UNK         0.1469 
     92 H92       -53.3994  -27.6417   11.0096 H         1 UNK         0.1381 
     93 H93       -51.3215  -30.5186    8.6201 H         1 UNK         0.1206 
     94 H94       -51.0143  -30.4017   11.1225 H         1 UNK         0.0813 
     95 H95       -51.9895  -29.3005   12.0556 H         1 UNK         0.0813 
     96 H96       -52.8435  -30.5817   13.7279 H         1 UNK         0.0638 
     97 H97       -53.5218  -32.1784   13.6291 H         1 UNK         0.0638 
     98 H98       -55.7267  -31.2819   13.0053 H         1 UNK         0.0568 
     99 H99       -56.0207  -28.7118   15.1500 H         1 UNK         0.3450 
    100 H100      -56.0980  -29.6672   16.6081 H         1 UNK         0.3450 
    101 H101      -54.4124  -28.6512   12.9304 H         1 UNK         0.2987 
    102 H102      -55.8885  -27.3875   10.9029 H         1 UNK         0.0766 
    103 H103      -58.3530  -27.3736   11.0040 H         1 UNK         0.0798 
    104 H104      -57.7381  -25.7580   11.3044 H         1 UNK         0.0798 
    105 H105      -58.3205  -26.7440   12.6453 H         1 UNK         0.0798 
    106 H106      -54.8689  -25.8709   12.1820 H         1 UNK         0.3198 
    107 H107      -53.7309  -25.3814   14.3711 H         1 UNK         0.0843 
    108 H108      -54.4715  -22.9402   14.4686 H         1 UNK         0.0831 
    109 H109      -56.1309  -23.4571   14.1966 H         1 UNK         0.0831 
    110 H110      -54.9123  -23.6920   12.9532 H         1 UNK         0.0831 
    111 H111      -55.8593  -25.5083   16.3121 H         1 UNK         0.3133 
    112 H112      -52.7737  -23.4937   15.9358 H         1 UNK         0.0566 
    113 H113      -51.0059  -23.2405   17.6420 H         1 UNK         0.0814 
    114 H114      -51.8638  -24.3185   18.7396 H         1 UNK         0.0814 
    115 H115      -52.5617  -22.7642   18.3036 H         1 UNK         0.0814 
    116 H116      -51.4986  -25.1437   15.2389 H         1 UNK         0.3091 
    117 H117      -50.4544  -28.3119   16.4953 H         1 UNK         0.0702 
    118 H118      -52.4971  -28.5718   15.0536 H         1 UNK         0.0785 
    119 H119      -51.8682  -27.3523   13.9505 H         1 UNK         0.0785 
    120 H120      -51.0014  -28.8708   14.1760 H         1 UNK         0.0785 
    121 H121      -49.5232  -26.7100   14.3184 H         1 UNK         0.2998 
    122 H122      -46.8978  -25.0642   16.1414 H         1 UNK         0.0697 
    123 H123      -46.8940  -27.1970   13.9397 H         1 UNK         0.0825 
    124 H124      -46.0568  -27.3299   15.4807 H         1 UNK         0.0825 
    125 H125      -45.5741  -26.0957   14.3290 H         1 UNK         0.0825 
    126 H126      -47.6653  -24.8857   13.4101 H         1 UNK         0.3029 
    127 H127      -50.0356  -22.2069   13.8169 H         1 UNK         0.0897 
    128 H128      -47.2339  -22.3431   12.5798 H         1 UNK         0.0792 
    129 H129      -47.8003  -21.1309   13.7184 H         1 UNK         0.0792 
    130 H130      -48.5033  -21.2136   12.1098 H         1 UNK         0.0792 
    131 H131      -49.2030  -23.5235   11.4598 H         1 UNK         0.3086 
    132 H132      -51.5481  -26.2234   11.5660 H         1 UNK         0.0583 
    133 H133      -51.5835  -23.5527   10.1089 H         1 UNK         0.1020 
    134 H134      -51.5777  -24.9910    9.1432 H         1 UNK         0.1020 
    135 H135      -55.1560  -26.0908    9.0572 H         1 UNK         0.0694 
    136 H136      -53.9410  -25.2975    8.0904 H         1 UNK         0.0694 
    137 H137      -49.4166  -25.5380    9.7831 H         1 UNK         0.2989 
    138 H138      -46.9764  -27.5898   11.3368 H         1 UNK         0.1055 
    139 H139      -48.6055  -27.9411    8.7565 H         1 UNK         0.0806 
    140 H140      -46.9519  -28.5081    8.9942 H         1 UNK         0.0806 
    141 H141      -48.2632  -29.1771    9.9543 H         1 UNK         0.0806 
    142 H142      -47.0961  -25.8988    8.9803 H         1 UNK         0.3061 
    143 H143      -46.0021  -22.9218   10.6282 H         1 UNK         0.0734 
    144 H144      -44.3384  -24.8112    8.8756 H         1 UNK         0.0832 
    145 H145      -44.0401  -23.0894    9.1225 H         1 UNK         0.0832 
    146 H146      -43.8660  -24.2126   10.4594 H         1 UNK         0.0832 
    147 H147      -46.2156  -23.5006    7.8732 H         1 UNK         0.3156 
    148 H148      -49.6756  -23.3837    7.4012 H         1 UNK         0.0589 
    149 H149      -49.2608  -21.3963    5.9809 H         1 UNK         0.0808 
    150 H150      -49.2304  -20.9359    7.6738 H         1 UNK         0.0808 
    151 H151      -47.7202  -21.1008    6.7892 H         1 UNK         0.0808 
    152 H152      -47.6563  -23.2621    5.4661 H         1 UNK         0.3098 
    153 H153      -47.3711  -25.2071    4.1843 H         1 UNK         0.0720 
    154 H154      -45.2095  -24.6166    5.3256 H         1 UNK         0.0791 
    155 H155      -45.0262  -26.1269    4.4489 H         1 UNK         0.0791 
    156 H156      -45.2273  -26.1448    6.1991 H         1 UNK         0.0791 
    157 H157      -47.8088  -27.4924    5.9155 H         1 UNK         0.3028 
@<TRIPOS>BOND
     1    1    2 1    
     2    1   82 1    
     3    1   83 1    
     4    1   84 1    
     5    2    3 2    
     6    2    4 am   BACKBONE|DICT|INTERRES
     7    4    5 1    
     8    4   85 1    
     9    5    6 1    
    10    5   80 1    
    11    5   86 1    
    12    6    7 1    
    13    6   87 1    
    14    6   88 1    
    15    7    8 1    
    16    8    9 1    
    17    8   89 1    
    18    8   90 1    
    19    9   10 ar   
    20    9   14 ar   
    21   10   11 ar   
    22   10   91 1    
    23   11   12 ar   
    24   11   58 1    
    25   12   13 ar   
    26   12   92 1    
    27   13   14 ar   
    28   13   15 1    
    29   14   93 1    
    30   15   16 1    
    31   15   94 1    
    32   15   95 1    
    33   16   17 1    
    34   17   18 1    
    35   17   96 1    
    36   17   97 1    
    37   18   19 1    
    38   18   22 1    
    39   18   98 1    
    40   19   20 am   BACKBONE|DICT|INTERRES
    41   19   21 2    
    42   20   99 1    
    43   20  100 1    
    44   22   23 am   BACKBONE|DICT|INTERRES
    45   22  101 1    
    46   23   24 2    
    47   23   25 1    
    48   25   26 1    
    49   25   27 1    
    50   25  102 1    
    51   26  103 1    
    52   26  104 1    
    53   26  105 1    
    54   27   28 am   BACKBONE|DICT|INTERRES
    55   27  106 1    
    56   28   29 2    
    57   28   30 1    
    58   30   31 1    
    59   30   32 1    
    60   30  107 1    
    61   31  108 1    
    62   31  109 1    
    63   31  110 1    
    64   32   33 am   BACKBONE|DICT|INTERRES
    65   32  111 1    
    66   33   34 2    
    67   33   35 1    
    68   35   36 1    
    69   35   37 1    
    70   35  112 1    
    71   36  113 1    
    72   36  114 1    
    73   36  115 1    
    74   37   38 am   BACKBONE|DICT|INTERRES
    75   37  116 1    
    76   38   39 2    
    77   38   40 1    
    78   40   41 1    
    79   40   42 1    
    80   40  117 1    
    81   41  118 1    
    82   41  119 1    
    83   41  120 1    
    84   42   43 am   BACKBONE|DICT|INTERRES
    85   42  121 1    
    86   43   44 2    
    87   43   45 1    
    88   45   46 1    
    89   45   47 1    
    90   45  122 1    
    91   46  123 1    
    92   46  124 1    
    93   46  125 1    
    94   47   48 am   BACKBONE|DICT|INTERRES
    95   47  126 1    
    96   48   49 2    
    97   48   50 1    
    98   50   51 1    
    99   50   52 1    
   100   50  127 1    
   101   51  128 1    
   102   51  129 1    
   103   51  130 1    
   104   52   53 am   BACKBONE|DICT|INTERRES
   105   52  131 1    
   106   53   54 2    
   107   53   55 1    
   108   55   56 1    
   109   55   59 1    
   110   55  132 1    
   111   56   57 1    
   112   56  133 1    
   113   56  134 1    
   114   57   58 1    
   115   58  135 1    
   116   58  136 1    
   117   59   60 am   BACKBONE|DICT|INTERRES
   118   59  137 1    
   119   60   61 2    
   120   60   62 1    
   121   62   63 1    
   122   62   64 1    
   123   62  138 1    
   124   63  139 1    
   125   63  140 1    
   126   63  141 1    
   127   64   65 am   BACKBONE|DICT|INTERRES
   128   64  142 1    
   129   65   66 2    
   130   65   67 1    
   131   67   68 1    
   132   67   69 1    
   133   67  143 1    
   134   68  144 1    
   135   68  145 1    
   136   68  146 1    
   137   69   70 am   BACKBONE|DICT|INTERRES
   138   69  147 1    
   139   70   71 2    
   140   70   72 1    
   141   72   73 1    
   142   72   74 1    
   143   72  148 1    
   144   73  149 1    
   145   73  150 1    
   146   73  151 1    
   147   74   75 am   BACKBONE|DICT|INTERRES
   148   74  152 1    
   149   75   76 2    
   150   75   77 1    
   151   77   78 1    
   152   77   79 1    
   153   77  153 1    
   154   78  154 1    
   155   78  155 1    
   156   78  156 1    
   157   79   80 am   BACKBONE|DICT|INTERRES
   158   79  157 1    
   159   80   81 2    
@<TRIPOS>SUBSTRUCTURE
     1 UNK         1 GROUP             0       ****    0 ROOT    
