@<TRIPOS>MOLECULE
3R207
157   159    1
SMALL
USER_CHARGES


@<TRIPOS>ATOM
      1 CA        -48.7251  -30.3256    8.9604 C.3       0 UNK        -0.1975 
      2 C         -48.4743  -30.0290    7.4920 C.2       0 UNK         0.4852 
      3 O         -47.3713  -30.2556    6.9942 O.2       0 UNK        -0.5216 
      4 N         -49.5033  -29.5333    6.7950 N.am      1 UNK        -0.4461 
      5 CA        -49.4938  -29.2988    5.3445 C.3       1 UNK         0.0864 
      6 C6        -50.9290  -29.2492    4.7659 C.3       14 UNK        -0.0898 
      7 S7        -51.8604  -30.7742    5.1420 S.3       14 UNK        -0.2598 
      8 C8        -53.3495  -30.1326    5.9715 C.3       14 UNK         0.0286 
      9 C9        -53.0564  -29.4265    7.2910 C.ar      14 UNK        -0.0844 
     10 C10       -53.2951  -28.0556    7.4186 C.ar      14 UNK        -0.0881 
     11 C11       -53.1224  -27.4037    8.6431 C.ar      14 UNK        -0.0643 
     12 C12       -52.6991  -28.1500    9.7528 C.ar      14 UNK        -0.0930 
     13 C13       -52.4465  -29.5213    9.6411 C.ar      14 UNK        -0.0827 
     14 C14       -52.6167  -30.1502    8.4026 C.ar      14 UNK        -0.1249 
     15 C15       -51.9945  -30.3228   10.8579 C.3       14 UNK         0.0141 
     16 S16       -53.1255  -31.7049   11.2267 S.3       14 UNK        -0.2313 
     17 C17       -53.7308  -31.3226   12.9047 C.3       14 UNK        -0.0915 
     18 CA        -55.1575  -30.7136   12.8880 C.3       13 UNK         0.0968 
     19 C         -55.8287  -30.7788   14.2932 C.2       13 UNK         0.5732 
     20 N         -56.2944  -29.6820   14.8794 N.am      13 UNK        -0.7310 
     21 O         -55.9441  -31.8609   14.8640 O.2       13 UNK        -0.5035 
     22 N         -55.1537  -29.3757   12.2799 N.am      13 UNK        -0.4233 
     23 C         -56.1998  -28.8047   11.6726 C.2       13 UNK         0.4989 
     24 O         -57.2727  -29.3776   11.4729 O.2       13 UNK        -0.4996 
     25 CA        -56.0098  -27.3375   11.2314 C.3       12 UNK         0.0216 
     26 CB        -57.3483  -26.6198   10.9574 C.3       12 UNK        -0.1964 
     27 N         -55.1815  -26.5347   12.1490 N.am      12 UNK        -0.4276 
     28 C         -55.3979  -26.3428   13.4584 C.2       12 UNK         0.5020 
     29 O         -56.3111  -26.8844   14.0897 O.2       12 UNK        -0.5489 
     30 CA        -54.4411  -25.3887   14.1890 C.3       11 UNK         0.0294 
     31 CB        -54.6742  -23.9342   13.7330 C.3       11 UNK        -0.2019 
     32 N         -54.7160  -25.5236   15.6186 N.am      11 UNK        -0.4493 
     33 C         -53.9572  -25.2397   16.6844 C.2       11 UNK         0.4932 
     34 O         -54.3826  -25.4253   17.8246 O.2       11 UNK        -0.5029 
     35 CA        -52.5272  -24.6847   16.4929 C.3       10 UNK         0.0280 
     36 CB        -51.9346  -24.1215   17.8026 C.3       10 UNK        -0.1976 
     37 N         -51.6011  -25.6566   15.9050 N.am      10 UNK        -0.4242 
     38 C         -51.2816  -26.8804   16.3520 C.2       10 UNK         0.5072 
     39 O         -51.7732  -27.4171   17.3453 O.2       10 UNK        -0.5224 
     40 CA        -50.1930  -27.6272   15.5603 C.3       9 UNK         0.0343 
     41 CB        -50.7867  -28.2859   14.3028 C.3       9 UNK        -0.2003 
     42 N         -49.0697  -26.7602   15.1878 N.am      9 UNK        -0.4272 
     43 C         -48.2224  -26.1883   16.0584 C.2       9 UNK         0.4988 
     44 O         -48.2439  -26.3944   17.2725 O.2       9 UNK        -0.5108 
     45 CA        -47.1783  -25.2118   15.4865 C.3       8 UNK         0.0248 
     46 CB        -45.9601  -25.9691   14.9337 C.3       8 UNK        -0.2001 
     47 N         -47.7332  -24.3318   14.4546 N.am      8 UNK        -0.4140 
     48 C         -48.6333  -23.3655   14.6912 C.2       8 UNK         0.5028 
     49 O         -49.0159  -23.0469   15.8169 O.2       8 UNK        -0.5428 
     50 CA        -49.2314  -22.6438   13.4706 C.3       7 UNK         0.0264 
     51 CB        -48.3489  -21.4573   13.0521 C.3       7 UNK        -0.1988 
     52 N         -49.4493  -23.5288   12.3229 N.am      7 UNK        -0.4454 
     53 C         -50.2911  -24.5733   12.3193 C.2       7 UNK         0.5027 
     54 O         -51.0050  -24.8739   13.2756 O.2       7 UNK        -0.5083 
     55 CA        -50.2952  -25.4719   11.0654 C.3       6 UNK         0.0844 
     56 C56       -51.1402  -24.8683    9.9196 C.3       14 UNK        -0.0967 
     57 S57       -52.9317  -25.0260   10.2163 S.3       14 UNK        -0.2604 
     58 C58       -53.4699  -25.9134    8.7137 C.3       14 UNK         0.0134 
     59 N         -48.9378  -25.7896   10.6249 N.am      6 UNK        -0.4116 
     60 C         -48.0313  -26.4670   11.3412 C.2       5 UNK         0.5034 
     61 O         -48.2655  -26.9786   12.4346 O.2       5 UNK        -0.5045 
     62 CA        -46.6078  -26.5326   10.7668 C.3       5 UNK         0.0224 
     63 CB        -46.4673  -27.6753    9.7521 C.3       5 UNK        -0.1978 
     64 N         -46.2111  -25.2686   10.1441 N.am      5 UNK        -0.4737 
     65 C         -45.9590  -24.1441   10.8274 C.2       4 UNK         0.5027 
     66 O         -45.9958  -24.0691   12.0549 O.2       4 UNK        -0.5211 
     67 CA        -45.6543  -22.8868    9.9969 C.3       4 UNK         0.0297 
     68 CB        -44.1721  -22.8516    9.5929 C.3       4 UNK        -0.1993 
     69 N         -46.4956  -22.7818    8.8007 N.am      4 UNK        -0.4486 
     70 C         -47.8220  -22.5899    8.8277 C.2       3 UNK         0.4961 
     71 O         -48.4760  -22.4654    9.8622 O.2       3 UNK        -0.5105 
     72 CA        -48.5507  -22.5846    7.4737 C.3       3 UNK         0.0299 
     73 CB        -48.4325  -21.2082    6.8004 C.3       3 UNK        -0.1972 
     74 N         -48.0962  -23.6312    6.5502 N.am      3 UNK        -0.4305 
     75 C         -48.1500  -24.9449    6.8054 C.2       2 UNK         0.5006 
     76 O         -48.5155  -25.4235    7.8816 O.2       2 UNK        -0.5106 
     77 CA        -47.6973  -25.8893    5.6913 C.3       2 UNK         0.0296 
     78 CB        -46.1765  -26.1189    5.7507 C.3       2 UNK        -0.2002 
     79 N         -48.4009  -27.1534    5.8774 N.am      2 UNK        -0.4032 
     80 C         -48.6878  -28.0488    4.9264 C.2       1 UNK         0.5000 
     81 O         -48.3475  -27.9199    3.7485 O.2       1 UNK        -0.5238 
     82 H82       -47.7945  -30.5711    9.4708 H         1 UNK         0.0889 
     83 H83       -49.3912  -31.1825    9.0532 H         1 UNK         0.0889 
     84 H84       -49.1772  -29.4691    9.4606 H         1 UNK         0.0889 
     85 H85       -50.3970  -29.3980    7.2497 H         1 UNK         0.3028 
     86 H86       -48.9871  -30.1486    4.8812 H         1 UNK         0.0864 
     87 H87       -50.9002  -29.1413    3.6799 H         1 UNK         0.0720 
     88 H88       -51.4668  -28.3778    5.1427 H         1 UNK         0.0720 
     89 H89       -54.0257  -30.9668    6.1638 H         1 UNK         0.0814 
     90 H90       -53.8784  -29.4707    5.2840 H         1 UNK         0.0814 
     91 H91       -53.6489  -27.4941    6.5642 H         1 UNK         0.1469 
     92 H92       -52.5810  -27.6760   10.7146 H         1 UNK         0.1381 
     93 H93       -52.4377  -31.2131    8.3110 H         1 UNK         0.1206 
     94 H94       -51.0047  -30.7351   10.6706 H         1 UNK         0.0813 
     95 H95       -51.8862  -29.6754   11.7283 H         1 UNK         0.0813 
     96 H96       -53.0312  -30.6721   13.4305 H         1 UNK         0.0638 
     97 H97       -53.7234  -32.2676   13.4509 H         1 UNK         0.0638 
     98 H98       -55.7738  -31.3590   12.2591 H         1 UNK         0.0568 
     99 H99       -56.2500  -28.7720   14.4309 H         1 UNK         0.3450 
    100 H100      -56.7281  -29.7650   15.7844 H         1 UNK         0.3450 
    101 H101      -54.3195  -28.8288   12.4166 H         1 UNK         0.2987 
    102 H102      -55.4714  -27.3865   10.2860 H         1 UNK         0.0766 
    103 H103      -57.9211  -27.1356   10.1857 H         1 UNK         0.0798 
    104 H104      -57.1863  -25.5997   10.6093 H         1 UNK         0.0798 
    105 H105      -57.9715  -26.5746   11.8512 H         1 UNK         0.0798 
    106 H106      -54.4145  -26.0354   11.7132 H         1 UNK         0.3198 
    107 H107      -53.4206  -25.6997   13.9673 H         1 UNK         0.0843 
    108 H108      -54.0248  -23.2269   14.2447 H         1 UNK         0.0831 
    109 H109      -55.7044  -23.6212   13.9083 H         1 UNK         0.0831 
    110 H110      -54.4787  -23.8198   12.6663 H         1 UNK         0.0831 
    111 H111      -55.6159  -25.9643   15.7750 H         1 UNK         0.3133 
    112 H112      -52.5827  -23.8539   15.7922 H         1 UNK         0.0566 
    113 H113      -50.9549  -23.6752   17.6335 H         1 UNK         0.0814 
    114 H114      -51.8202  -24.8943   18.5636 H         1 UNK         0.0814 
    115 H115      -52.5767  -23.3448   18.2196 H         1 UNK         0.0814 
    116 H116      -51.1828  -25.3607   15.0240 H         1 UNK         0.3091 
    117 H117      -49.7998  -28.4185   16.2020 H         1 UNK         0.0702 
    118 H118      -51.6024  -28.9595   14.5672 H         1 UNK         0.0785 
    119 H119      -51.1843  -27.5485   13.6057 H         1 UNK         0.0785 
    120 H120      -50.0372  -28.8746   13.7732 H         1 UNK         0.0785 
    121 H121      -48.9233  -26.6041   14.1942 H         1 UNK         0.2998 
    122 H122      -46.8328  -24.5803   16.3078 H         1 UNK         0.0697 
    123 H123      -46.2311  -26.6336   14.1139 H         1 UNK         0.0825 
    124 H124      -45.4994  -26.5820   15.7094 H         1 UNK         0.0825 
    125 H125      -45.1977  -25.2810   14.5680 H         1 UNK         0.0825 
    126 H126      -47.4002  -24.4657   13.5054 H         1 UNK         0.3029 
    127 H127      -50.2061  -22.2526   13.7703 H         1 UNK         0.0897 
    128 H128      -47.3639  -21.7844   12.7186 H         1 UNK         0.0792 
    129 H129      -48.2001  -20.7686   13.8848 H         1 UNK         0.0792 
    130 H130      -48.8053  -20.8910   12.2400 H         1 UNK         0.0792 
    131 H131      -48.9423  -23.3015   11.4696 H         1 UNK         0.3086 
    132 H132      -50.7423  -26.4240   11.3549 H         1 UNK         0.0583 
    133 H133      -50.8943  -23.8184    9.7494 H         1 UNK         0.1020 
    134 H134      -50.9049  -25.3789    8.9849 H         1 UNK         0.1020 
    135 H135      -54.5533  -25.8138    8.6370 H         1 UNK         0.0694 
    136 H136      -53.0583  -25.4001    7.8430 H         1 UNK         0.0694 
    137 H137      -48.6737  -25.4605    9.6990 H         1 UNK         0.2989 
    138 H138      -45.9256  -26.7305   11.5967 H         1 UNK         0.1055 
    139 H139      -47.1535  -27.5643    8.9124 H         1 UNK         0.0806 
    140 H140      -45.4547  -27.7307    9.3522 H         1 UNK         0.0806 
    141 H141      -46.6755  -28.6332   10.2281 H         1 UNK         0.0806 
    142 H142      -46.2037  -25.2336    9.1355 H         1 UNK         0.3061 
    143 H143      -45.8562  -22.0179   10.6272 H         1 UNK         0.0734 
    144 H144      -43.9081  -23.6840    8.9394 H         1 UNK         0.0832 
    145 H145      -43.9234  -21.9250    9.0752 H         1 UNK         0.0832 
    146 H146      -43.5286  -22.9116   10.4719 H         1 UNK         0.0832 
    147 H147      -46.0405  -22.8751    7.9044 H         1 UNK         0.3156 
    148 H148      -49.6080  -22.7696    7.6753 H         1 UNK         0.0589 
    149 H149      -49.0392  -21.1549    5.8961 H         1 UNK         0.0808 
    150 H150      -48.7801  -20.4173    7.4669 H         1 UNK         0.0808 
    151 H151      -47.4023  -20.9752    6.5284 H         1 UNK         0.0808 
    152 H152      -47.7696  -23.3252    5.6444 H         1 UNK         0.3098 
    153 H153      -47.9732  -25.4562    4.7275 H         1 UNK         0.0720 
    154 H154      -45.6307  -25.1820    5.6329 H         1 UNK         0.0791 
    155 H155      -45.8465  -26.7863    4.9544 H         1 UNK         0.0791 
    156 H156      -45.8725  -26.5605    6.7007 H         1 UNK         0.0791 
    157 H157      -48.7512  -27.2981    6.8160 H         1 UNK         0.3028 
@<TRIPOS>BOND
     1    1    2 1    
     2    1   82 1    
     3    1   83 1    
     4    1   84 1    
     5    2    3 2    
     6    2    4 am   BACKBONE|DICT|INTERRES
     7    4    5 1    
     8    4   85 1    
     9    5    6 1    
    10    5   80 1    
    11    5   86 1    
    12    6    7 1    
    13    6   87 1    
    14    6   88 1    
    15    7    8 1    
    16    8    9 1    
    17    8   89 1    
    18    8   90 1    
    19    9   10 ar   
    20    9   14 ar   
    21   10   11 ar   
    22   10   91 1    
    23   11   12 ar   
    24   11   58 1    
    25   12   13 ar   
    26   12   92 1    
    27   13   14 ar   
    28   13   15 1    
    29   14   93 1    
    30   15   16 1    
    31   15   94 1    
    32   15   95 1    
    33   16   17 1    
    34   17   18 1    
    35   17   96 1    
    36   17   97 1    
    37   18   19 1    
    38   18   22 1    
    39   18   98 1    
    40   19   20 am   BACKBONE|DICT|INTERRES
    41   19   21 2    
    42   20   99 1    
    43   20  100 1    
    44   22   23 am   BACKBONE|DICT|INTERRES
    45   22  101 1    
    46   23   24 2    
    47   23   25 1    
    48   25   26 1    
    49   25   27 1    
    50   25  102 1    
    51   26  103 1    
    52   26  104 1    
    53   26  105 1    
    54   27   28 am   BACKBONE|DICT|INTERRES
    55   27  106 1    
    56   28   29 2    
    57   28   30 1    
    58   30   31 1    
    59   30   32 1    
    60   30  107 1    
    61   31  108 1    
    62   31  109 1    
    63   31  110 1    
    64   32   33 am   BACKBONE|DICT|INTERRES
    65   32  111 1    
    66   33   34 2    
    67   33   35 1    
    68   35   36 1    
    69   35   37 1    
    70   35  112 1    
    71   36  113 1    
    72   36  114 1    
    73   36  115 1    
    74   37   38 am   BACKBONE|DICT|INTERRES
    75   37  116 1    
    76   38   39 2    
    77   38   40 1    
    78   40   41 1    
    79   40   42 1    
    80   40  117 1    
    81   41  118 1    
    82   41  119 1    
    83   41  120 1    
    84   42   43 am   BACKBONE|DICT|INTERRES
    85   42  121 1    
    86   43   44 2    
    87   43   45 1    
    88   45   46 1    
    89   45   47 1    
    90   45  122 1    
    91   46  123 1    
    92   46  124 1    
    93   46  125 1    
    94   47   48 am   BACKBONE|DICT|INTERRES
    95   47  126 1    
    96   48   49 2    
    97   48   50 1    
    98   50   51 1    
    99   50   52 1    
   100   50  127 1    
   101   51  128 1    
   102   51  129 1    
   103   51  130 1    
   104   52   53 am   BACKBONE|DICT|INTERRES
   105   52  131 1    
   106   53   54 2    
   107   53   55 1    
   108   55   56 1    
   109   55   59 1    
   110   55  132 1    
   111   56   57 1    
   112   56  133 1    
   113   56  134 1    
   114   57   58 1    
   115   58  135 1    
   116   58  136 1    
   117   59   60 am   BACKBONE|DICT|INTERRES
   118   59  137 1    
   119   60   61 2    
   120   60   62 1    
   121   62   63 1    
   122   62   64 1    
   123   62  138 1    
   124   63  139 1    
   125   63  140 1    
   126   63  141 1    
   127   64   65 am   BACKBONE|DICT|INTERRES
   128   64  142 1    
   129   65   66 2    
   130   65   67 1    
   131   67   68 1    
   132   67   69 1    
   133   67  143 1    
   134   68  144 1    
   135   68  145 1    
   136   68  146 1    
   137   69   70 am   BACKBONE|DICT|INTERRES
   138   69  147 1    
   139   70   71 2    
   140   70   72 1    
   141   72   73 1    
   142   72   74 1    
   143   72  148 1    
   144   73  149 1    
   145   73  150 1    
   146   73  151 1    
   147   74   75 am   BACKBONE|DICT|INTERRES
   148   74  152 1    
   149   75   76 2    
   150   75   77 1    
   151   77   78 1    
   152   77   79 1    
   153   77  153 1    
   154   78  154 1    
   155   78  155 1    
   156   78  156 1    
   157   79   80 am   BACKBONE|DICT|INTERRES
   158   79  157 1    
   159   80   81 2    
@<TRIPOS>SUBSTRUCTURE
     1 UNK         1 GROUP             0       ****    0 ROOT    
