@<TRIPOS>MOLECULE
3R207
157   159    1
SMALL
USER_CHARGES


@<TRIPOS>ATOM
      1 CA        -49.7731  -31.9910    3.9704 C.3       0 UNK        -0.1975 
      2 C         -50.0502  -30.6724    4.6775 C.2       0 UNK         0.4852 
      3 O         -51.1359  -30.1115    4.5213 O.2       0 UNK        -0.5216 
      4 N         -49.0807  -30.1802    5.4591 N.am      1 UNK        -0.4461 
      5 CA        -49.1501  -28.9088    6.1866 C.3       1 UNK         0.0864 
      6 C6        -47.9989  -28.7691    7.2152 C.3       14 UNK        -0.0898 
      7 S7        -47.9969  -30.1050    8.4581 S.3       14 UNK        -0.2598 
      8 C8        -48.6485  -29.2583    9.9310 C.3       14 UNK         0.0286 
      9 C9        -50.1371  -28.9732    9.8174 C.ar      14 UNK        -0.0844 
     10 C10       -50.5901  -27.7226    9.3865 C.ar      14 UNK        -0.0881 
     11 C11       -51.9586  -27.4393    9.3405 C.ar      14 UNK        -0.0643 
     12 C12       -52.8755  -28.4271    9.7142 C.ar      14 UNK        -0.0930 
     13 C13       -52.4337  -29.6905   10.1195 C.ar      14 UNK        -0.0827 
     14 C14       -51.0636  -29.9565   10.1730 C.ar      14 UNK        -0.1249 
     15 C15       -53.4366  -30.7698   10.4920 C.3       14 UNK         0.0141 
     16 S16       -53.6793  -30.8495   12.2908 S.3       14 UNK        -0.2313 
     17 C17       -55.2102  -31.8374   12.3751 C.3       14 UNK        -0.0915 
     18 CA        -56.4981  -30.9724   12.2602 C.3       13 UNK         0.0968 
     19 C         -57.7855  -31.8450   12.2153 C.2       13 UNK         0.5732 
     20 N         -58.8479  -31.5037   12.9360 N.am      13 UNK        -0.7310 
     21 O         -57.8340  -32.8420   11.4985 O.2       13 UNK        -0.5035 
     22 N         -56.5477  -29.9228   13.2930 N.am      13 UNK        -0.4233 
     23 C         -56.3869  -28.6116   13.0781 C.2       13 UNK         0.4989 
     24 O         -56.2137  -28.1205   11.9602 O.2       13 UNK        -0.4996 
     25 CA        -56.4419  -27.6946   14.3175 C.3       12 UNK         0.0216 
     26 CB        -56.1830  -28.4304   15.6495 C.3       12 UNK        -0.1964 
     27 N         -55.4791  -26.5995   14.1935 N.am      12 UNK        -0.4276 
     28 C         -55.7352  -25.4038   13.6422 C.2       12 UNK         0.5020 
     29 O         -56.8402  -25.0823   13.1981 O.2       12 UNK        -0.5489 
     30 CA        -54.5699  -24.3898   13.5841 C.3       11 UNK         0.0294 
     31 CB        -55.0507  -22.9242   13.5351 C.3       11 UNK        -0.2019 
     32 N         -53.5692  -24.5677   14.6426 N.am      11 UNK        -0.4493 
     33 C         -53.7736  -24.5524   15.9692 C.2       11 UNK         0.4932 
     34 O         -54.8560  -24.2825   16.4926 O.2       11 UNK        -0.5029 
     35 CA        -52.5707  -24.9221   16.8611 C.3       10 UNK         0.0280 
     36 CB        -53.0038  -25.5019   18.2242 C.3       10 UNK        -0.1976 
     37 N         -51.5975  -25.8151   16.2173 N.am      10 UNK        -0.4242 
     38 C         -51.8126  -27.0396   15.7055 C.2       10 UNK         0.5072 
     39 O         -52.9231  -27.5716   15.6718 O.2       10 UNK        -0.5224 
     40 CA        -50.6109  -27.7963   15.0954 C.3       9 UNK         0.0343 
     41 CB        -50.9029  -28.1891   13.6364 C.3       9 UNK        -0.2003 
     42 N         -49.3518  -27.0460   15.1453 N.am      9 UNK        -0.4272 
     43 C         -48.5963  -26.8685   16.2389 C.2       9 UNK         0.4988 
     44 O         -48.8147  -27.4157   17.3196 O.2       9 UNK        -0.5108 
     45 CA        -47.4427  -25.8553   16.1245 C.3       8 UNK         0.0248 
     46 CB        -46.1499  -26.5373   15.6477 C.3       8 UNK        -0.2001 
     47 N         -47.7758  -24.7305   15.2417 N.am      8 UNK        -0.4140 
     48 C         -48.6961  -23.7952   15.5246 C.2       8 UNK         0.5028 
     49 O         -49.3110  -23.7461   16.5893 O.2       8 UNK        -0.5428 
     50 CA        -49.0341  -22.7833   14.4169 C.3       7 UNK         0.0264 
     51 CB        -48.0346  -21.6163   14.4200 C.3       7 UNK        -0.1988 
     52 N         -49.0757  -23.4082   13.0916 N.am      7 UNK        -0.4454 
     53 C         -50.0290  -24.2753   12.7073 C.2       7 UNK         0.5027 
     54 O         -50.9980  -24.5632   13.4105 O.2       7 UNK        -0.5083 
     55 CA        -49.8529  -24.9884   11.3465 C.3       6 UNK         0.0844 
     56 C56       -50.6822  -24.3142   10.2248 C.3       14 UNK        -0.0967 
     57 S57       -52.4293  -24.8426   10.2185 S.3       14 UNK        -0.2604 
     58 C58       -52.4536  -26.0755    8.8771 C.3       14 UNK         0.0134 
     59 N         -48.4462  -25.1486   10.9641 N.am      6 UNK        -0.4116 
     60 C         -47.5414  -25.8494   11.6656 C.2       5 UNK         0.5034 
     61 O         -47.8361  -26.5315   12.6461 O.2       5 UNK        -0.5045 
     62 CA        -46.0571  -25.7372   11.2585 C.3       5 UNK         0.0224 
     63 CB        -45.5914  -27.0131   10.5394 C.3       5 UNK        -0.1978 
     64 N         -45.7400  -24.5760   10.4203 N.am      5 UNK        -0.4737 
     65 C         -45.9534  -23.2919   10.7421 C.2       4 UNK         0.5027 
     66 O         -46.3704  -22.9287   11.8416 O.2       4 UNK        -0.5211 
     67 CA        -45.7508  -22.2479    9.6264 C.3       4 UNK         0.0297 
     68 CB        -44.3680  -21.5910    9.7591 C.3       4 UNK        -0.1993 
     69 N         -45.9178  -22.7613    8.2563 N.am      4 UNK        -0.4486 
     70 C         -46.9919  -23.4131    7.7866 C.2       3 UNK         0.4961 
     71 O         -47.9755  -23.6992    8.4762 O.2       3 UNK        -0.5105 
     72 CA        -46.9391  -23.8649    6.3211 C.3       3 UNK         0.0299 
     73 CB        -45.7889  -24.8628    6.0778 C.3       3 UNK        -0.1972 
     74 N         -48.2102  -24.5035    5.9981 N.am      3 UNK        -0.4305 
     75 C         -48.7523  -24.6389    4.7839 C.2       2 UNK         0.5006 
     76 O         -48.2470  -24.1928    3.7517 O.2       2 UNK        -0.5106 
     77 CA        -50.0732  -25.4356    4.7334 C.3       2 UNK         0.0296 
     78 CB        -50.5967  -25.6521    3.2968 C.3       2 UNK        -0.2002 
     79 N         -49.9787  -26.7148    5.4559 N.am      2 UNK        -0.4032 
     80 C         -49.1214  -27.7187    5.2061 C.2       1 UNK         0.5000 
     81 O         -48.3034  -27.7232    4.2818 O.2       1 UNK        -0.5238 
     82 H82       -50.5107  -32.7370    4.2650 H         1 UNK         0.0889 
     83 H83       -48.7834  -32.3810    4.2078 H         1 UNK         0.0889 
     84 H84       -49.8349  -31.8576    2.8907 H         1 UNK         0.0889 
     85 H85       -48.2078  -30.6801    5.5460 H         1 UNK         0.3028 
     86 H86       -50.0996  -28.8935    6.7265 H         1 UNK         0.0864 
     87 H87       -47.0318  -28.7878    6.7084 H         1 UNK         0.0720 
     88 H88       -48.0462  -27.8049    7.7239 H         1 UNK         0.0720 
     89 H89       -48.0979  -28.3353   10.1028 H         1 UNK         0.0814 
     90 H90       -48.4636  -29.8831   10.8062 H         1 UNK         0.0814 
     91 H91       -49.8757  -26.9620    9.1080 H         1 UNK         0.1469 
     92 H92       -53.9358  -28.2141    9.6874 H         1 UNK         0.1381 
     93 H93       -50.7181  -30.9277   10.5004 H         1 UNK         0.1206 
     94 H94       -54.3908  -30.5736   10.0010 H         1 UNK         0.0813 
     95 H95       -53.0965  -31.7406   10.1285 H         1 UNK         0.0813 
     96 H96       -55.1748  -32.5941   11.5892 H         1 UNK         0.0638 
     97 H97       -55.2063  -32.3820   13.3206 H         1 UNK         0.0638 
     98 H98       -56.4788  -30.4996   11.2774 H         1 UNK         0.0568 
     99 H99       -58.8469  -30.6672   13.4964 H         1 UNK         0.3450 
    100 H100      -59.6757  -32.0770   12.8894 H         1 UNK         0.3450 
    101 H101      -56.6819  -30.2479   14.2390 H         1 UNK         0.2987 
    102 H102      -57.4517  -27.2817   14.3611 H         1 UNK         0.0766 
    103 H103      -56.1392  -27.7279   16.4825 H         1 UNK         0.0798 
    104 H104      -55.2395  -28.9782   15.6349 H         1 UNK         0.0798 
    105 H105      -56.9798  -29.1387   15.8789 H         1 UNK         0.0798 
    106 H106      -54.5433  -26.7880   14.5389 H         1 UNK         0.3198 
    107 H107      -54.0496  -24.5952   12.6488 H         1 UNK         0.0843 
    108 H108      -55.6319  -22.6604   14.4191 H         1 UNK         0.0831 
    109 H109      -55.6836  -22.7483   12.6646 H         1 UNK         0.0831 
    110 H110      -54.2099  -22.2341   13.4658 H         1 UNK         0.0831 
    111 H111      -52.6219  -24.7465   14.3103 H         1 UNK         0.3133 
    112 H112      -52.0418  -23.9877   17.0522 H         1 UNK         0.0566 
    113 H113      -52.1407  -25.7412   18.8454 H         1 UNK         0.0814 
    114 H114      -53.6125  -24.7880   18.7805 H         1 UNK         0.0814 
    115 H115      -53.5948  -26.4108   18.1054 H         1 UNK         0.0814 
    116 H116      -50.6588  -25.4399   16.1618 H         1 UNK         0.3091 
    117 H117      -50.4816  -28.7143   15.6720 H         1 UNK         0.0702 
    118 H118      -51.7211  -28.9079   13.5852 H         1 UNK         0.0785 
    119 H119      -51.2017  -27.3290   13.0389 H         1 UNK         0.0785 
    120 H120      -50.0385  -28.6500   13.1576 H         1 UNK         0.0785 
    121 H121      -49.0419  -26.6215   14.2773 H         1 UNK         0.2998 
    122 H122      -47.2598  -25.4512   17.1226 H         1 UNK         0.0697 
    123 H123      -46.2638  -26.9932   14.6644 H         1 UNK         0.0825 
    124 H124      -45.8553  -27.3298   16.3370 H         1 UNK         0.0825 
    125 H125      -45.3221  -25.8299   15.5971 H         1 UNK         0.0825 
    126 H126      -47.3383  -24.7187   14.3319 H         1 UNK         0.3029 
    127 H127      -50.0262  -22.3782   14.6298 H         1 UNK         0.0897 
    128 H128      -47.0121  -21.9553   14.2506 H         1 UNK         0.0792 
    129 H129      -48.0489  -21.0961   15.3787 H         1 UNK         0.0792 
    130 H130      -48.2765  -20.8836   13.6499 H         1 UNK         0.0792 
    131 H131      -48.2823  -23.2312   12.4824 H         1 UNK         0.3086 
    132 H132      -50.2321  -26.0008   11.4838 H         1 UNK         0.0583 
    133 H133      -50.6364  -23.2255   10.2958 H         1 UNK         0.1020 
    134 H134      -50.2641  -24.5494    9.2470 H         1 UNK         0.1020 
    135 H135      -53.4783  -26.1607    8.5119 H         1 UNK         0.0694 
    136 H136      -51.8659  -25.7226    8.0290 H         1 UNK         0.0694 
    137 H137      -48.1342  -24.6097   10.1604 H         1 UNK         0.2989 
    138 H138      -45.4866  -25.6380   12.1845 H         1 UNK         0.1055 
    139 H139      -45.8148  -27.9021   11.1314 H         1 UNK         0.0806 
    140 H140      -44.5137  -27.0028   10.3751 H         1 UNK         0.0806 
    141 H141      -46.0753  -27.1322    9.5694 H         1 UNK         0.0806 
    142 H142      -45.3975  -24.7705    9.4909 H         1 UNK         0.3061 
    143 H143      -46.5101  -21.4771    9.7739 H         1 UNK         0.0734 
    144 H144      -44.2483  -20.7676    9.0547 H         1 UNK         0.0832 
    145 H145      -44.2257  -21.1797   10.7597 H         1 UNK         0.0832 
    146 H146      -43.5626  -22.3054    9.5838 H         1 UNK         0.0832 
    147 H147      -45.1564  -22.5777    7.6181 H         1 UNK         0.3156 
    148 H148      -46.8057  -22.9799    5.6957 H         1 UNK         0.0589 
    149 H149      -45.7770  -25.2079    5.0436 H         1 UNK         0.0808 
    150 H150      -44.8160  -24.4103    6.2718 H         1 UNK         0.0808 
    151 H151      -45.8771  -25.7422    6.7174 H         1 UNK         0.0808 
    152 H152      -48.7243  -24.8091    6.8142 H         1 UNK         0.3098 
    153 H153      -50.8132  -24.8333    5.2628 H         1 UNK         0.0720 
    154 H154      -50.7692  -24.6983    2.7967 H         1 UNK         0.0791 
    155 H155      -51.5428  -26.1933    3.2972 H         1 UNK         0.0791 
    156 H156      -49.8897  -26.2149    2.6863 H         1 UNK         0.0791 
    157 H157      -50.6225  -26.8246    6.2259 H         1 UNK         0.3028 
@<TRIPOS>BOND
     1    1    2 1    
     2    1   82 1    
     3    1   83 1    
     4    1   84 1    
     5    2    3 2    
     6    2    4 am   BACKBONE|DICT|INTERRES
     7    4    5 1    
     8    4   85 1    
     9    5    6 1    
    10    5   80 1    
    11    5   86 1    
    12    6    7 1    
    13    6   87 1    
    14    6   88 1    
    15    7    8 1    
    16    8    9 1    
    17    8   89 1    
    18    8   90 1    
    19    9   10 ar   
    20    9   14 ar   
    21   10   11 ar   
    22   10   91 1    
    23   11   12 ar   
    24   11   58 1    
    25   12   13 ar   
    26   12   92 1    
    27   13   14 ar   
    28   13   15 1    
    29   14   93 1    
    30   15   16 1    
    31   15   94 1    
    32   15   95 1    
    33   16   17 1    
    34   17   18 1    
    35   17   96 1    
    36   17   97 1    
    37   18   19 1    
    38   18   22 1    
    39   18   98 1    
    40   19   20 am   BACKBONE|DICT|INTERRES
    41   19   21 2    
    42   20   99 1    
    43   20  100 1    
    44   22   23 am   BACKBONE|DICT|INTERRES
    45   22  101 1    
    46   23   24 2    
    47   23   25 1    
    48   25   26 1    
    49   25   27 1    
    50   25  102 1    
    51   26  103 1    
    52   26  104 1    
    53   26  105 1    
    54   27   28 am   BACKBONE|DICT|INTERRES
    55   27  106 1    
    56   28   29 2    
    57   28   30 1    
    58   30   31 1    
    59   30   32 1    
    60   30  107 1    
    61   31  108 1    
    62   31  109 1    
    63   31  110 1    
    64   32   33 am   BACKBONE|DICT|INTERRES
    65   32  111 1    
    66   33   34 2    
    67   33   35 1    
    68   35   36 1    
    69   35   37 1    
    70   35  112 1    
    71   36  113 1    
    72   36  114 1    
    73   36  115 1    
    74   37   38 am   BACKBONE|DICT|INTERRES
    75   37  116 1    
    76   38   39 2    
    77   38   40 1    
    78   40   41 1    
    79   40   42 1    
    80   40  117 1    
    81   41  118 1    
    82   41  119 1    
    83   41  120 1    
    84   42   43 am   BACKBONE|DICT|INTERRES
    85   42  121 1    
    86   43   44 2    
    87   43   45 1    
    88   45   46 1    
    89   45   47 1    
    90   45  122 1    
    91   46  123 1    
    92   46  124 1    
    93   46  125 1    
    94   47   48 am   BACKBONE|DICT|INTERRES
    95   47  126 1    
    96   48   49 2    
    97   48   50 1    
    98   50   51 1    
    99   50   52 1    
   100   50  127 1    
   101   51  128 1    
   102   51  129 1    
   103   51  130 1    
   104   52   53 am   BACKBONE|DICT|INTERRES
   105   52  131 1    
   106   53   54 2    
   107   53   55 1    
   108   55   56 1    
   109   55   59 1    
   110   55  132 1    
   111   56   57 1    
   112   56  133 1    
   113   56  134 1    
   114   57   58 1    
   115   58  135 1    
   116   58  136 1    
   117   59   60 am   BACKBONE|DICT|INTERRES
   118   59  137 1    
   119   60   61 2    
   120   60   62 1    
   121   62   63 1    
   122   62   64 1    
   123   62  138 1    
   124   63  139 1    
   125   63  140 1    
   126   63  141 1    
   127   64   65 am   BACKBONE|DICT|INTERRES
   128   64  142 1    
   129   65   66 2    
   130   65   67 1    
   131   67   68 1    
   132   67   69 1    
   133   67  143 1    
   134   68  144 1    
   135   68  145 1    
   136   68  146 1    
   137   69   70 am   BACKBONE|DICT|INTERRES
   138   69  147 1    
   139   70   71 2    
   140   70   72 1    
   141   72   73 1    
   142   72   74 1    
   143   72  148 1    
   144   73  149 1    
   145   73  150 1    
   146   73  151 1    
   147   74   75 am   BACKBONE|DICT|INTERRES
   148   74  152 1    
   149   75   76 2    
   150   75   77 1    
   151   77   78 1    
   152   77   79 1    
   153   77  153 1    
   154   78  154 1    
   155   78  155 1    
   156   78  156 1    
   157   79   80 am   BACKBONE|DICT|INTERRES
   158   79  157 1    
   159   80   81 2    
@<TRIPOS>SUBSTRUCTURE
     1 UNK         1 GROUP             0       ****    0 ROOT    
