@<TRIPOS>MOLECULE
3R207
157   159    1
SMALL
USER_CHARGES


@<TRIPOS>ATOM
      1 CA        -45.4754  -29.3855    5.3769 C.3       0 UNK        -0.1975 
      2 C         -46.3126  -29.8500    6.5674 C.2       0 UNK         0.4852 
      3 O         -45.8035  -30.5994    7.3990 O.2       0 UNK        -0.5216 
      4 N         -47.5909  -29.4621    6.6940 N.am      1 UNK        -0.4461 
      5 CA        -48.3522  -28.5401    5.8394 C.3       1 UNK         0.0864 
      6 C6        -49.8524  -28.4890    6.2272 C.3       14 UNK        -0.0898 
      7 S7        -50.6115  -30.1459    6.2881 S.3       14 UNK        -0.2598 
      8 C8        -52.3587  -29.7383    6.6037 C.3       14 UNK         0.0286 
      9 C9        -52.5777  -29.0206    7.9311 C.ar      14 UNK        -0.0844 
     10 C10       -53.2049  -27.7707    7.9565 C.ar      14 UNK        -0.0881 
     11 C11       -53.4564  -27.1186    9.1679 C.ar      14 UNK        -0.0643 
     12 C12       -53.0893  -27.7462   10.3639 C.ar      14 UNK        -0.0930 
     13 C13       -52.4130  -28.9675   10.3519 C.ar      14 UNK        -0.0827 
     14 C14       -52.1734  -29.6086    9.1340 C.ar      14 UNK        -0.1249 
     15 C15       -51.8932  -29.5619   11.6504 C.3       14 UNK         0.0141 
     16 S16       -52.9399  -30.9249   12.2491 S.3       14 UNK        -0.2313 
     17 C17       -53.4483  -30.3404   13.9038 C.3       14 UNK        -0.0915 
     18 CA        -54.9647  -30.0307   13.9765 C.3       13 UNK         0.0968 
     19 C         -55.4478  -29.8015   15.4390 C.2       13 UNK         0.5732 
     20 N         -56.1589  -28.7255   15.7598 N.am      13 UNK        -0.7310 
     21 O         -55.2079  -30.6434   16.3015 O.2       13 UNK        -0.5035 
     22 N         -55.3290  -28.9377   13.0658 N.am      13 UNK        -0.4233 
     23 C         -56.4179  -28.9246   12.2873 C.2       13 UNK         0.4989 
     24 O         -57.2019  -29.8712   12.1937 O.2       13 UNK        -0.4996 
     25 CA        -56.6825  -27.6378   11.4753 C.3       12 UNK         0.0216 
     26 CB        -58.1741  -27.4557   11.1229 C.3       12 UNK        -0.1964 
     27 N         -56.1567  -26.4150   12.0979 N.am      12 UNK        -0.4276 
     28 C         -56.4298  -25.9509   13.3250 C.2       12 UNK         0.5020 
     29 O         -57.1734  -26.5082   14.1353 O.2       12 UNK        -0.5489 
     30 CA        -55.7092  -24.6572   13.7283 C.3       11 UNK         0.0294 
     31 CB        -56.7209  -23.5795   14.1529 C.3       11 UNK        -0.2019 
     32 N         -54.7340  -24.8527   14.8028 N.am      11 UNK        -0.4493 
     33 C         -53.7526  -25.7663   14.8597 C.2       11 UNK         0.4932 
     34 O         -53.5747  -26.6593   14.0248 O.2       11 UNK        -0.5029 
     35 CA        -52.7990  -25.5876   16.0549 C.3       10 UNK         0.0280 
     36 CB        -53.5071  -25.8360   17.4057 C.3       10 UNK        -0.1976 
     37 N         -51.5502  -26.3485   15.9260 N.am      10 UNK        -0.4242 
     38 C         -51.3329  -27.6512   16.1555 C.2       10 UNK         0.5072 
     39 O         -52.1888  -28.4357   16.5654 O.2       10 UNK        -0.5224 
     40 CA        -49.9030  -28.1780   15.9309 C.3       9 UNK         0.0343 
     41 CB        -49.8941  -29.4324   15.0392 C.3       9 UNK        -0.2003 
     42 N         -48.9890  -27.1806   15.3598 N.am      9 UNK        -0.4272 
     43 C         -48.1105  -26.4623   16.0732 C.2       9 UNK         0.4988 
     44 O         -48.0537  -26.4773   17.3034 O.2       9 UNK        -0.5108 
     45 CA        -47.0960  -25.6120   15.2898 C.3       8 UNK         0.0248 
     46 CB        -46.0649  -26.5105   14.5869 C.3       8 UNK        -0.2001 
     47 N         -47.7036  -24.7029   14.3161 N.am      8 UNK        -0.4140 
     48 C         -48.4066  -23.6063   14.6347 C.2       8 UNK         0.5028 
     49 O         -48.6662  -23.2683   15.7900 O.2       8 UNK        -0.5428 
     50 CA        -48.9049  -22.7346   13.4671 C.3       7 UNK         0.0264 
     51 CB        -47.7757  -21.8525   12.9098 C.3       7 UNK        -0.1988 
     52 N         -49.4855  -23.5331   12.3878 N.am      7 UNK        -0.4454 
     53 C         -50.6334  -24.2151   12.4989 C.2       7 UNK         0.5027 
     54 O         -51.3648  -24.1428   13.4848 O.2       7 UNK        -0.5083 
     55 CA        -50.9987  -25.1694   11.3444 C.3       6 UNK         0.0844 
     56 C56       -51.8239  -24.4716   10.2280 C.3       14 UNK        -0.0967 
     57 S57       -53.6225  -24.6210   10.4993 S.3       14 UNK        -0.2604 
     58 C58       -54.1282  -25.7449    9.1478 C.3       14 UNK         0.0134 
     59 N         -49.8161  -25.8435   10.8054 N.am      6 UNK        -0.4116 
     60 C         -49.1007  -26.7729   11.4523 C.2       5 UNK         0.5034 
     61 O         -49.3798  -27.2027   12.5696 O.2       5 UNK        -0.5045 
     62 CA        -47.8279  -27.2780   10.7541 C.3       5 UNK         0.0224 
     63 CB        -48.1363  -28.5121    9.8991 C.3       5 UNK        -0.1978 
     64 N         -47.1769  -26.2440    9.9406 N.am      5 UNK        -0.4737 
     65 C         -46.5939  -25.1607   10.4753 C.2       4 UNK         0.5027 
     66 O         -46.5176  -24.9594   11.6870 O.2       4 UNK        -0.5211 
     67 CA        -46.0636  -24.0961    9.5049 C.3       4 UNK         0.0297 
     68 CB        -44.7052  -24.5217    8.9265 C.3       4 UNK        -0.1993 
     69 N         -46.9860  -23.7998    8.4080 N.am      4 UNK        -0.4486 
     70 C         -48.2529  -23.3812    8.5162 C.2       3 UNK         0.4961 
     71 O         -48.8105  -23.1910    9.5962 O.2       3 UNK        -0.5105 
     72 CA        -49.0624  -23.1700    7.2188 C.3       3 UNK         0.0299 
     73 CB        -49.1064  -21.6781    6.8369 C.3       3 UNK        -0.1972 
     74 N         -48.6507  -24.0097    6.0803 N.am      3 UNK        -0.4305 
     75 C         -47.4882  -24.0033    5.4093 C.2       2 UNK         0.5006 
     76 O         -46.5830  -23.1964    5.6259 O.2       2 UNK        -0.5106 
     77 CA        -47.2739  -25.1273    4.3745 C.3       2 UNK         0.0296 
     78 CB        -45.7782  -25.3507    4.0611 C.3       2 UNK        -0.2002 
     79 N         -47.8985  -26.4142    4.7209 N.am      2 UNK        -0.4032 
     80 C         -47.7492  -27.1204    5.8541 C.2       1 UNK         0.5000 
     81 O         -47.1811  -26.7062    6.8704 O.2       1 UNK        -0.5238 
     82 H82       -46.0493  -29.3730    4.4517 H         1 UNK         0.0889 
     83 H83       -44.6314  -30.0579    5.2246 H         1 UNK         0.0889 
     84 H84       -45.0763  -28.3880    5.5589 H         1 UNK         0.0889 
     85 H85       -48.1126  -29.8174    7.4810 H         1 UNK         0.3028 
     86 H86       -48.2903  -28.9259    4.8201 H         1 UNK         0.0864 
     87 H87       -49.9945  -28.0066    7.1950 H         1 UNK         0.0720 
     88 H88       -50.4115  -27.8897    5.5060 H         1 UNK         0.0720 
     89 H89       -52.9378  -30.6626    6.6076 H         1 UNK         0.0814 
     90 H90       -52.7375  -29.1450    5.7701 H         1 UNK         0.0814 
     91 H91       -53.5064  -27.3048    7.0281 H         1 UNK         0.1469 
     92 H92       -53.2965  -27.2714   11.3117 H         1 UNK         0.1381 
     93 H93       -51.6655  -30.5634    9.1215 H         1 UNK         0.1206 
     94 H94       -51.8088  -28.7736   12.3988 H         1 UNK         0.0813 
     95 H95       -50.8804  -29.9372   11.4990 H         1 UNK         0.0813 
     96 H96       -52.8714  -29.4642   14.1974 H         1 UNK         0.0638 
     97 H97       -53.1810  -31.1253   14.6133 H         1 UNK         0.0638 
     98 H98       -55.4806  -30.9388   13.6599 H         1 UNK         0.0568 
     99 H99       -56.4690  -28.6162   16.7111 H         1 UNK         0.3450 
    100 H100      -56.4173  -28.0300   15.0662 H         1 UNK         0.3450 
    101 H101      -54.7604  -28.1017   13.1482 H         1 UNK         0.2987 
    102 H102      -56.1377  -27.7660   10.5394 H         1 UNK         0.0766 
    103 H103      -58.3342  -26.5577   10.5263 H         1 UNK         0.0798 
    104 H104      -58.7923  -27.3785   12.0181 H         1 UNK         0.0798 
    105 H105      -58.5476  -28.2987   10.5404 H         1 UNK         0.0798 
    106 H106      -55.4902  -25.8944   11.5419 H         1 UNK         0.3198 
    107 H107      -55.1607  -24.2715   12.8694 H         1 UNK         0.0843 
    108 H108      -57.4580  -23.4062   13.3675 H         1 UNK         0.0831 
    109 H109      -57.2667  -23.8701   15.0517 H         1 UNK         0.0831 
    110 H110      -56.2304  -22.6260   14.3496 H         1 UNK         0.0831 
    111 H111      -54.7843  -24.1828   15.5558 H         1 UNK         0.3133 
    112 H112      -52.4821  -24.5436   16.0434 H         1 UNK         0.0566 
    113 H113      -52.8067  -25.7826   18.2393 H         1 UNK         0.0814 
    114 H114      -54.2807  -25.0901   17.5893 H         1 UNK         0.0814 
    115 H115      -53.9939  -26.8115   17.4361 H         1 UNK         0.0814 
    116 H116      -50.7773  -25.8227   15.5425 H         1 UNK         0.3091 
    117 H117      -49.5381  -28.4851   16.9131 H         1 UNK         0.0702 
    118 H118      -50.5286  -30.2175   15.4524 H         1 UNK         0.0785 
    119 H119      -48.8894  -29.8447   14.9475 H         1 UNK         0.0785 
    120 H120      -50.2567  -29.2154   14.0369 H         1 UNK         0.0785 
    121 H121      -49.0019  -27.1004   14.3435 H         1 UNK         0.2998 
    122 H122      -46.5556  -24.9997   16.0151 H         1 UNK         0.0697 
    123 H123      -46.5265  -27.1354   13.8225 H         1 UNK         0.0825 
    124 H124      -45.5746  -27.1750   15.2996 H         1 UNK         0.0825 
    125 H125      -45.2853  -25.9185   14.1069 H         1 UNK         0.0825 
    126 H126      -47.4782  -24.8664   13.3375 H         1 UNK         0.3029 
    127 H127      -49.6851  -22.0761   13.8554 H         1 UNK         0.0897 
    128 H128      -48.1404  -21.1955   12.1199 H         1 UNK         0.0792 
    129 H129      -47.3556  -21.2188   13.6918 H         1 UNK         0.0792 
    130 H130      -46.9593  -22.4461   12.4982 H         1 UNK         0.0792 
    131 H131      -48.9777  -23.5748   11.5084 H         1 UNK         0.3086 
    132 H132      -51.6055  -25.9520   11.7990 H         1 UNK         0.0583 
    133 H133      -51.5640  -23.4152   10.1314 H         1 UNK         0.1020 
    134 H134      -51.5947  -24.9079    9.2546 H         1 UNK         0.1020 
    135 H135      -55.2089  -25.8827    9.1893 H         1 UNK         0.0694 
    136 H136      -53.9223  -25.2428    8.2010 H         1 UNK         0.0694 
    137 H137      -49.4653  -25.5039    9.9228 H         1 UNK         0.2989 
    138 H138      -47.1269  -27.5810   11.5344 H         1 UNK         0.1055 
    139 H139      -48.8382  -28.2792    9.1011 H         1 UNK         0.0806 
    140 H140      -48.5809  -29.3045   10.5028 H         1 UNK         0.0806 
    141 H141      -47.2274  -28.9160    9.4539 H         1 UNK         0.0806 
    142 H142      -47.1884  -26.3525    8.9297 H         1 UNK         0.3061 
    143 H143      -45.9237  -23.1734   10.0716 H         1 UNK         0.0734 
    144 H144      -44.2701  -23.7321    8.3137 H         1 UNK         0.0832 
    145 H145      -43.9932  -24.7432    9.7228 H         1 UNK         0.0832 
    146 H146      -44.7932  -25.4159    8.3072 H         1 UNK         0.0832 
    147 H147      -46.6157  -23.8801    7.4669 H         1 UNK         0.3156 
    148 H148      -50.0845  -23.4754    7.4482 H         1 UNK         0.0589 
    149 H149      -48.1141  -21.2800    6.6234 H         1 UNK         0.0808 
    150 H150      -49.7315  -21.5109    5.9599 H         1 UNK         0.0808 
    151 H151      -49.5233  -21.0825    7.6502 H         1 UNK         0.0808 
    152 H152      -49.3082  -24.7349    5.8312 H         1 UNK         0.3098 
    153 H153      -47.7571  -24.7856    3.4579 H         1 UNK         0.0720 
    154 H154      -45.3147  -24.4416    3.6756 H         1 UNK         0.0791 
    155 H155      -45.6412  -26.1245    3.3058 H         1 UNK         0.0791 
    156 H156      -45.2219  -25.6490    4.9508 H         1 UNK         0.0791 
    157 H157      -48.4297  -26.8373    3.9715 H         1 UNK         0.3028 
@<TRIPOS>BOND
     1    1    2 1    
     2    1   82 1    
     3    1   83 1    
     4    1   84 1    
     5    2    3 2    
     6    2    4 am   BACKBONE|DICT|INTERRES
     7    4    5 1    
     8    4   85 1    
     9    5    6 1    
    10    5   80 1    
    11    5   86 1    
    12    6    7 1    
    13    6   87 1    
    14    6   88 1    
    15    7    8 1    
    16    8    9 1    
    17    8   89 1    
    18    8   90 1    
    19    9   10 ar   
    20    9   14 ar   
    21   10   11 ar   
    22   10   91 1    
    23   11   12 ar   
    24   11   58 1    
    25   12   13 ar   
    26   12   92 1    
    27   13   14 ar   
    28   13   15 1    
    29   14   93 1    
    30   15   16 1    
    31   15   94 1    
    32   15   95 1    
    33   16   17 1    
    34   17   18 1    
    35   17   96 1    
    36   17   97 1    
    37   18   19 1    
    38   18   22 1    
    39   18   98 1    
    40   19   20 am   BACKBONE|DICT|INTERRES
    41   19   21 2    
    42   20   99 1    
    43   20  100 1    
    44   22   23 am   BACKBONE|DICT|INTERRES
    45   22  101 1    
    46   23   24 2    
    47   23   25 1    
    48   25   26 1    
    49   25   27 1    
    50   25  102 1    
    51   26  103 1    
    52   26  104 1    
    53   26  105 1    
    54   27   28 am   BACKBONE|DICT|INTERRES
    55   27  106 1    
    56   28   29 2    
    57   28   30 1    
    58   30   31 1    
    59   30   32 1    
    60   30  107 1    
    61   31  108 1    
    62   31  109 1    
    63   31  110 1    
    64   32   33 am   BACKBONE|DICT|INTERRES
    65   32  111 1    
    66   33   34 2    
    67   33   35 1    
    68   35   36 1    
    69   35   37 1    
    70   35  112 1    
    71   36  113 1    
    72   36  114 1    
    73   36  115 1    
    74   37   38 am   BACKBONE|DICT|INTERRES
    75   37  116 1    
    76   38   39 2    
    77   38   40 1    
    78   40   41 1    
    79   40   42 1    
    80   40  117 1    
    81   41  118 1    
    82   41  119 1    
    83   41  120 1    
    84   42   43 am   BACKBONE|DICT|INTERRES
    85   42  121 1    
    86   43   44 2    
    87   43   45 1    
    88   45   46 1    
    89   45   47 1    
    90   45  122 1    
    91   46  123 1    
    92   46  124 1    
    93   46  125 1    
    94   47   48 am   BACKBONE|DICT|INTERRES
    95   47  126 1    
    96   48   49 2    
    97   48   50 1    
    98   50   51 1    
    99   50   52 1    
   100   50  127 1    
   101   51  128 1    
   102   51  129 1    
   103   51  130 1    
   104   52   53 am   BACKBONE|DICT|INTERRES
   105   52  131 1    
   106   53   54 2    
   107   53   55 1    
   108   55   56 1    
   109   55   59 1    
   110   55  132 1    
   111   56   57 1    
   112   56  133 1    
   113   56  134 1    
   114   57   58 1    
   115   58  135 1    
   116   58  136 1    
   117   59   60 am   BACKBONE|DICT|INTERRES
   118   59  137 1    
   119   60   61 2    
   120   60   62 1    
   121   62   63 1    
   122   62   64 1    
   123   62  138 1    
   124   63  139 1    
   125   63  140 1    
   126   63  141 1    
   127   64   65 am   BACKBONE|DICT|INTERRES
   128   64  142 1    
   129   65   66 2    
   130   65   67 1    
   131   67   68 1    
   132   67   69 1    
   133   67  143 1    
   134   68  144 1    
   135   68  145 1    
   136   68  146 1    
   137   69   70 am   BACKBONE|DICT|INTERRES
   138   69  147 1    
   139   70   71 2    
   140   70   72 1    
   141   72   73 1    
   142   72   74 1    
   143   72  148 1    
   144   73  149 1    
   145   73  150 1    
   146   73  151 1    
   147   74   75 am   BACKBONE|DICT|INTERRES
   148   74  152 1    
   149   75   76 2    
   150   75   77 1    
   151   77   78 1    
   152   77   79 1    
   153   77  153 1    
   154   78  154 1    
   155   78  155 1    
   156   78  156 1    
   157   79   80 am   BACKBONE|DICT|INTERRES
   158   79  157 1    
   159   80   81 2    
@<TRIPOS>SUBSTRUCTURE
     1 UNK         1 GROUP             0       ****    0 ROOT    
