@<TRIPOS>MOLECULE
3R207
157   159    1
SMALL
USER_CHARGES


@<TRIPOS>ATOM
      1 CA        -49.2033  -27.7231   10.5199 C.3       0 UNK        -0.1975 
      2 C         -49.1592  -27.2182    9.0855 C.2       0 UNK         0.4852 
      3 O         -48.7430  -26.0827    8.8485 O.2       0 UNK        -0.5216 
      4 N         -49.5595  -28.0749    8.1341 N.am      1 UNK        -0.4461 
      5 CA        -49.6260  -27.8196    6.6867 C.3       1 UNK         0.0864 
      6 C6        -50.7379  -26.8052    6.2974 C.3       14 UNK        -0.0898 
      7 S7        -52.3963  -27.5122    6.5651 S.3       14 UNK        -0.2598 
      8 C8        -53.3156  -26.0912    7.2423 C.3       14 UNK         0.0286 
      9 C9        -53.0092  -25.8013    8.7083 C.ar      14 UNK        -0.0844 
     10 C10       -52.8032  -24.4850    9.1284 C.ar      14 UNK        -0.0881 
     11 C11       -52.6044  -24.1917   10.4800 C.ar      14 UNK        -0.0643 
     12 C12       -52.5796  -25.2326   11.4140 C.ar      14 UNK        -0.0930 
     13 C13       -52.7782  -26.5587   11.0133 C.ar      14 UNK        -0.0827 
     14 C14       -53.0075  -26.8286    9.6574 C.ar      14 UNK        -0.1249 
     15 C15       -52.8013  -27.6524   12.0824 C.3       14 UNK         0.0141 
     16 S16       -52.5227  -29.3528   11.4701 S.3       14 UNK        -0.2313 
     17 C17       -52.6489  -30.3155   13.0153 C.3       14 UNK        -0.0915 
     18 CA        -54.0432  -30.9620   13.2316 C.3       13 UNK         0.0968 
     19 C         -54.0680  -31.8887   14.4828 C.2       13 UNK         0.5732 
     20 N         -55.0560  -31.8075   15.3678 N.am      13 UNK        -0.7310 
     21 O         -53.1767  -32.7178   14.6504 O.2       13 UNK        -0.5035 
     22 N         -55.1211  -29.9607   13.2297 N.am      13 UNK        -0.4233 
     23 C         -56.3124  -30.1410   12.6461 C.2       13 UNK         0.4989 
     24 O         -56.6130  -31.1546   12.0115 O.2       13 UNK        -0.4996 
     25 CA        -57.3441  -29.0024   12.7920 C.3       12 UNK         0.0216 
     26 CB        -58.7733  -29.4468   12.4140 C.3       12 UNK        -0.1964 
     27 N         -57.3597  -28.3573   14.1107 N.am      12 UNK        -0.4276 
     28 C         -57.4911  -28.9325   15.3141 C.2       12 UNK         0.5020 
     29 O         -57.5160  -30.1517   15.4934 O.2       12 UNK        -0.5489 
     30 CA        -57.5868  -27.9710   16.5183 C.3       11 UNK         0.0294 
     31 CB        -57.7979  -28.7135   17.8512 C.3       11 UNK        -0.2019 
     32 N         -56.3988  -27.1233   16.6356 N.am      11 UNK        -0.4493 
     33 C         -56.0846  -26.0910   15.8409 C.2       11 UNK         0.4932 
     34 O         -56.8289  -25.6657   14.9563 O.2       11 UNK        -0.5029 
     35 CA        -54.6956  -25.4523   16.0268 C.3       10 UNK         0.0280 
     36 CB        -54.8114  -24.1370   16.8134 C.3       10 UNK        -0.1976 
     37 N         -53.7068  -26.3212   16.6780 N.am      10 UNK        -0.4242 
     38 C         -53.2725  -27.4954   16.1988 C.2       10 UNK         0.5072 
     39 O         -53.7080  -28.0237   15.1742 O.2       10 UNK        -0.5224 
     40 CA        -52.2117  -28.2254   17.0419 C.3       9 UNK         0.0343 
     41 CB        -52.8211  -29.4776   17.6936 C.3       9 UNK        -0.2003 
     42 N         -51.0245  -28.6121   16.2730 N.am      9 UNK        -0.4272 
     43 C         -50.2239  -27.7684   15.6074 C.2       9 UNK         0.4988 
     44 O         -50.4099  -26.5504   15.5429 O.2       9 UNK        -0.5108 
     45 CA        -48.9967  -28.3864   14.9187 C.3       8 UNK         0.0248 
     46 CB        -49.3990  -29.3945   13.8249 C.3       8 UNK        -0.2001 
     47 N         -48.1928  -27.3084   14.3481 N.am      8 UNK        -0.4140 
     48 C         -46.9359  -27.3933   13.9015 C.2       8 UNK         0.5028 
     49 O         -46.2796  -28.4365   13.9156 O.2       8 UNK        -0.5428 
     50 CA        -46.3141  -26.1007   13.3309 C.3       7 UNK         0.0264 
     51 CB        -44.9539  -26.3457   12.6496 C.3       7 UNK        -0.1988 
     52 N         -47.1950  -25.4250   12.3737 N.am      7 UNK        -0.4454 
     53 C         -48.2249  -24.6247   12.6848 C.2       7 UNK         0.5027 
     54 O         -48.5738  -24.4055   13.8454 O.2       7 UNK        -0.5083 
     55 CA        -48.9851  -23.9751   11.5063 C.3       6 UNK         0.0844 
     56 C56       -49.8494  -22.7642   11.9519 C.3       14 UNK        -0.0967 
     57 S57       -50.8316  -22.0541   10.5887 S.3       14 UNK        -0.2604 
     58 C58       -52.4807  -22.7419   10.9270 C.3       14 UNK         0.0134 
     59 N         -48.0891  -23.6957   10.3768 N.am      6 UNK        -0.4116 
     60 C         -47.0821  -22.8096   10.3612 C.2       5 UNK         0.5034 
     61 O         -46.7968  -22.0729   11.3064 O.2       5 UNK        -0.5045 
     62 CA        -46.2128  -22.7495    9.0953 C.3       5 UNK         0.0224 
     63 CB        -44.8827  -23.4840    9.3307 C.3       5 UNK        -0.1978 
     64 N         -46.8593  -23.2969    7.8995 N.am      5 UNK        -0.4737 
     65 C         -47.8403  -22.6813    7.2213 C.2       4 UNK         0.5027 
     66 O         -48.3355  -21.6101    7.5745 O.2       4 UNK        -0.5211 
     67 CA        -48.3275  -23.3597    5.9215 C.3       4 UNK         0.0297 
     68 CB        -49.0592  -22.3889    4.9719 C.3       4 UNK        -0.1993 
     69 N         -47.2630  -24.0775    5.2097 N.am      4 UNK        -0.4486 
     70 C         -46.0838  -23.5887    4.7890 C.2       3 UNK         0.4961 
     71 O         -45.7981  -22.3903    4.7989 O.2       3 UNK        -0.5105 
     72 CA        -45.0317  -24.6106    4.2982 C.3       3 UNK         0.0299 
     73 CB        -43.5932  -24.1726    4.6473 C.3       3 UNK        -0.1972 
     74 N         -45.2690  -25.9891    4.7549 N.am      3 UNK        -0.4305 
     75 C         -45.3651  -26.4236    6.0215 C.2       2 UNK         0.5006 
     76 O         -45.2274  -25.7099    7.0158 O.2       2 UNK        -0.5106 
     77 CA        -45.7748  -27.8951    6.2002 C.3       2 UNK         0.0296 
     78 CB        -44.8572  -28.6042    7.2113 C.3       2 UNK        -0.2002 
     79 N         -47.1682  -28.0330    6.6390 N.am      2 UNK        -0.4032 
     80 C         -48.2520  -27.4986    6.0510 C.2       1 UNK         0.5000 
     81 O         -48.1973  -26.8066    5.0315 O.2       1 UNK        -0.5238 
     82 H82       -49.5792  -28.7443   10.5769 H         1 UNK         0.0889 
     83 H83       -49.8562  -27.0949   11.1233 H         1 UNK         0.0889 
     84 H84       -48.2060  -27.7099   10.9568 H         1 UNK         0.0889 
     85 H85       -49.8947  -28.9860    8.4149 H         1 UNK         0.3028 
     86 H86       -49.8959  -28.7767    6.2373 H         1 UNK         0.0864 
     87 H87       -50.6286  -25.8766    6.8594 H         1 UNK         0.0720 
     88 H88       -50.6867  -26.5333    5.2418 H         1 UNK         0.0720 
     89 H89       -54.3828  -26.2981    7.1533 H         1 UNK         0.0814 
     90 H90       -53.1211  -25.2163    6.6199 H         1 UNK         0.0814 
     91 H91       -52.8286  -23.6779    8.4088 H         1 UNK         0.1469 
     92 H92       -52.4326  -25.0068   12.4616 H         1 UNK         0.1381 
     93 H93       -53.2017  -27.8388    9.3278 H         1 UNK         0.1206 
     94 H94       -53.7724  -27.6107   12.5747 H         1 UNK         0.0813 
     95 H95       -52.0544  -27.4322   12.8468 H         1 UNK         0.0813 
     96 H96       -52.3723  -29.6903   13.8623 H         1 UNK         0.0638 
     97 H97       -51.8852  -31.0927   12.9585 H         1 UNK         0.0638 
     98 H98       -54.1945  -31.6374   12.3879 H         1 UNK         0.0568 
     99 H99       -55.0501  -32.4275   16.1610 H         1 UNK         0.3450 
    100 H100      -55.8292  -31.1618   15.2440 H         1 UNK         0.3450 
    101 H101      -54.9436  -29.1322   13.7858 H         1 UNK         0.2987 
    102 H102      -57.0388  -28.2330   12.0812 H         1 UNK         0.0766 
    103 H103      -58.8135  -29.8192   11.3895 H         1 UNK         0.0798 
    104 H104      -59.4780  -28.6179   12.4813 H         1 UNK         0.0798 
    105 H105      -59.1309  -30.2445   13.0664 H         1 UNK         0.0798 
    106 H106      -57.2822  -27.3426   14.1093 H         1 UNK         0.3198 
    107 H107      -58.4562  -27.3311   16.3517 H         1 UNK         0.0843 
    108 H108      -56.9601  -29.3722   18.0844 H         1 UNK         0.0831 
    109 H109      -58.6967  -29.3307   17.8155 H         1 UNK         0.0831 
    110 H110      -57.9195  -28.0164   18.6804 H         1 UNK         0.0831 
    111 H111      -55.7081  -27.4147   17.3110 H         1 UNK         0.3133 
    112 H112      -54.3151  -25.2206   15.0297 H         1 UNK         0.0566 
    113 H113      -53.8537  -23.6186   16.8653 H         1 UNK         0.0814 
    114 H114      -55.1602  -24.3050   17.8332 H         1 UNK         0.0814 
    115 H115      -55.5184  -23.4570   16.3356 H         1 UNK         0.0814 
    116 H116      -53.2965  -25.9698   17.5315 H         1 UNK         0.3091 
    117 H117      -51.8758  -27.5574   17.8378 H         1 UNK         0.0702 
    118 H118      -52.1108  -29.9652   18.3615 H         1 UNK         0.0785 
    119 H119      -53.1346  -30.2072   16.9462 H         1 UNK         0.0785 
    120 H120      -53.7000  -29.2237   18.2878 H         1 UNK         0.0785 
    121 H121      -50.8029  -29.5967   16.2628 H         1 UNK         0.2998 
    122 H122      -48.4026  -28.8935   15.6815 H         1 UNK         0.0697 
    123 H123      -50.0278  -28.9272   13.0689 H         1 UNK         0.0825 
    124 H124      -49.9496  -30.2358   14.2449 H         1 UNK         0.0825 
    125 H125      -48.5294  -29.8133   13.3189 H         1 UNK         0.0825 
    126 H126      -48.6474  -26.3974   14.3660 H         1 UNK         0.3029 
    127 H127      -46.1432  -25.4335   14.1788 H         1 UNK         0.0897 
    128 H128      -45.0441  -27.0236   11.7997 H         1 UNK         0.0792 
    129 H129      -44.2403  -26.7882   13.3461 H         1 UNK         0.0792 
    130 H130      -44.5154  -25.4139   12.2912 H         1 UNK         0.0792 
    131 H131      -46.9891  -25.5690   11.3958 H         1 UNK         0.3086 
    132 H132      -49.6733  -24.7395   11.1469 H         1 UNK         0.0583 
    133 H133      -50.5234  -23.0531   12.7601 H         1 UNK         0.1020 
    134 H134      -49.2201  -21.9744   12.3650 H         1 UNK         0.1020 
    135 H135      -52.7201  -22.6365   11.9863 H         1 UNK         0.0694 
    136 H136      -53.2198  -22.1416   10.3944 H         1 UNK         0.0694 
    137 H137      -48.2327  -24.2837    9.5605 H         1 UNK         0.2989 
    138 H138      -45.9914  -21.6963    8.9077 H         1 UNK         0.1055 
    139 H139      -45.0376  -24.5461    9.5255 H         1 UNK         0.0806 
    140 H140      -44.3508  -23.0690   10.1880 H         1 UNK         0.0806 
    141 H141      -44.2232  -23.3963    8.4669 H         1 UNK         0.0806 
    142 H142      -46.4808  -24.1683    7.5387 H         1 UNK         0.3061 
    143 H143      -49.0449  -24.1190    6.2347 H         1 UNK         0.0734 
    144 H144      -48.4132  -21.5687    4.6574 H         1 UNK         0.0832 
    145 H145      -49.4132  -22.9008    4.0771 H         1 UNK         0.0832 
    146 H146      -49.9309  -21.9487    5.4578 H         1 UNK         0.0832 
    147 H147      -47.4153  -25.0802    5.1193 H         1 UNK         0.3156 
    148 H148      -45.1179  -24.6319    3.2110 H         1 UNK         0.0589 
    149 H149      -42.8595  -24.8940    4.2879 H         1 UNK         0.0808 
    150 H150      -43.3513  -23.2130    4.1886 H         1 UNK         0.0808 
    151 H151      -43.4557  -24.0615    5.7236 H         1 UNK         0.0808 
    152 H152      -45.4620  -26.6547    4.0185 H         1 UNK         0.3098 
    153 H153      -45.6791  -28.4068    5.2406 H         1 UNK         0.0720 
    154 H154      -43.8108  -28.5178    6.9151 H         1 UNK         0.0791 
    155 H155      -45.0864  -29.6677    7.2800 H         1 UNK         0.0791 
    156 H156      -44.9485  -28.1751    8.2103 H         1 UNK         0.0791 
    157 H157      -47.3173  -28.5661    7.4825 H         1 UNK         0.3028 
@<TRIPOS>BOND
     1    1    2 1    
     2    1   82 1    
     3    1   83 1    
     4    1   84 1    
     5    2    3 2    
     6    2    4 am   BACKBONE|DICT|INTERRES
     7    4    5 1    
     8    4   85 1    
     9    5    6 1    
    10    5   80 1    
    11    5   86 1    
    12    6    7 1    
    13    6   87 1    
    14    6   88 1    
    15    7    8 1    
    16    8    9 1    
    17    8   89 1    
    18    8   90 1    
    19    9   10 ar   
    20    9   14 ar   
    21   10   11 ar   
    22   10   91 1    
    23   11   12 ar   
    24   11   58 1    
    25   12   13 ar   
    26   12   92 1    
    27   13   14 ar   
    28   13   15 1    
    29   14   93 1    
    30   15   16 1    
    31   15   94 1    
    32   15   95 1    
    33   16   17 1    
    34   17   18 1    
    35   17   96 1    
    36   17   97 1    
    37   18   19 1    
    38   18   22 1    
    39   18   98 1    
    40   19   20 am   BACKBONE|DICT|INTERRES
    41   19   21 2    
    42   20   99 1    
    43   20  100 1    
    44   22   23 am   BACKBONE|DICT|INTERRES
    45   22  101 1    
    46   23   24 2    
    47   23   25 1    
    48   25   26 1    
    49   25   27 1    
    50   25  102 1    
    51   26  103 1    
    52   26  104 1    
    53   26  105 1    
    54   27   28 am   BACKBONE|DICT|INTERRES
    55   27  106 1    
    56   28   29 2    
    57   28   30 1    
    58   30   31 1    
    59   30   32 1    
    60   30  107 1    
    61   31  108 1    
    62   31  109 1    
    63   31  110 1    
    64   32   33 am   BACKBONE|DICT|INTERRES
    65   32  111 1    
    66   33   34 2    
    67   33   35 1    
    68   35   36 1    
    69   35   37 1    
    70   35  112 1    
    71   36  113 1    
    72   36  114 1    
    73   36  115 1    
    74   37   38 am   BACKBONE|DICT|INTERRES
    75   37  116 1    
    76   38   39 2    
    77   38   40 1    
    78   40   41 1    
    79   40   42 1    
    80   40  117 1    
    81   41  118 1    
    82   41  119 1    
    83   41  120 1    
    84   42   43 am   BACKBONE|DICT|INTERRES
    85   42  121 1    
    86   43   44 2    
    87   43   45 1    
    88   45   46 1    
    89   45   47 1    
    90   45  122 1    
    91   46  123 1    
    92   46  124 1    
    93   46  125 1    
    94   47   48 am   BACKBONE|DICT|INTERRES
    95   47  126 1    
    96   48   49 2    
    97   48   50 1    
    98   50   51 1    
    99   50   52 1    
   100   50  127 1    
   101   51  128 1    
   102   51  129 1    
   103   51  130 1    
   104   52   53 am   BACKBONE|DICT|INTERRES
   105   52  131 1    
   106   53   54 2    
   107   53   55 1    
   108   55   56 1    
   109   55   59 1    
   110   55  132 1    
   111   56   57 1    
   112   56  133 1    
   113   56  134 1    
   114   57   58 1    
   115   58  135 1    
   116   58  136 1    
   117   59   60 am   BACKBONE|DICT|INTERRES
   118   59  137 1    
   119   60   61 2    
   120   60   62 1    
   121   62   63 1    
   122   62   64 1    
   123   62  138 1    
   124   63  139 1    
   125   63  140 1    
   126   63  141 1    
   127   64   65 am   BACKBONE|DICT|INTERRES
   128   64  142 1    
   129   65   66 2    
   130   65   67 1    
   131   67   68 1    
   132   67   69 1    
   133   67  143 1    
   134   68  144 1    
   135   68  145 1    
   136   68  146 1    
   137   69   70 am   BACKBONE|DICT|INTERRES
   138   69  147 1    
   139   70   71 2    
   140   70   72 1    
   141   72   73 1    
   142   72   74 1    
   143   72  148 1    
   144   73  149 1    
   145   73  150 1    
   146   73  151 1    
   147   74   75 am   BACKBONE|DICT|INTERRES
   148   74  152 1    
   149   75   76 2    
   150   75   77 1    
   151   77   78 1    
   152   77   79 1    
   153   77  153 1    
   154   78  154 1    
   155   78  155 1    
   156   78  156 1    
   157   79   80 am   BACKBONE|DICT|INTERRES
   158   79  157 1    
   159   80   81 2    
@<TRIPOS>SUBSTRUCTURE
     1 UNK         1 GROUP             0       ****    0 ROOT    
