@<TRIPOS>MOLECULE
3R207
157   159    1
SMALL
USER_CHARGES


@<TRIPOS>ATOM
      1 CA        -52.4936  -25.2414   10.1755 C.3       0 UNK        -0.1975 
      2 C         -51.5318  -25.7659    9.1205 C.2       0 UNK         0.4852 
      3 O         -50.3463  -25.4251    9.1414 O.2       0 UNK        -0.5216 
      4 N         -52.0263  -26.6015    8.1985 N.am      1 UNK        -0.4461 
      5 CA        -51.2431  -27.1297    7.0782 C.3       1 UNK         0.0864 
      6 C6        -51.8446  -28.4324    6.4897 C.3       14 UNK        -0.0898 
      7 S7        -50.5165  -29.6310    6.1170 S.3       14 UNK        -0.2598 
      8 C8        -51.2906  -31.2461    6.4694 C.3       14 UNK         0.0286 
      9 C9        -51.9010  -31.3522    7.8636 C.ar      14 UNK        -0.0844 
     10 C10       -51.1474  -31.0766    9.0095 C.ar      14 UNK        -0.0881 
     11 C11       -51.7223  -31.1680   10.2860 C.ar      14 UNK        -0.0643 
     12 C12       -53.0636  -31.5528   10.3980 C.ar      14 UNK        -0.0930 
     13 C13       -53.8240  -31.8513    9.2623 C.ar      14 UNK        -0.0827 
     14 C14       -53.2315  -31.7515    8.0006 C.ar      14 UNK        -0.1249 
     15 C15       -55.2735  -32.3094    9.4029 C.3       14 UNK         0.0141 
     16 S16       -56.4093  -31.4603    8.2520 S.3       14 UNK        -0.2313 
     17 C17       -56.8523  -29.9524    9.1768 C.3       14 UNK        -0.0915 
     18 CA        -55.7048  -28.9076    9.3311 C.3       13 UNK         0.0968 
     19 C         -55.3692  -28.0844    8.0571 C.2       13 UNK         0.5732 
     20 N         -55.5343  -28.6426    6.8677 N.am      13 UNK        -0.7310 
     21 O         -54.9103  -26.9463    8.1392 O.2       13 UNK        -0.5035 
     22 N         -55.9418  -28.0251   10.4771 N.am      13 UNK        -0.4233 
     23 C         -55.7929  -28.3736   11.7576 C.2       13 UNK         0.4989 
     24 O         -55.4144  -29.4859   12.1342 O.2       13 UNK        -0.4996 
     25 CA        -56.1986  -27.3152   12.7949 C.3       12 UNK         0.0216 
     26 CB        -57.6986  -27.4267   13.1160 C.3       12 UNK        -0.1964 
     27 N         -55.4330  -27.4713   14.0313 N.am      12 UNK        -0.4276 
     28 C         -54.1655  -27.0732   14.1757 C.2       12 UNK         0.5020 
     29 O         -53.5330  -26.4717   13.3041 O.2       12 UNK        -0.5489 
     30 CA        -53.4861  -27.4254   15.5051 C.3       11 UNK         0.0294 
     31 CB        -52.5783  -28.6553   15.3353 C.3       11 UNK        -0.2019 
     32 N         -52.6764  -26.2918   15.9379 N.am      11 UNK        -0.4493 
     33 C         -53.0819  -25.3284   16.7734 C.2       11 UNK         0.4932 
     34 O         -54.1670  -25.3459   17.3579 O.2       11 UNK        -0.5029 
     35 CA        -52.1177  -24.1411   16.9740 C.3       10 UNK         0.0280 
     36 CB        -52.4451  -23.2934   18.2219 C.3       10 UNK        -0.1976 
     37 N         -50.7053  -24.5383   16.9574 N.am      10 UNK        -0.4242 
     38 C         -50.0680  -25.3508   17.8155 C.2       10 UNK         0.5072 
     39 O         -50.5934  -25.8393   18.8170 O.2       10 UNK        -0.5224 
     40 CA        -48.5981  -25.7052   17.5069 C.3       9 UNK         0.0343 
     41 CB        -48.4749  -27.1937   17.1386 C.3       9 UNK        -0.2003 
     42 N         -48.0077  -24.9078   16.4288 N.am      9 UNK        -0.4272 
     43 C         -47.6305  -23.6258   16.5270 C.2       9 UNK         0.4988 
     44 O         -47.6598  -22.9797   17.5746 O.2       9 UNK        -0.5108 
     45 CA        -47.1898  -22.9366   15.2224 C.3       8 UNK         0.0248 
     46 CB        -45.6996  -23.1893   14.9414 C.3       8 UNK        -0.2001 
     47 N         -47.9942  -23.3488   14.0659 N.am      8 UNK        -0.4140 
     48 C         -49.3009  -23.0822   13.9191 C.2       8 UNK         0.5028 
     49 O         -49.9603  -22.4240   14.7231 O.2       8 UNK        -0.5428 
     50 CA        -50.0039  -23.6905   12.6963 C.3       7 UNK         0.0264 
     51 CB        -49.7952  -22.8015   11.4588 C.3       7 UNK        -0.1988 
     52 N         -49.5624  -25.0616   12.4216 N.am      7 UNK        -0.4454 
     53 C         -49.8297  -26.1068   13.2233 C.2       7 UNK         0.5027 
     54 O         -50.4691  -26.0085   14.2687 O.2       7 UNK        -0.5083 
     55 CA        -49.2336  -27.4793   12.8442 C.3       6 UNK         0.0844 
     56 C56       -50.1143  -28.1970   11.7887 C.3       14 UNK        -0.0967 
     57 S57       -49.4565  -29.8520   11.3846 S.3       14 UNK        -0.2604 
     58 C58       -50.9146  -30.9380   11.5661 C.3       14 UNK         0.0134 
     59 N         -47.8419  -27.3684   12.4047 N.am      6 UNK        -0.4116 
     60 C         -46.8288  -26.8093   13.0801 C.2       5 UNK         0.5034 
     61 O         -46.9117  -26.4169   14.2425 O.2       5 UNK        -0.5045 
     62 CA        -45.5190  -26.5857   12.2978 C.3       5 UNK         0.0224 
     63 CB        -44.5038  -27.6919   12.6237 C.3       5 UNK        -0.1978 
     64 N         -45.7080  -26.5075   10.8407 N.am      5 UNK        -0.4737 
     65 C         -46.5010  -25.6219   10.2195 C.2       4 UNK         0.5027 
     66 O         -47.0967  -24.7192   10.8114 O.2       4 UNK        -0.5211 
     67 CA        -46.7268  -25.8527    8.7180 C.3       4 UNK         0.0297 
     68 CB        -47.3557  -27.2364    8.4604 C.3       4 UNK        -0.1993 
     69 N         -47.6211  -24.8415    8.1594 N.am      4 UNK        -0.4486 
     70 C         -47.2311  -23.6633    7.6588 C.2       3 UNK         0.4961 
     71 O         -46.0613  -23.2738    7.6424 O.2       3 UNK        -0.5105 
     72 CA        -48.3465  -22.8203    7.0071 C.3       3 UNK         0.0299 
     73 CB        -47.8389  -21.4896    6.4131 C.3       3 UNK        -0.1972 
     74 N         -49.0803  -23.6013    6.0004 N.am      3 UNK        -0.4305 
     75 C         -48.5752  -24.2291    4.9243 C.2       2 UNK         0.5006 
     76 O         -47.4153  -24.0996    4.5290 O.2       2 UNK        -0.5106 
     77 CA        -49.5192  -25.2208    4.2124 C.3       2 UNK         0.0296 
     78 CB        -48.8507  -25.9363    3.0229 C.3       2 UNK        -0.2002 
     79 N         -50.0053  -26.2293    5.1600 N.am      2 UNK        -0.4032 
     80 C         -51.0252  -26.0423    6.0059 C.2       1 UNK         0.5000 
     81 O         -51.7397  -25.0350    5.9814 O.2       1 UNK        -0.5238 
     82 H82       -52.6026  -24.1618   10.0818 H         1 UNK         0.0889 
     83 H83       -53.4814  -25.6926   10.0884 H         1 UNK         0.0889 
     84 H84       -52.1156  -25.4619   11.1725 H         1 UNK         0.0889 
     85 H85       -53.0276  -26.7751    8.1696 H         1 UNK         0.3028 
     86 H86       -50.2587  -27.3618    7.4902 H         1 UNK         0.0864 
     87 H87       -52.4402  -28.2523    5.5925 H         1 UNK         0.0720 
     88 H88       -52.5295  -28.8837    7.2070 H         1 UNK         0.0720 
     89 H89       -50.5381  -32.0275    6.3560 H         1 UNK         0.0814 
     90 H90       -52.0439  -31.4355    5.7031 H         1 UNK         0.0814 
     91 H91       -50.1097  -30.7971    8.8956 H         1 UNK         0.1469 
     92 H92       -53.5148  -31.6363   11.3778 H         1 UNK         0.1381 
     93 H93       -53.8123  -31.9867    7.1192 H         1 UNK         0.1206 
     94 H94       -55.3134  -33.3804    9.2006 H         1 UNK         0.0813 
     95 H95       -55.6298  -32.1762   10.4258 H         1 UNK         0.0813 
     96 H96       -57.7194  -29.4934    8.6989 H         1 UNK         0.0638 
     97 H97       -57.2053  -30.2835   10.1543 H         1 UNK         0.0638 
     98 H98       -54.7767  -29.4296    9.5528 H         1 UNK         0.0568 
     99 H99       -55.8849  -29.5866    6.7983 H         1 UNK         0.3450 
    100 H100      -55.3166  -28.1174    6.0366 H         1 UNK         0.3450 
    101 H101      -56.2176  -27.0826   10.2370 H         1 UNK         0.2987 
    102 H102      -56.0029  -26.3222   12.3833 H         1 UNK         0.0766 
    103 H103      -58.3032  -27.2826   12.2195 H         1 UNK         0.0798 
    104 H104      -58.0078  -26.6700   13.8375 H         1 UNK         0.0798 
    105 H105      -57.9532  -28.4054   13.5252 H         1 UNK         0.0798 
    106 H106      -55.8681  -28.0060   14.7692 H         1 UNK         0.3198 
    107 H107      -54.2448  -27.6529   16.2572 H         1 UNK         0.0843 
    108 H108      -52.0855  -28.9156   16.2722 H         1 UNK         0.0831 
    109 H109      -51.8036  -28.4855   14.5871 H         1 UNK         0.0831 
    110 H110      -53.1543  -29.5249   15.0161 H         1 UNK         0.0831 
    111 H111      -51.8138  -26.1481   15.4113 H         1 UNK         0.3133 
    112 H112      -52.2526  -23.5001   16.1017 H         1 UNK         0.0566 
    113 H113      -53.4500  -22.8746   18.1567 H         1 UNK         0.0814 
    114 H114      -52.3994  -23.8836   19.1376 H         1 UNK         0.0814 
    115 H115      -51.7532  -22.4576   18.3254 H         1 UNK         0.0814 
    116 H116      -50.1810  -24.2041   16.1586 H         1 UNK         0.3091 
    117 H117      -48.0226  -25.5286   18.4178 H         1 UNK         0.0702 
    118 H118      -49.0444  -27.4329   16.2398 H         1 UNK         0.0785 
    119 H119      -48.8503  -27.8297   17.9414 H         1 UNK         0.0785 
    120 H120      -47.4366  -27.4745   16.9610 H         1 UNK         0.0785 
    121 H121      -47.8633  -25.3852   15.5426 H         1 UNK         0.2998 
    122 H122      -47.3302  -21.8616   15.3545 H         1 UNK         0.0697 
    123 H123      -45.3710  -22.6718   14.0399 H         1 UNK         0.0825 
    124 H124      -45.0838  -22.8258   15.7651 H         1 UNK         0.0825 
    125 H125      -45.4808  -24.2500   14.8193 H         1 UNK         0.0825 
    126 H126      -47.5371  -23.9059   13.3571 H         1 UNK         0.3029 
    127 H127      -51.0743  -23.7234   12.9127 H         1 UNK         0.0897 
    128 H128      -50.3233  -23.1911   10.5902 H         1 UNK         0.0792 
    129 H129      -50.1717  -21.7936   11.6381 H         1 UNK         0.0792 
    130 H130      -48.7416  -22.7104   11.1940 H         1 UNK         0.0792 
    131 H131      -48.9615  -25.1856   11.6130 H         1 UNK         0.3086 
    132 H132      -49.2295  -28.0874   13.7511 H         1 UNK         0.0583 
    133 H133      -51.1450  -28.2797   12.1400 H         1 UNK         0.1020 
    134 H134      -50.1564  -27.6208   10.8643 H         1 UNK         0.1020 
    135 H135      -50.5619  -31.9108   11.9105 H         1 UNK         0.0694 
    136 H136      -51.5578  -30.5535   12.3593 H         1 UNK         0.0694 
    137 H137      -47.6545  -27.6913   11.4681 H         1 UNK         0.2989 
    138 H138      -45.1076  -25.6297   12.6288 H         1 UNK         0.1055 
    139 H139      -44.3275  -27.7544   13.6987 H         1 UNK         0.0806 
    140 H140      -44.8521  -28.6714   12.2935 H         1 UNK         0.0806 
    141 H141      -43.5403  -27.4994   12.1513 H         1 UNK         0.0806 
    142 H142      -45.2435  -27.2141   10.2876 H         1 UNK         0.3061 
    143 H143      -45.7592  -25.8051    8.2139 H         1 UNK         0.0734 
    144 H144      -47.5687  -27.3818    7.4012 H         1 UNK         0.0832 
    145 H145      -46.6882  -28.0448    8.7599 H         1 UNK         0.0832 
    146 H146      -48.2902  -27.3649    9.0082 H         1 UNK         0.0832 
    147 H147      -48.6156  -25.0191    8.2728 H         1 UNK         0.3156 
    148 H148      -49.0589  -22.5818    7.7987 H         1 UNK         0.0589 
    149 H149      -48.6566  -20.9084    5.9870 H         1 UNK         0.0808 
    150 H150      -47.3703  -20.8748    7.1825 H         1 UNK         0.0808 
    151 H151      -47.0973  -21.6492    5.6298 H         1 UNK         0.0808 
    152 H152      -50.0517  -23.7968    6.2205 H         1 UNK         0.3098 
    153 H153      -50.3626  -24.6470    3.8219 H         1 UNK         0.0720 
    154 H154      -48.5028  -25.2172    2.2801 H         1 UNK         0.0791 
    155 H155      -47.9880  -26.5255    3.3368 H         1 UNK         0.0791 
    156 H156      -49.5490  -26.6059    2.5205 H         1 UNK         0.0791 
    157 H157      -49.4608  -27.0775    5.2351 H         1 UNK         0.3028 
@<TRIPOS>BOND
     1    1    2 1    
     2    1   82 1    
     3    1   83 1    
     4    1   84 1    
     5    2    3 2    
     6    2    4 am   BACKBONE|DICT|INTERRES
     7    4    5 1    
     8    4   85 1    
     9    5    6 1    
    10    5   80 1    
    11    5   86 1    
    12    6    7 1    
    13    6   87 1    
    14    6   88 1    
    15    7    8 1    
    16    8    9 1    
    17    8   89 1    
    18    8   90 1    
    19    9   10 ar   
    20    9   14 ar   
    21   10   11 ar   
    22   10   91 1    
    23   11   12 ar   
    24   11   58 1    
    25   12   13 ar   
    26   12   92 1    
    27   13   14 ar   
    28   13   15 1    
    29   14   93 1    
    30   15   16 1    
    31   15   94 1    
    32   15   95 1    
    33   16   17 1    
    34   17   18 1    
    35   17   96 1    
    36   17   97 1    
    37   18   19 1    
    38   18   22 1    
    39   18   98 1    
    40   19   20 am   BACKBONE|DICT|INTERRES
    41   19   21 2    
    42   20   99 1    
    43   20  100 1    
    44   22   23 am   BACKBONE|DICT|INTERRES
    45   22  101 1    
    46   23   24 2    
    47   23   25 1    
    48   25   26 1    
    49   25   27 1    
    50   25  102 1    
    51   26  103 1    
    52   26  104 1    
    53   26  105 1    
    54   27   28 am   BACKBONE|DICT|INTERRES
    55   27  106 1    
    56   28   29 2    
    57   28   30 1    
    58   30   31 1    
    59   30   32 1    
    60   30  107 1    
    61   31  108 1    
    62   31  109 1    
    63   31  110 1    
    64   32   33 am   BACKBONE|DICT|INTERRES
    65   32  111 1    
    66   33   34 2    
    67   33   35 1    
    68   35   36 1    
    69   35   37 1    
    70   35  112 1    
    71   36  113 1    
    72   36  114 1    
    73   36  115 1    
    74   37   38 am   BACKBONE|DICT|INTERRES
    75   37  116 1    
    76   38   39 2    
    77   38   40 1    
    78   40   41 1    
    79   40   42 1    
    80   40  117 1    
    81   41  118 1    
    82   41  119 1    
    83   41  120 1    
    84   42   43 am   BACKBONE|DICT|INTERRES
    85   42  121 1    
    86   43   44 2    
    87   43   45 1    
    88   45   46 1    
    89   45   47 1    
    90   45  122 1    
    91   46  123 1    
    92   46  124 1    
    93   46  125 1    
    94   47   48 am   BACKBONE|DICT|INTERRES
    95   47  126 1    
    96   48   49 2    
    97   48   50 1    
    98   50   51 1    
    99   50   52 1    
   100   50  127 1    
   101   51  128 1    
   102   51  129 1    
   103   51  130 1    
   104   52   53 am   BACKBONE|DICT|INTERRES
   105   52  131 1    
   106   53   54 2    
   107   53   55 1    
   108   55   56 1    
   109   55   59 1    
   110   55  132 1    
   111   56   57 1    
   112   56  133 1    
   113   56  134 1    
   114   57   58 1    
   115   58  135 1    
   116   58  136 1    
   117   59   60 am   BACKBONE|DICT|INTERRES
   118   59  137 1    
   119   60   61 2    
   120   60   62 1    
   121   62   63 1    
   122   62   64 1    
   123   62  138 1    
   124   63  139 1    
   125   63  140 1    
   126   63  141 1    
   127   64   65 am   BACKBONE|DICT|INTERRES
   128   64  142 1    
   129   65   66 2    
   130   65   67 1    
   131   67   68 1    
   132   67   69 1    
   133   67  143 1    
   134   68  144 1    
   135   68  145 1    
   136   68  146 1    
   137   69   70 am   BACKBONE|DICT|INTERRES
   138   69  147 1    
   139   70   71 2    
   140   70   72 1    
   141   72   73 1    
   142   72   74 1    
   143   72  148 1    
   144   73  149 1    
   145   73  150 1    
   146   73  151 1    
   147   74   75 am   BACKBONE|DICT|INTERRES
   148   74  152 1    
   149   75   76 2    
   150   75   77 1    
   151   77   78 1    
   152   77   79 1    
   153   77  153 1    
   154   78  154 1    
   155   78  155 1    
   156   78  156 1    
   157   79   80 am   BACKBONE|DICT|INTERRES
   158   79  157 1    
   159   80   81 2    
@<TRIPOS>SUBSTRUCTURE
     1 UNK         1 GROUP             0       ****    0 ROOT    
