@<TRIPOS>MOLECULE
3R207
157   159    1
SMALL
USER_CHARGES


@<TRIPOS>ATOM
      1 CA        -48.2292  -31.7993    2.2132 C.3       0 UNK        -0.1975 
      2 C         -48.7796  -30.8640    3.2792 C.2       0 UNK         0.4852 
      3 O         -48.4235  -30.9985    4.4509 O.2       0 UNK        -0.5216 
      4 N         -49.6361  -29.9120    2.8802 N.am      1 UNK        -0.4461 
      5 CA        -50.3016  -28.8951    3.7090 C.3       1 UNK         0.0864 
      6 C6        -51.1549  -29.5025    4.8549 C.3       14 UNK        -0.0898 
      7 S7        -52.4868  -28.3960    5.4270 S.3       14 UNK        -0.2598 
      8 C8        -51.7721  -27.8143    6.9930 C.3       14 UNK         0.0286 
      9 C9        -52.7721  -27.0044    7.7997 C.ar      14 UNK        -0.0844 
     10 C10       -52.7915  -25.6092    7.7153 C.ar      14 UNK        -0.0881 
     11 C11       -53.6971  -24.8649    8.4803 C.ar      14 UNK        -0.0643 
     12 C12       -54.5959  -25.5281    9.3210 C.ar      14 UNK        -0.0930 
     13 C13       -54.5832  -26.9226    9.4100 C.ar      14 UNK        -0.0827 
     14 C14       -53.6680  -27.6551    8.6504 C.ar      14 UNK        -0.1249 
     15 C15       -55.5442  -27.6451   10.3357 C.3       14 UNK         0.0141 
     16 S16       -54.8286  -27.7863   11.9986 S.3       14 UNK        -0.2313 
     17 C17       -55.5403  -29.3703   12.5670 C.3       14 UNK        -0.0915 
     18 CA        -54.5150  -30.5363   12.5534 C.3       13 UNK         0.0968 
     19 C         -54.1898  -31.0178   11.1064 C.2       13 UNK         0.5732 
     20 N         -52.9488  -30.9494   10.6390 N.am      13 UNK        -0.7310 
     21 O         -55.0852  -31.4729   10.3982 O.2       13 UNK        -0.5035 
     22 N         -53.3576  -30.2190   13.4033 N.am      13 UNK        -0.4233 
     23 C         -52.4486  -31.0906   13.8566 C.2       13 UNK         0.4989 
     24 O         -52.4694  -32.2980   13.6165 O.2       13 UNK        -0.4996 
     25 CA        -51.3227  -30.5132   14.7325 C.3       12 UNK         0.0216 
     26 CB        -50.1340  -30.0798   13.8613 C.3       12 UNK        -0.1964 
     27 N         -51.7600  -29.3772   15.5493 N.am      12 UNK        -0.4276 
     28 C         -52.5898  -29.4709   16.5985 C.2       12 UNK         0.5020 
     29 O         -53.0519  -30.5347   17.0132 O.2       12 UNK        -0.5489 
     30 CA        -52.9661  -28.1640   17.3120 C.3       11 UNK         0.0294 
     31 CB        -52.0821  -27.9556   18.5526 C.3       11 UNK        -0.2019 
     32 N         -52.8601  -26.9931   16.4373 N.am      11 UNK        -0.4493 
     33 C         -53.8171  -26.6032   15.5804 C.2       11 UNK         0.4932 
     34 O         -54.8659  -27.2294   15.4239 O.2       11 UNK        -0.5029 
     35 CA        -53.5753  -25.3031   14.7752 C.3       10 UNK         0.0280 
     36 CB        -54.8864  -24.5979   14.3708 C.3       10 UNK        -0.1976 
     37 N         -52.6628  -24.3588   15.4330 N.am      10 UNK        -0.4242 
     38 C         -52.7748  -23.8430   16.6677 C.2       10 UNK         0.5072 
     39 O         -53.7793  -23.9678   17.3712 O.2       10 UNK        -0.5224 
     40 CA        -51.5428  -23.1018   17.2343 C.3       9 UNK         0.0343 
     41 CB        -51.4572  -23.2178   18.7709 C.3       9 UNK        -0.2003 
     42 N         -50.2549  -23.4942   16.6416 N.am      9 UNK        -0.4272 
     43 C         -49.7223  -24.7205   16.5210 C.2       9 UNK         0.4988 
     44 O         -50.3043  -25.7489   16.8690 O.2       9 UNK        -0.5108 
     45 CA        -48.3197  -24.8135   15.8763 C.3       8 UNK         0.0248 
     46 CB        -47.8956  -26.2715   15.6145 C.3       8 UNK        -0.2001 
     47 N         -48.2157  -24.0619   14.6204 N.am      8 UNK        -0.4140 
     48 C         -48.1962  -22.7266   14.5021 C.2       8 UNK         0.5028 
     49 O         -48.1657  -21.9588   15.4652 O.2       8 UNK        -0.5428 
     50 CA        -48.3046  -22.1410   13.0858 C.3       7 UNK         0.0264 
     51 CB        -46.9088  -21.9537   12.4732 C.3       7 UNK        -0.1988 
     52 N         -49.1398  -22.9324   12.1769 N.am      7 UNK        -0.4454 
     53 C         -50.4359  -23.2376   12.3591 C.2       7 UNK         0.5027 
     54 O         -51.0865  -22.9278   13.3582 O.2       7 UNK        -0.5083 
     55 CA        -51.0985  -24.0570   11.2353 C.3       6 UNK         0.0844 
     56 C56       -51.3587  -23.1859    9.9737 C.3       14 UNK        -0.0967 
     57 S57       -53.0706  -22.5606    9.9160 S.3       14 UNK        -0.2604 
     58 C58       -53.7085  -23.3444    8.3979 C.3       14 UNK         0.0134 
     59 N         -50.2848  -25.2312   10.9288 N.am      6 UNK        -0.4116 
     60 C         -50.1678  -26.3170   11.7049 C.2       5 UNK         0.5034 
     61 O         -50.8042  -26.5059   12.7417 O.2       5 UNK        -0.5045 
     62 CA        -49.1303  -27.3599   11.2562 C.3       5 UNK         0.0224 
     63 CB        -49.7773  -28.3876   10.3154 C.3       5 UNK        -0.1978 
     64 N         -47.9673  -26.7581   10.5956 N.am      5 UNK        -0.4737 
     65 C         -47.0674  -25.9843   11.2224 C.2       4 UNK         0.5027 
     66 O         -47.1066  -25.7324   12.4259 O.2       4 UNK        -0.5211 
     67 CA        -45.9708  -25.3386   10.3559 C.3       4 UNK         0.0297 
     68 CB        -44.7642  -26.2819   10.2322 C.3       4 UNK        -0.1993 
     69 N         -46.4290  -24.9568    9.0177 N.am      4 UNK        -0.4486 
     70 C         -47.4585  -24.1415    8.7467 C.2       3 UNK         0.4961 
     71 O         -48.1086  -23.5518    9.6096 O.2       3 UNK        -0.5105 
     72 CA        -47.8719  -23.9895    7.2724 C.3       3 UNK         0.0299 
     73 CB        -47.3665  -22.6502    6.7144 C.3       3 UNK        -0.1972 
     74 N         -47.4324  -25.0807    6.3929 N.am      3 UNK        -0.4305 
     75 C         -47.7762  -26.3703    6.5201 C.2       2 UNK         0.5006 
     76 O         -48.4458  -26.8178    7.4539 O.2       2 UNK        -0.5106 
     77 CA        -47.2255  -27.3294    5.4534 C.3       2 UNK         0.0296 
     78 CB        -46.1010  -28.1955    6.0430 C.3       2 UNK        -0.2002 
     79 N         -48.2655  -28.2002    4.9064 N.am      2 UNK        -0.4032 
     80 C         -49.3308  -27.7983    4.2006 C.2       1 UNK         0.5000 
     81 O         -49.5453  -26.6225    3.8997 O.2       1 UNK        -0.5238 
     82 H82       -47.1431  -31.7104    2.1615 H         1 UNK         0.0889 
     83 H83       -48.6362  -31.5783    1.2254 H         1 UNK         0.0889 
     84 H84       -48.4761  -32.8330    2.4587 H         1 UNK         0.0889 
     85 H85       -49.8545  -29.8509    1.8949 H         1 UNK         0.3028 
     86 H86       -50.9911  -28.4018    3.0216 H         1 UNK         0.0864 
     87 H87       -50.5326  -29.8178    5.6941 H         1 UNK         0.0720 
     88 H88       -51.6443  -30.4109    4.5005 H         1 UNK         0.0720 
     89 H89       -50.8880  -27.2143    6.7812 H         1 UNK         0.0814 
     90 H90       -51.4369  -28.6706    7.5796 H         1 UNK         0.0814 
     91 H91       -52.0965  -25.1042    7.0584 H         1 UNK         0.1469 
     92 H92       -55.2940  -24.9566    9.9174 H         1 UNK         0.1381 
     93 H93       -53.6508  -28.7341    8.7240 H         1 UNK         0.1206 
     94 H94       -55.7663  -28.6335    9.9311 H         1 UNK         0.0813 
     95 H95       -56.4956  -27.1144   10.3937 H         1 UNK         0.0813 
     96 H96       -55.8986  -29.2175   13.5864 H         1 UNK         0.0638 
     97 H97       -56.4291  -29.6188   11.9844 H         1 UNK         0.0638 
     98 H98       -55.0076  -31.3893   13.0242 H         1 UNK         0.0568 
     99 H99       -52.7554  -31.2796    9.7074 H         1 UNK         0.3450 
    100 H100      -52.2065  -30.5975   11.2188 H         1 UNK         0.3450 
    101 H101      -53.2576  -29.2439   13.6434 H         1 UNK         0.2987 
    102 H102      -50.9853  -31.3060   15.4038 H         1 UNK         0.0766 
    103 H103      -50.4134  -29.2710   13.1874 H         1 UNK         0.0798 
    104 H104      -49.7716  -30.9076   13.2497 H         1 UNK         0.0798 
    105 H105      -49.2974  -29.7362   14.4705 H         1 UNK         0.0798 
    106 H106      -51.4232  -28.4605   15.2899 H         1 UNK         0.3198 
    107 H107      -54.0008  -28.2578   17.6502 H         1 UNK         0.0843 
    108 H108      -52.3411  -27.0342   19.0748 H         1 UNK         0.0831 
    109 H109      -51.0237  -27.9075   18.2929 H         1 UNK         0.0831 
    110 H110      -52.2056  -28.7764   19.2603 H         1 UNK         0.0831 
    111 H111      -52.0128  -26.4341   16.5287 H         1 UNK         0.3133 
    112 H112      -53.0761  -25.6106   13.8560 H         1 UNK         0.0566 
    113 H113      -54.6878  -23.7060   13.7762 H         1 UNK         0.0814 
    114 H114      -55.5138  -25.2538   13.7660 H         1 UNK         0.0814 
    115 H115      -55.4706  -24.3006   15.2420 H         1 UNK         0.0814 
    116 H116      -51.8290  -24.1231   14.9044 H         1 UNK         0.3091 
    117 H117      -51.6838  -22.0493   16.9843 H         1 UNK         0.0702 
    118 H118      -50.5997  -22.6712   19.1634 H         1 UNK         0.0785 
    119 H119      -51.3669  -24.2574   19.0892 H         1 UNK         0.0785 
    120 H120      -52.3464  -22.8054   19.2494 H         1 UNK         0.0785 
    121 H121      -49.6808  -22.7280   16.2966 H         1 UNK         0.2998 
    122 H122      -47.6143  -24.3837   16.5901 H         1 UNK         0.0697 
    123 H123      -46.8838  -26.3242   15.2121 H         1 UNK         0.0825 
    124 H124      -47.9076  -26.8581   16.5341 H         1 UNK         0.0825 
    125 H125      -48.5630  -26.7611   14.9035 H         1 UNK         0.0825 
    126 H126      -48.1737  -24.6155   13.7703 H         1 UNK         0.3029 
    127 H127      -48.7735  -21.1588   13.1744 H         1 UNK         0.0897 
    128 H128      -46.9642  -21.5307   11.4698 H         1 UNK         0.0792 
    129 H129      -46.3065  -21.2758   13.0795 H         1 UNK         0.0792 
    130 H130      -46.3700  -22.8985   12.4125 H         1 UNK         0.0792 
    131 H131      -48.7030  -23.2180   11.3015 H         1 UNK         0.3086 
    132 H132      -52.0530  -24.4303   11.6147 H         1 UNK         0.0583 
    133 H133      -50.6763  -22.3359    9.9035 H         1 UNK         0.1020 
    134 H134      -51.1660  -23.7596    9.0673 H         1 UNK         0.1020 
    135 H135      -54.7305  -23.0026    8.2281 H         1 UNK         0.0694 
    136 H136      -53.1252  -22.9966    7.5438 H         1 UNK         0.0694 
    137 H137      -49.6686  -25.1524   10.1325 H         1 UNK         0.2989 
    138 H138      -48.7770  -27.8767   12.1508 H         1 UNK         0.1055 
    139 H139      -49.0908  -29.2014   10.0816 H         1 UNK         0.0806 
    140 H140      -50.0824  -27.9257    9.3771 H         1 UNK         0.0806 
    141 H141      -50.6685  -28.8284   10.7633 H         1 UNK         0.0806 
    142 H142      -47.8922  -26.8859    9.5921 H         1 UNK         0.3061 
    143 H143      -45.6406  -24.4291   10.8590 H         1 UNK         0.0734 
    144 H144      -43.9394  -25.8061    9.7014 H         1 UNK         0.0832 
    145 H145      -44.3908  -26.5668   11.2170 H         1 UNK         0.0832 
    146 H146      -45.0208  -27.2007    9.7032 H         1 UNK         0.0832 
    147 H147      -45.9591  -25.3904    8.2373 H         1 UNK         0.3156 
    148 H148      -48.9636  -23.9768    7.2495 H         1 UNK         0.0589 
    149 H149      -46.2769  -22.6109    6.6818 H         1 UNK         0.0808 
    150 H150      -47.7411  -22.4720    5.7062 H         1 UNK         0.0808 
    151 H151      -47.7035  -21.8171    7.3334 H         1 UNK         0.0808 
    152 H152      -46.8656  -24.8120    5.6009 H         1 UNK         0.3098 
    153 H153      -46.8152  -26.7471    4.6263 H         1 UNK         0.0720 
    154 H154      -46.4609  -28.8185    6.8628 H         1 UNK         0.0791 
    155 H155      -45.2919  -27.5771    6.4334 H         1 UNK         0.0791 
    156 H156      -45.6698  -28.8534    5.2881 H         1 UNK         0.0791 
    157 H157      -48.1697  -29.1993    5.0668 H         1 UNK         0.3028 
@<TRIPOS>BOND
     1    1    2 1    
     2    1   82 1    
     3    1   83 1    
     4    1   84 1    
     5    2    3 2    
     6    2    4 am   BACKBONE|DICT|INTERRES
     7    4    5 1    
     8    4   85 1    
     9    5    6 1    
    10    5   80 1    
    11    5   86 1    
    12    6    7 1    
    13    6   87 1    
    14    6   88 1    
    15    7    8 1    
    16    8    9 1    
    17    8   89 1    
    18    8   90 1    
    19    9   10 ar   
    20    9   14 ar   
    21   10   11 ar   
    22   10   91 1    
    23   11   12 ar   
    24   11   58 1    
    25   12   13 ar   
    26   12   92 1    
    27   13   14 ar   
    28   13   15 1    
    29   14   93 1    
    30   15   16 1    
    31   15   94 1    
    32   15   95 1    
    33   16   17 1    
    34   17   18 1    
    35   17   96 1    
    36   17   97 1    
    37   18   19 1    
    38   18   22 1    
    39   18   98 1    
    40   19   20 am   BACKBONE|DICT|INTERRES
    41   19   21 2    
    42   20   99 1    
    43   20  100 1    
    44   22   23 am   BACKBONE|DICT|INTERRES
    45   22  101 1    
    46   23   24 2    
    47   23   25 1    
    48   25   26 1    
    49   25   27 1    
    50   25  102 1    
    51   26  103 1    
    52   26  104 1    
    53   26  105 1    
    54   27   28 am   BACKBONE|DICT|INTERRES
    55   27  106 1    
    56   28   29 2    
    57   28   30 1    
    58   30   31 1    
    59   30   32 1    
    60   30  107 1    
    61   31  108 1    
    62   31  109 1    
    63   31  110 1    
    64   32   33 am   BACKBONE|DICT|INTERRES
    65   32  111 1    
    66   33   34 2    
    67   33   35 1    
    68   35   36 1    
    69   35   37 1    
    70   35  112 1    
    71   36  113 1    
    72   36  114 1    
    73   36  115 1    
    74   37   38 am   BACKBONE|DICT|INTERRES
    75   37  116 1    
    76   38   39 2    
    77   38   40 1    
    78   40   41 1    
    79   40   42 1    
    80   40  117 1    
    81   41  118 1    
    82   41  119 1    
    83   41  120 1    
    84   42   43 am   BACKBONE|DICT|INTERRES
    85   42  121 1    
    86   43   44 2    
    87   43   45 1    
    88   45   46 1    
    89   45   47 1    
    90   45  122 1    
    91   46  123 1    
    92   46  124 1    
    93   46  125 1    
    94   47   48 am   BACKBONE|DICT|INTERRES
    95   47  126 1    
    96   48   49 2    
    97   48   50 1    
    98   50   51 1    
    99   50   52 1    
   100   50  127 1    
   101   51  128 1    
   102   51  129 1    
   103   51  130 1    
   104   52   53 am   BACKBONE|DICT|INTERRES
   105   52  131 1    
   106   53   54 2    
   107   53   55 1    
   108   55   56 1    
   109   55   59 1    
   110   55  132 1    
   111   56   57 1    
   112   56  133 1    
   113   56  134 1    
   114   57   58 1    
   115   58  135 1    
   116   58  136 1    
   117   59   60 am   BACKBONE|DICT|INTERRES
   118   59  137 1    
   119   60   61 2    
   120   60   62 1    
   121   62   63 1    
   122   62   64 1    
   123   62  138 1    
   124   63  139 1    
   125   63  140 1    
   126   63  141 1    
   127   64   65 am   BACKBONE|DICT|INTERRES
   128   64  142 1    
   129   65   66 2    
   130   65   67 1    
   131   67   68 1    
   132   67   69 1    
   133   67  143 1    
   134   68  144 1    
   135   68  145 1    
   136   68  146 1    
   137   69   70 am   BACKBONE|DICT|INTERRES
   138   69  147 1    
   139   70   71 2    
   140   70   72 1    
   141   72   73 1    
   142   72   74 1    
   143   72  148 1    
   144   73  149 1    
   145   73  150 1    
   146   73  151 1    
   147   74   75 am   BACKBONE|DICT|INTERRES
   148   74  152 1    
   149   75   76 2    
   150   75   77 1    
   151   77   78 1    
   152   77   79 1    
   153   77  153 1    
   154   78  154 1    
   155   78  155 1    
   156   78  156 1    
   157   79   80 am   BACKBONE|DICT|INTERRES
   158   79  157 1    
   159   80   81 2    
@<TRIPOS>SUBSTRUCTURE
     1 UNK         1 GROUP             0       ****    0 ROOT    
