@<TRIPOS>MOLECULE
3R207
157   159    1
SMALL
USER_CHARGES


@<TRIPOS>ATOM
      1 CA        -46.2574  -30.5375    7.6087 C.3       0 UNK        -0.1975 
      2 C         -46.6997  -30.1969    6.1933 C.2       0 UNK         0.4852 
      3 O         -45.8602  -30.0998    5.2977 O.2       0 UNK        -0.5216 
      4 N         -48.0120  -30.0240    5.9841 N.am      1 UNK        -0.4461 
      5 CA        -48.6194  -29.6914    4.6883 C.3       1 UNK         0.0864 
      6 C6        -50.1457  -29.9742    4.6878 C.3       14 UNK        -0.0898 
      7 S7        -51.0890  -28.9180    5.8434 S.3       14 UNK        -0.2598 
      8 C8        -51.5816  -30.0797    7.1635 C.3       14 UNK         0.0286 
      9 C9        -51.9879  -29.3820    8.4626 C.ar      14 UNK        -0.0844 
     10 C10       -52.6031  -28.1236    8.4595 C.ar      14 UNK        -0.0881 
     11 C11       -52.9304  -27.4814    9.6547 C.ar      14 UNK        -0.0643 
     12 C12       -52.6631  -28.1159   10.8678 C.ar      14 UNK        -0.0930 
     13 C13       -52.0991  -29.3957   10.8935 C.ar      14 UNK        -0.0827 
     14 C14       -51.7535  -30.0159    9.6879 C.ar      14 UNK        -0.1249 
     15 C15       -51.8570  -30.1123   12.2174 C.3       14 UNK         0.0141 
     16 S16       -53.2534  -29.9681   13.3873 S.3       14 UNK        -0.2313 
     17 C17       -54.5664  -30.9350   12.5650 C.3       14 UNK        -0.0915 
     18 CA        -55.4274  -30.1211   11.5592 C.3       13 UNK         0.0968 
     19 C         -56.5741  -30.9965   10.9855 C.2       13 UNK         0.5732 
     20 N         -56.2997  -31.7767    9.9488 N.am      13 UNK        -0.7310 
     21 O         -57.6932  -31.0082   11.4962 O.2       13 UNK        -0.5035 
     22 N         -55.9077  -28.8535   12.1301 N.am      13 UNK        -0.4233 
     23 C         -56.4287  -27.8472   11.4161 C.2       13 UNK         0.4989 
     24 O         -56.5476  -27.8704   10.1903 O.2       13 UNK        -0.4996 
     25 CA        -56.9081  -26.5951   12.1760 C.3       12 UNK         0.0216 
     26 CB        -58.4414  -26.4855   12.1131 C.3       12 UNK        -0.1964 
     27 N         -56.4879  -26.5372   13.5800 N.am      12 UNK        -0.4276 
     28 C         -55.2649  -26.1942   14.0027 C.2       12 UNK         0.5020 
     29 O         -54.3235  -25.9187   13.2550 O.2       12 UNK        -0.5489 
     30 CA        -55.0670  -26.1655   15.5221 C.3       11 UNK         0.0294 
     31 CB        -54.9814  -27.5917   16.0989 C.3       11 UNK        -0.2019 
     32 N         -53.8379  -25.4431   15.8294 N.am      11 UNK        -0.4493 
     33 C         -53.5623  -24.8197   16.9811 C.2       11 UNK         0.4932 
     34 O         -54.3628  -24.7155   17.9125 O.2       11 UNK        -0.5029 
     35 CA        -52.1347  -24.2529   17.1127 C.3       10 UNK         0.0280 
     36 CB        -51.7981  -23.7498   18.5325 C.3       10 UNK        -0.1976 
     37 N         -51.1347  -25.2157   16.6355 N.am      10 UNK        -0.4242 
     38 C         -50.9018  -26.4482   17.1157 C.2       10 UNK         0.5072 
     39 O         -51.4126  -26.9042   18.1397 O.2       10 UNK        -0.5224 
     40 CA        -49.9620  -27.3471   16.2973 C.3       9 UNK         0.0343 
     41 CB        -50.7712  -28.1772   15.2911 C.3       9 UNK        -0.2003 
     42 N         -48.9165  -26.6071   15.5881 N.am      9 UNK        -0.4272 
     43 C         -47.8449  -26.0738   16.1920 C.2       9 UNK         0.4988 
     44 O         -47.6253  -26.1582   17.4012 O.2       9 UNK        -0.5108 
     45 CA        -46.8418  -25.3261   15.3005 C.3       8 UNK         0.0248 
     46 CB        -45.9464  -26.3211   14.5444 C.3       8 UNK        -0.2001 
     47 N         -47.4871  -24.4138   14.3539 N.am      8 UNK        -0.4140 
     48 C         -48.1573  -23.3064   14.7064 C.2       8 UNK         0.5028 
     49 O         -48.2788  -22.9176   15.8685 O.2       8 UNK        -0.5428 
     50 CA        -48.8165  -22.4962   13.5773 C.3       7 UNK         0.0264 
     51 CB        -47.7834  -21.6062   12.8685 C.3       7 UNK        -0.1988 
     52 N         -49.5027  -23.3312   12.5904 N.am      7 UNK        -0.4454 
     53 C         -50.5557  -24.1209   12.8526 C.2       7 UNK         0.5027 
     54 O         -51.0795  -24.2292   13.9611 O.2       7 UNK        -0.5083 
     55 CA        -51.0860  -24.9579   11.6758 C.3       6 UNK         0.0844 
     56 C56       -51.9676  -24.0789   10.7496 C.3       14 UNK        -0.0967 
     57 S57       -52.4020  -24.8233    9.1418 S.3       14 UNK        -0.2604 
     58 C58       -53.5907  -26.1127    9.6200 C.3       14 UNK         0.0134 
     59 N         -49.9895  -25.6347   10.9811 N.am      6 UNK        -0.4116 
     60 C         -49.1735  -26.5453   11.5321 C.2       5 UNK         0.5034 
     61 O         -49.2618  -26.9492   12.6918 O.2       5 UNK        -0.5045 
     62 CA        -48.0170  -27.0381   10.6527 C.3       5 UNK         0.0224 
     63 CB        -48.5048  -28.1185    9.6739 C.3       5 UNK        -0.1978 
     64 N         -47.3901  -25.9348    9.9180 N.am      5 UNK        -0.4737 
     65 C         -46.6877  -24.9504   10.5024 C.2       4 UNK         0.5027 
     66 O         -46.4539  -24.9083   11.7085 O.2       4 UNK        -0.5211 
     67 CA        -46.1972  -23.7925    9.6143 C.3       4 UNK         0.0297 
     68 CB        -44.7956  -24.0981    9.0639 C.3       4 UNK        -0.1993 
     69 N         -47.0997  -23.4900    8.5037 N.am      4 UNK        -0.4486 
     70 C         -48.3831  -23.1233    8.6266 C.2       3 UNK         0.4961 
     71 O         -48.9239  -22.8844    9.7076 O.2       3 UNK        -0.5105 
     72 CA        -49.2157  -23.0640    7.3300 C.3       3 UNK         0.0299 
     73 CB        -49.3496  -21.6108    6.8494 C.3       3 UNK        -0.1972 
     74 N         -48.7065  -23.8982    6.2282 N.am      3 UNK        -0.4305 
     75 C         -48.5099  -25.2237    6.2869 C.2       2 UNK         0.5006 
     76 O         -48.6922  -25.8981    7.3042 O.2       2 UNK        -0.5106 
     77 CA        -47.9609  -25.9013    5.0253 C.3       2 UNK         0.0296 
     78 CB        -46.4669  -25.5856    4.8274 C.3       2 UNK        -0.2002 
     79 N         -48.1415  -27.3375    5.1901 N.am      2 UNK        -0.4032 
     80 C         -48.3004  -28.2494    4.2246 C.2       1 UNK         0.5000 
     81 O         -48.2183  -27.9978    3.0204 O.2       1 UNK        -0.5238 
     82 H82       -47.1046  -30.7394    8.2639 H         1 UNK         0.0889 
     83 H83       -45.6841  -29.7130    8.0317 H         1 UNK         0.0889 
     84 H84       -45.6229  -31.4234    7.5997 H         1 UNK         0.0889 
     85 H85       -48.6561  -30.1101    6.7564 H         1 UNK         0.3028 
     86 H86       -48.1706  -30.3557    3.9462 H         1 UNK         0.0864 
     87 H87       -50.5522  -29.8227    3.6861 H         1 UNK         0.0720 
     88 H88       -50.3306  -31.0243    4.9193 H         1 UNK         0.0720 
     89 H89       -50.7534  -30.7619    7.3596 H         1 UNK         0.0814 
     90 H90       -52.4138  -30.6898    6.8104 H         1 UNK         0.0814 
     91 H91       -52.8182  -27.6228    7.5263 H         1 UNK         0.1469 
     92 H92       -52.9297  -27.6294   11.7951 H         1 UNK         0.1381 
     93 H93       -51.2997  -30.9975    9.7034 H         1 UNK         0.1206 
     94 H94       -51.6425  -31.1695   12.0550 H         1 UNK         0.0813 
     95 H95       -50.9662  -29.6832   12.6760 H         1 UNK         0.0813 
     96 H96       -55.2000  -31.3477   13.3522 H         1 UNK         0.0638 
     97 H97       -54.1077  -31.7913   12.0673 H         1 UNK         0.0638 
     98 H98       -54.7919  -29.8589   10.7132 H         1 UNK         0.0568 
     99 H99       -57.0268  -32.3644    9.5724 H         1 UNK         0.3450 
    100 H100      -55.3832  -31.7823    9.5293 H         1 UNK         0.3450 
    101 H101      -55.8452  -28.7644   13.1316 H         1 UNK         0.2987 
    102 H102      -56.4863  -25.7302   11.6590 H         1 UNK         0.0766 
    103 H103      -58.7942  -25.5648   12.5785 H         1 UNK         0.0798 
    104 H104      -58.9274  -27.3246   12.6127 H         1 UNK         0.0798 
    105 H105      -58.7913  -26.4763   11.0798 H         1 UNK         0.0798 
    106 H106      -57.1958  -26.7513   14.2685 H         1 UNK         0.3198 
    107 H107      -55.9145  -25.6379   15.9654 H         1 UNK         0.0843 
    108 H108      -55.8832  -28.1659   15.8845 H         1 UNK         0.0831 
    109 H109      -54.8627  -27.5744   17.1825 H         1 UNK         0.0831 
    110 H110      -54.1356  -28.1404   15.6833 H         1 UNK         0.0831 
    111 H111      -53.1685  -25.4163   15.0676 H         1 UNK         0.3133 
    112 H112      -52.0798  -23.3964   16.4394 H         1 UNK         0.0566 
    113 H113      -50.7826  -23.3567   18.5814 H         1 UNK         0.0814 
    114 H114      -52.4724  -22.9458   18.8297 H         1 UNK         0.0814 
    115 H115      -51.8888  -24.5402   19.2781 H         1 UNK         0.0814 
    116 H116      -50.7085  -24.9658   15.7477 H         1 UNK         0.3091 
    117 H117      -49.4804  -28.0392   16.9915 H         1 UNK         0.0702 
    118 H118      -50.1304  -28.8797   14.7590 H         1 UNK         0.0785 
    119 H119      -51.2680  -27.5477   14.5508 H         1 UNK         0.0785 
    120 H120      -51.5433  -28.7601   15.7950 H         1 UNK         0.0785 
    121 H121      -49.0082  -26.5395   14.5773 H         1 UNK         0.2998 
    122 H122      -46.2021  -24.7280   15.9529 H         1 UNK         0.0697 
    123 H123      -46.5170  -26.9159   13.8300 H         1 UNK         0.0825 
    124 H124      -45.4601  -27.0131   15.2333 H         1 UNK         0.0825 
    125 H125      -45.1588  -25.8054   13.9948 H         1 UNK         0.0825 
    126 H126      -47.3698  -24.6276   13.3662 H         1 UNK         0.3029 
    127 H127      -49.5678  -21.8480   14.0337 H         1 UNK         0.0897 
    128 H128      -48.2493  -20.9921   12.0975 H         1 UNK         0.0792 
    129 H129      -47.3015  -20.9301   13.5760 H         1 UNK         0.0792 
    130 H130      -46.9983  -22.1971   12.3966 H         1 UNK         0.0792 
    131 H131      -49.1646  -23.2829   11.6324 H         1 UNK         0.3086 
    132 H132      -51.7200  -25.7356   12.1018 H         1 UNK         0.0583 
    133 H133      -52.8894  -23.8050   11.2672 H         1 UNK         0.1020 
    134 H134      -51.4683  -23.1350   10.5222 H         1 UNK         0.1020 
    135 H135      -54.0451  -25.8715   10.5813 H         1 UNK         0.0694 
    136 H136      -54.4059  -26.1285    8.8952 H         1 UNK         0.0694 
    137 H137      -49.8346  -25.3606   10.0215 H         1 UNK         0.2989 
    138 H138      -47.2620  -27.4809   11.3063 H         1 UNK         0.1055 
    139 H139      -48.8503  -29.0014   10.2131 H         1 UNK         0.0806 
    140 H140      -47.7071  -28.4328    9.0034 H         1 UNK         0.0806 
    141 H141      -49.3392  -27.7704    9.0629 H         1 UNK         0.0806 
    142 H142      -47.6106  -25.8682    8.9282 H         1 UNK         0.3061 
    143 H143      -46.1335  -22.8997   10.2391 H         1 UNK         0.0734 
    144 H144      -44.0964  -24.3053    9.8755 H         1 UNK         0.0832 
    145 H145      -44.7994  -24.9693    8.4075 H         1 UNK         0.0832 
    146 H146      -44.3952  -23.2538    8.5024 H         1 UNK         0.0832 
    147 H147      -46.7461  -23.6547    7.5732 H         1 UNK         0.3156 
    148 H148      -50.2129  -23.4323    7.5767 H         1 UNK         0.0589 
    149 H149      -48.3869  -21.1927    6.5527 H         1 UNK         0.0808 
    150 H150      -50.0281  -21.5334    5.9996 H         1 UNK         0.0808 
    151 H151      -49.7515  -20.9745    7.6395 H         1 UNK         0.0808 
    152 H152      -48.5170  -23.4220    5.3575 H         1 UNK         0.3098 
    153 H153      -48.5375  -25.5568    4.1643 H         1 UNK         0.0720 
    154 H154      -46.0714  -26.0866    3.9435 H         1 UNK         0.0791 
    155 H155      -45.8715  -25.9050    5.6839 H         1 UNK         0.0791 
    156 H156      -46.3014  -24.5163    4.6912 H         1 UNK         0.0791 
    157 H157      -48.3028  -27.6134    6.1513 H         1 UNK         0.3028 
@<TRIPOS>BOND
     1    1    2 1    
     2    1   82 1    
     3    1   83 1    
     4    1   84 1    
     5    2    3 2    
     6    2    4 am   BACKBONE|DICT|INTERRES
     7    4    5 1    
     8    4   85 1    
     9    5    6 1    
    10    5   80 1    
    11    5   86 1    
    12    6    7 1    
    13    6   87 1    
    14    6   88 1    
    15    7    8 1    
    16    8    9 1    
    17    8   89 1    
    18    8   90 1    
    19    9   10 ar   
    20    9   14 ar   
    21   10   11 ar   
    22   10   91 1    
    23   11   12 ar   
    24   11   58 1    
    25   12   13 ar   
    26   12   92 1    
    27   13   14 ar   
    28   13   15 1    
    29   14   93 1    
    30   15   16 1    
    31   15   94 1    
    32   15   95 1    
    33   16   17 1    
    34   17   18 1    
    35   17   96 1    
    36   17   97 1    
    37   18   19 1    
    38   18   22 1    
    39   18   98 1    
    40   19   20 am   BACKBONE|DICT|INTERRES
    41   19   21 2    
    42   20   99 1    
    43   20  100 1    
    44   22   23 am   BACKBONE|DICT|INTERRES
    45   22  101 1    
    46   23   24 2    
    47   23   25 1    
    48   25   26 1    
    49   25   27 1    
    50   25  102 1    
    51   26  103 1    
    52   26  104 1    
    53   26  105 1    
    54   27   28 am   BACKBONE|DICT|INTERRES
    55   27  106 1    
    56   28   29 2    
    57   28   30 1    
    58   30   31 1    
    59   30   32 1    
    60   30  107 1    
    61   31  108 1    
    62   31  109 1    
    63   31  110 1    
    64   32   33 am   BACKBONE|DICT|INTERRES
    65   32  111 1    
    66   33   34 2    
    67   33   35 1    
    68   35   36 1    
    69   35   37 1    
    70   35  112 1    
    71   36  113 1    
    72   36  114 1    
    73   36  115 1    
    74   37   38 am   BACKBONE|DICT|INTERRES
    75   37  116 1    
    76   38   39 2    
    77   38   40 1    
    78   40   41 1    
    79   40   42 1    
    80   40  117 1    
    81   41  118 1    
    82   41  119 1    
    83   41  120 1    
    84   42   43 am   BACKBONE|DICT|INTERRES
    85   42  121 1    
    86   43   44 2    
    87   43   45 1    
    88   45   46 1    
    89   45   47 1    
    90   45  122 1    
    91   46  123 1    
    92   46  124 1    
    93   46  125 1    
    94   47   48 am   BACKBONE|DICT|INTERRES
    95   47  126 1    
    96   48   49 2    
    97   48   50 1    
    98   50   51 1    
    99   50   52 1    
   100   50  127 1    
   101   51  128 1    
   102   51  129 1    
   103   51  130 1    
   104   52   53 am   BACKBONE|DICT|INTERRES
   105   52  131 1    
   106   53   54 2    
   107   53   55 1    
   108   55   56 1    
   109   55   59 1    
   110   55  132 1    
   111   56   57 1    
   112   56  133 1    
   113   56  134 1    
   114   57   58 1    
   115   58  135 1    
   116   58  136 1    
   117   59   60 am   BACKBONE|DICT|INTERRES
   118   59  137 1    
   119   60   61 2    
   120   60   62 1    
   121   62   63 1    
   122   62   64 1    
   123   62  138 1    
   124   63  139 1    
   125   63  140 1    
   126   63  141 1    
   127   64   65 am   BACKBONE|DICT|INTERRES
   128   64  142 1    
   129   65   66 2    
   130   65   67 1    
   131   67   68 1    
   132   67   69 1    
   133   67  143 1    
   134   68  144 1    
   135   68  145 1    
   136   68  146 1    
   137   69   70 am   BACKBONE|DICT|INTERRES
   138   69  147 1    
   139   70   71 2    
   140   70   72 1    
   141   72   73 1    
   142   72   74 1    
   143   72  148 1    
   144   73  149 1    
   145   73  150 1    
   146   73  151 1    
   147   74   75 am   BACKBONE|DICT|INTERRES
   148   74  152 1    
   149   75   76 2    
   150   75   77 1    
   151   77   78 1    
   152   77   79 1    
   153   77  153 1    
   154   78  154 1    
   155   78  155 1    
   156   78  156 1    
   157   79   80 am   BACKBONE|DICT|INTERRES
   158   79  157 1    
   159   80   81 2    
@<TRIPOS>SUBSTRUCTURE
     1 UNK         1 GROUP             0       ****    0 ROOT    
