@<TRIPOS>MOLECULE
3R207
157   159    1
SMALL
USER_CHARGES


@<TRIPOS>ATOM
      1 CA        -45.5025  -28.6000    4.1257 C.3       0 UNK        -0.1975 
      2 C         -46.9807  -28.6758    3.7716 C.2       0 UNK         0.4852 
      3 O         -47.3936  -28.1092    2.7595 O.2       0 UNK        -0.5216 
      4 N         -47.7700  -29.3803    4.5936 N.am      1 UNK        -0.4461 
      5 CA        -49.2249  -29.5091    4.4724 C.3       1 UNK         0.0864 
      6 C6        -49.7123  -30.8193    5.1473 C.3       14 UNK        -0.0898 
      7 S7        -51.5223  -31.0692    5.1268 S.3       14 UNK        -0.2598 
      8 C8        -51.8101  -31.8665    6.7415 C.3       14 UNK         0.0286 
      9 C9        -51.7248  -30.8811    7.9001 C.ar      14 UNK        -0.0844 
     10 C10       -50.5381  -30.7405    8.6261 C.ar      14 UNK        -0.0881 
     11 C11       -50.4599  -29.8372    9.6886 C.ar      14 UNK        -0.0643 
     12 C12       -51.5860  -29.0900   10.0454 C.ar      14 UNK        -0.0930 
     13 C13       -52.7850  -29.2375    9.3429 C.ar      14 UNK        -0.0827 
     14 C14       -52.8455  -30.1290    8.2664 C.ar      14 UNK        -0.1249 
     15 C15       -54.0173  -28.4415    9.7453 C.3       14 UNK         0.0141 
     16 S16       -54.9749  -29.3291   11.0136 S.3       14 UNK        -0.2313 
     17 C17       -56.6010  -28.5034   10.8988 C.3       14 UNK        -0.0915 
     18 CA        -57.1078  -27.8999   12.2389 C.3       13 UNK         0.0968 
     19 C         -57.5358  -28.9799   13.2709 C.2       13 UNK         0.5732 
     20 N         -56.9802  -29.0410   14.4727 N.am      13 UNK        -0.7310 
     21 O         -58.4326  -29.7703   12.9845 O.2       13 UNK        -0.5035 
     22 N         -56.2309  -26.8289   12.7457 N.am      13 UNK        -0.4233 
     23 C         -56.2727  -25.5701   12.2828 C.2       13 UNK         0.4989 
     24 O         -57.0753  -25.1964   11.4245 O.2       13 UNK        -0.4996 
     25 CA        -55.2393  -24.5537   12.8119 C.3       12 UNK         0.0216 
     26 CB        -55.7600  -23.1005   12.7828 C.3       12 UNK        -0.1964 
     27 N         -54.6725  -24.8722   14.1235 N.am      12 UNK        -0.4276 
     28 C         -55.3018  -24.9675   15.3024 C.2       12 UNK         0.5020 
     29 O         -56.5118  -24.7881   15.4536 O.2       12 UNK        -0.5489 
     30 CA        -54.4161  -25.3455   16.5104 C.3       11 UNK         0.0294 
     31 CB        -55.2356  -25.8722   17.7073 C.3       11 UNK        -0.2019 
     32 N         -53.3381  -26.2883   16.1752 N.am      11 UNK        -0.4493 
     33 C         -53.4753  -27.4988   15.6108 C.2       11 UNK         0.4932 
     34 O         -54.5666  -27.9629   15.2816 O.2       11 UNK        -0.5029 
     35 CA        -52.2084  -28.3250   15.3122 C.3       10 UNK         0.0280 
     36 CB        -52.1900  -28.7611   13.8363 C.3       10 UNK        -0.1976 
     37 N         -50.9566  -27.6264   15.6106 N.am      10 UNK        -0.4242 
     38 C         -50.4045  -27.4844   16.8224 C.2       10 UNK         0.5072 
     39 O         -50.8760  -27.9664   17.8527 O.2       10 UNK        -0.5224 
     40 CA        -49.1303  -26.6222   16.9023 C.3       9 UNK         0.0343 
     41 CB        -47.8793  -27.4587   16.5890 C.3       9 UNK        -0.2003 
     42 N         -49.1743  -25.4521   16.0184 N.am      9 UNK        -0.4272 
     43 C         -50.0357  -24.4321   16.1545 C.2       9 UNK         0.4988 
     44 O         -50.8664  -24.3526   17.0602 O.2       9 UNK        -0.5108 
     45 CA        -49.9986  -23.3402   15.0713 C.3       8 UNK         0.0248 
     46 CB        -48.8030  -22.3985   15.2856 C.3       8 UNK        -0.2001 
     47 N         -49.9652  -23.8897   13.7132 N.am      8 UNK        -0.4140 
     48 C         -50.9220  -24.6730   13.1925 C.2       8 UNK         0.5028 
     49 O         -51.9669  -24.9561   13.7741 O.2       8 UNK        -0.5428 
     50 CA        -50.6525  -25.3027   11.8203 C.3       7 UNK         0.0264 
     51 CB        -50.9793  -24.3205   10.6863 C.3       7 UNK        -0.1988 
     52 N         -49.2796  -25.7857   11.6858 N.am      7 UNK        -0.4454 
     53 C         -48.7116  -26.7330   12.4466 C.2       7 UNK         0.5027 
     54 O         -49.3012  -27.3257   13.3481 O.2       7 UNK        -0.5083 
     55 CA        -47.2218  -27.0400   12.1917 C.3       6 UNK         0.0844 
     56 C56       -46.9323  -28.1476   11.1310 C.3       14 UNK        -0.0967 
     57 S57       -48.1284  -28.3578    9.7606 S.3       14 UNK        -0.2604 
     58 C58       -49.1644  -29.6799   10.4634 C.3       14 UNK         0.0134 
     59 N         -46.4783  -25.8031   11.9431 N.am      6 UNK        -0.4116 
     60 C         -46.1303  -24.9353   12.9050 C.2       5 UNK         0.5034 
     61 O         -46.3765  -25.1012   14.1008 O.2       5 UNK        -0.5045 
     62 CA        -45.3996  -23.6569   12.4598 C.3       5 UNK         0.0224 
     63 CB        -43.8985  -23.9286   12.2714 C.3       5 UNK        -0.1978 
     64 N         -45.9496  -23.0707   11.2346 N.am      5 UNK        -0.4737 
     65 C         -47.1723  -22.5312   11.1450 C.2       4 UNK         0.5027 
     66 O         -47.9654  -22.4736   12.0844 O.2       4 UNK        -0.5211 
     67 CA        -47.6002  -22.0045    9.7629 C.3       4 UNK         0.0297 
     68 CB        -47.0074  -20.6077    9.5165 C.3       4 UNK        -0.1993 
     69 N         -47.2934  -22.8784    8.6191 N.am      4 UNK        -0.4486 
     70 C         -47.5408  -24.1934    8.5475 C.2       3 UNK         0.4961 
     71 O         -47.8726  -24.8863    9.5084 O.2       3 UNK        -0.5105 
     72 CA        -47.3863  -24.8678    7.1766 C.3       3 UNK         0.0299 
     73 CB        -45.9832  -25.4772    7.0322 C.3       3 UNK        -0.1972 
     74 N         -48.3854  -25.9290    7.0357 N.am      3 UNK        -0.4305 
     75 C         -49.7056  -25.7211    6.9220 C.2       2 UNK         0.5006 
     76 O         -50.2105  -24.6113    6.7380 O.2       2 UNK        -0.5106 
     77 CA        -50.5998  -26.9687    7.0572 C.3       2 UNK         0.0296 
     78 CB        -52.0781  -26.7018    6.6993 C.3       2 UNK        -0.2002 
     79 N         -50.0716  -28.1236    6.3204 N.am      2 UNK        -0.4032 
     80 C         -49.8885  -28.2154    4.9933 C.2       1 UNK         0.5000 
     81 O         -50.1884  -27.3278    4.1920 O.2       1 UNK        -0.5238 
     82 H82       -45.2902  -29.0504    5.0952 H         1 UNK         0.0889 
     83 H83       -45.1767  -27.5607    4.1579 H         1 UNK         0.0889 
     84 H84       -44.9100  -29.1186    3.3724 H         1 UNK         0.0889 
     85 H85       -47.3562  -29.8268    5.3995 H         1 UNK         0.3028 
     86 H86       -49.4756  -29.5850    3.4117 H         1 UNK         0.0864 
     87 H87       -49.3423  -30.8743    6.1691 H         1 UNK         0.0720 
     88 H88       -49.2649  -31.6728    4.6352 H         1 UNK         0.0720 
     89 H89       -51.1007  -32.6844    6.8776 H         1 UNK         0.0814 
     90 H90       -52.7991  -32.3271    6.7308 H         1 UNK         0.0814 
     91 H91       -49.6721  -31.3354    8.3705 H         1 UNK         0.1469 
     92 H92       -51.5289  -28.4003   10.8750 H         1 UNK         0.1381 
     93 H93       -53.7698  -30.2442    7.7168 H         1 UNK         0.1206 
     94 H94       -54.6399  -28.2658    8.8666 H         1 UNK         0.0813 
     95 H95       -53.7324  -27.4592   10.1256 H         1 UNK         0.0813 
     96 H96       -56.5547  -27.7164   10.1452 H         1 UNK         0.0638 
     97 H97       -57.3197  -29.2273   10.5110 H         1 UNK         0.0638 
     98 H98       -58.0646  -27.4267   12.0090 H         1 UNK         0.0568 
     99 H99       -56.1741  -28.4792   14.7346 H         1 UNK         0.3450 
    100 H100      -57.3076  -29.7467   15.1119 H         1 UNK         0.3450 
    101 H101      -55.5701  -27.0840   13.4682 H         1 UNK         0.2987 
    102 H102      -54.4006  -24.6090   12.1164 H         1 UNK         0.0766 
    103 H103      -55.0005  -22.4006   13.1314 H         1 UNK         0.0798 
    104 H104      -56.6442  -22.9761   13.4087 H         1 UNK         0.0798 
    105 H105      -56.0329  -22.7989   11.7708 H         1 UNK         0.0798 
    106 H106      -53.6593  -25.0191   14.1181 H         1 UNK         0.3198 
    107 H107      -53.9245  -24.4232   16.8239 H         1 UNK         0.0843 
    108 H108      -55.7978  -26.7698   17.4474 H         1 UNK         0.0831 
    109 H109      -55.9542  -25.1261   18.0489 H         1 UNK         0.0831 
    110 H110      -54.5923  -26.1119   18.5538 H         1 UNK         0.0831 
    111 H111      -52.3988  -25.9552   16.3546 H         1 UNK         0.3133 
    112 H112      -52.2577  -29.2238   15.9297 H         1 UNK         0.0566 
    113 H113      -51.3029  -29.3504   13.6035 H         1 UNK         0.0814 
    114 H114      -53.0575  -29.3766   13.5939 H         1 UNK         0.0814 
    115 H115      -52.2063  -27.8999   13.1686 H         1 UNK         0.0814 
    116 H116      -50.4493  -27.2581   14.8082 H         1 UNK         0.3091 
    117 H117      -49.0440  -26.2572   17.9280 H         1 UNK         0.0702 
    118 H118      -46.9695  -26.8679   16.6987 H         1 UNK         0.0785 
    119 H119      -47.8988  -27.8551   15.5737 H         1 UNK         0.0785 
    120 H120      -47.7991  -28.3081   17.2687 H         1 UNK         0.0785 
    121 H121      -48.5246  -25.4401   15.2428 H         1 UNK         0.2998 
    122 H122      -50.9143  -22.7526   15.1642 H         1 UNK         0.0697 
    123 H123      -47.8513  -22.9125   15.1449 H         1 UNK         0.0825 
    124 H124      -48.8063  -21.9839   16.2946 H         1 UNK         0.0825 
    125 H125      -48.8327  -21.5587   14.5911 H         1 UNK         0.0825 
    126 H126      -49.1634  -23.6441   13.1385 H         1 UNK         0.3029 
    127 H127      -51.3135  -26.1645   11.7196 H         1 UNK         0.0897 
    128 H128      -50.3359  -23.4413   10.7181 H         1 UNK         0.0792 
    129 H129      -52.0116  -23.9744   10.7539 H         1 UNK         0.0792 
    130 H130      -50.8566  -24.7885    9.7095 H         1 UNK         0.0792 
    131 H131      -48.7269  -25.3891   10.9239 H         1 UNK         0.3086 
    132 H132      -46.8408  -27.4377   13.1355 H         1 UNK         0.0583 
    133 H133      -45.9455  -27.9957   10.6910 H         1 UNK         0.1020 
    134 H134      -46.8503  -29.1070   11.6448 H         1 UNK         0.1020 
    135 H135      -48.6043  -30.6163   10.4620 H         1 UNK         0.0694 
    136 H136      -49.3914  -29.4616   11.5078 H         1 UNK         0.0694 
    137 H137      -46.3514  -25.5386   10.9750 H         1 UNK         0.2989 
    138 H138      -45.5148  -22.9236   13.2616 H         1 UNK         0.1055 
    139 H139      -43.4621  -24.3503   13.1781 H         1 UNK         0.0806 
    140 H140      -43.3541  -23.0104   12.0499 H         1 UNK         0.0806 
    141 H141      -43.7115  -24.6343   11.4610 H         1 UNK         0.0806 
    142 H142      -45.3714  -23.0917   10.4068 H         1 UNK         0.3061 
    143 H143      -48.6865  -21.9020    9.7888 H         1 UNK         0.0734 
    144 H144      -45.9225  -20.6414    9.4097 H         1 UNK         0.0832 
    145 H145      -47.4202  -20.1526    8.6161 H         1 UNK         0.0832 
    146 H146      -47.2320  -19.9358   10.3464 H         1 UNK         0.0832 
    147 H147      -46.9952  -22.4099    7.7754 H         1 UNK         0.3156 
    148 H148      -47.5423  -24.1297    6.3872 H         1 UNK         0.0589 
    149 H149      -45.7853  -26.2234    7.8035 H         1 UNK         0.0808 
    150 H150      -45.8580  -25.9566    6.0614 H         1 UNK         0.0808 
    151 H151      -45.2124  -24.7099    7.1153 H         1 UNK         0.0808 
    152 H152      -48.0739  -26.8644    7.2506 H         1 UNK         0.3098 
    153 H153      -50.5682  -27.2415    8.1122 H         1 UNK         0.0720 
    154 H154      -52.6781  -27.6065    6.7919 H         1 UNK         0.0791 
    155 H155      -52.1894  -26.3301    5.6805 H         1 UNK         0.0791 
    156 H156      -52.5102  -25.9558    7.3671 H         1 UNK         0.0791 
    157 H157      -49.8252  -28.9193    6.8918 H         1 UNK         0.3028 
@<TRIPOS>BOND
     1    1    2 1    
     2    1   82 1    
     3    1   83 1    
     4    1   84 1    
     5    2    3 2    
     6    2    4 am   BACKBONE|DICT|INTERRES
     7    4    5 1    
     8    4   85 1    
     9    5    6 1    
    10    5   80 1    
    11    5   86 1    
    12    6    7 1    
    13    6   87 1    
    14    6   88 1    
    15    7    8 1    
    16    8    9 1    
    17    8   89 1    
    18    8   90 1    
    19    9   10 ar   
    20    9   14 ar   
    21   10   11 ar   
    22   10   91 1    
    23   11   12 ar   
    24   11   58 1    
    25   12   13 ar   
    26   12   92 1    
    27   13   14 ar   
    28   13   15 1    
    29   14   93 1    
    30   15   16 1    
    31   15   94 1    
    32   15   95 1    
    33   16   17 1    
    34   17   18 1    
    35   17   96 1    
    36   17   97 1    
    37   18   19 1    
    38   18   22 1    
    39   18   98 1    
    40   19   20 am   BACKBONE|DICT|INTERRES
    41   19   21 2    
    42   20   99 1    
    43   20  100 1    
    44   22   23 am   BACKBONE|DICT|INTERRES
    45   22  101 1    
    46   23   24 2    
    47   23   25 1    
    48   25   26 1    
    49   25   27 1    
    50   25  102 1    
    51   26  103 1    
    52   26  104 1    
    53   26  105 1    
    54   27   28 am   BACKBONE|DICT|INTERRES
    55   27  106 1    
    56   28   29 2    
    57   28   30 1    
    58   30   31 1    
    59   30   32 1    
    60   30  107 1    
    61   31  108 1    
    62   31  109 1    
    63   31  110 1    
    64   32   33 am   BACKBONE|DICT|INTERRES
    65   32  111 1    
    66   33   34 2    
    67   33   35 1    
    68   35   36 1    
    69   35   37 1    
    70   35  112 1    
    71   36  113 1    
    72   36  114 1    
    73   36  115 1    
    74   37   38 am   BACKBONE|DICT|INTERRES
    75   37  116 1    
    76   38   39 2    
    77   38   40 1    
    78   40   41 1    
    79   40   42 1    
    80   40  117 1    
    81   41  118 1    
    82   41  119 1    
    83   41  120 1    
    84   42   43 am   BACKBONE|DICT|INTERRES
    85   42  121 1    
    86   43   44 2    
    87   43   45 1    
    88   45   46 1    
    89   45   47 1    
    90   45  122 1    
    91   46  123 1    
    92   46  124 1    
    93   46  125 1    
    94   47   48 am   BACKBONE|DICT|INTERRES
    95   47  126 1    
    96   48   49 2    
    97   48   50 1    
    98   50   51 1    
    99   50   52 1    
   100   50  127 1    
   101   51  128 1    
   102   51  129 1    
   103   51  130 1    
   104   52   53 am   BACKBONE|DICT|INTERRES
   105   52  131 1    
   106   53   54 2    
   107   53   55 1    
   108   55   56 1    
   109   55   59 1    
   110   55  132 1    
   111   56   57 1    
   112   56  133 1    
   113   56  134 1    
   114   57   58 1    
   115   58  135 1    
   116   58  136 1    
   117   59   60 am   BACKBONE|DICT|INTERRES
   118   59  137 1    
   119   60   61 2    
   120   60   62 1    
   121   62   63 1    
   122   62   64 1    
   123   62  138 1    
   124   63  139 1    
   125   63  140 1    
   126   63  141 1    
   127   64   65 am   BACKBONE|DICT|INTERRES
   128   64  142 1    
   129   65   66 2    
   130   65   67 1    
   131   67   68 1    
   132   67   69 1    
   133   67  143 1    
   134   68  144 1    
   135   68  145 1    
   136   68  146 1    
   137   69   70 am   BACKBONE|DICT|INTERRES
   138   69  147 1    
   139   70   71 2    
   140   70   72 1    
   141   72   73 1    
   142   72   74 1    
   143   72  148 1    
   144   73  149 1    
   145   73  150 1    
   146   73  151 1    
   147   74   75 am   BACKBONE|DICT|INTERRES
   148   74  152 1    
   149   75   76 2    
   150   75   77 1    
   151   77   78 1    
   152   77   79 1    
   153   77  153 1    
   154   78  154 1    
   155   78  155 1    
   156   78  156 1    
   157   79   80 am   BACKBONE|DICT|INTERRES
   158   79  157 1    
   159   80   81 2    
@<TRIPOS>SUBSTRUCTURE
     1 UNK         1 GROUP             0       ****    0 ROOT    
