@<TRIPOS>MOLECULE
3R207
157   159    1
SMALL
USER_CHARGES


@<TRIPOS>ATOM
      1 CA        -48.6387  -31.8305    2.3673 C.3       0 UNK        -0.1975 
      2 C         -48.8984  -31.1846    3.7207 C.2       0 UNK         0.4852 
      3 O         -49.1713  -31.8944    4.6899 O.2       0 UNK        -0.5216 
      4 N         -48.8207  -29.8473    3.7849 N.am      1 UNK        -0.4461 
      5 CA        -48.9817  -29.0218    4.9896 C.3       1 UNK         0.0864 
      6 C6        -50.3952  -29.1595    5.6297 C.3       14 UNK        -0.0898 
      7 S7        -50.9246  -27.6689    6.5412 S.3       14 UNK        -0.2598 
      8 C8        -52.7273  -27.7802    6.3397 C.3       14 UNK         0.0286 
      9 C9        -53.4374  -26.8035    7.2620 C.ar      14 UNK        -0.0844 
     10 C10       -53.7270  -25.5070    6.8318 C.ar      14 UNK        -0.0881 
     11 C11       -54.3719  -24.6067    7.6838 C.ar      14 UNK        -0.0643 
     12 C12       -54.7412  -25.0195    8.9688 C.ar      14 UNK        -0.0930 
     13 C13       -54.4559  -26.3148    9.4175 C.ar      14 UNK        -0.0827 
     14 C14       -53.7997  -27.1992    8.5520 C.ar      14 UNK        -0.1249 
     15 C15       -54.8394  -26.6938   10.8500 C.3       14 UNK         0.0141 
     16 S16       -55.0622  -28.4794   11.1761 S.3       14 UNK        -0.2313 
     17 C17       -53.3612  -29.0267   11.5608 C.3       14 UNK        -0.0915 
     18 CA        -53.3109  -30.0638   12.7174 C.3       13 UNK         0.0968 
     19 C         -51.8932  -30.6833   12.8969 C.2       13 UNK         0.5732 
     20 N         -51.4055  -30.9091   14.1122 N.am      13 UNK        -0.7310 
     21 O         -51.2226  -30.9889   11.9140 O.2       13 UNK        -0.5035 
     22 N         -53.8464  -29.5158   13.9732 N.am      13 UNK        -0.4233 
     23 C         -54.8090  -30.0820   14.7109 C.2       13 UNK         0.4989 
     24 O         -55.4271  -31.0928   14.3701 O.2       13 UNK        -0.4996 
     25 CA        -55.1350  -29.4109   16.0626 C.3       12 UNK         0.0216 
     26 CB        -55.8887  -30.3498   17.0288 C.3       12 UNK        -0.1964 
     27 N         -53.9707  -28.8189   16.7355 N.am      12 UNK        -0.4276 
     28 C         -52.8305  -29.4345   17.0929 C.2       12 UNK         0.5020 
     29 O         -52.6036  -30.6241   16.8666 O.2       12 UNK        -0.5489 
     30 CA        -51.7445  -28.5817   17.7797 C.3       11 UNK         0.0294 
     31 CB        -50.3347  -28.9647   17.2921 C.3       11 UNK        -0.2019 
     32 N         -51.9527  -27.1576   17.5207 N.am      11 UNK        -0.4493 
     33 C         -52.3625  -26.2447   18.4118 C.2       11 UNK         0.4932 
     34 O         -52.5306  -26.4817   19.6079 O.2       11 UNK        -0.5029 
     35 CA        -52.6654  -24.8296   17.8771 C.3       10 UNK         0.0280 
     36 CB        -51.4885  -23.8853   18.1679 C.3       10 UNK        -0.1976 
     37 N         -52.9688  -24.7966   16.4413 N.am      10 UNK        -0.4242 
     38 C         -54.0350  -25.3853   15.8735 C.2       10 UNK         0.5072 
     39 O         -54.9187  -25.9530   16.5154 O.2       10 UNK        -0.5224 
     40 CA        -54.0887  -25.4315   14.3344 C.3       9 UNK         0.0343 
     41 CB        -54.9160  -24.2537   13.7974 C.3       9 UNK        -0.2003 
     42 N         -52.7628  -25.4321   13.7058 N.am      9 UNK        -0.4272 
     43 C         -51.8084  -26.3513   13.9305 C.2       9 UNK         0.4988 
     44 O         -52.0121  -27.3735   14.5845 O.2       9 UNK        -0.5108 
     45 CA        -50.3835  -26.0842   13.4047 C.3       8 UNK         0.0248 
     46 CB        -50.0291  -27.0685   12.2801 C.3       8 UNK        -0.2001 
     47 N         -50.1582  -24.7102   12.9452 N.am      8 UNK        -0.4140 
     48 C         -50.2631  -23.6118   13.7137 C.2       8 UNK         0.5028 
     49 O         -50.4532  -23.6525   14.9301 O.2       8 UNK        -0.5428 
     50 CA        -50.2561  -22.2418   13.0067 C.3       7 UNK         0.0264 
     51 CB        -48.9231  -21.5129   13.2298 C.3       7 UNK        -0.1988 
     52 N         -50.5558  -22.3223   11.5709 N.am      7 UNK        -0.4454 
     53 C         -51.7310  -22.7442   11.0725 C.2       7 UNK         0.5027 
     54 O         -52.6931  -23.0315   11.7856 O.2       7 UNK        -0.5083 
     55 CA        -51.8575  -22.9455    9.5475 C.3       6 UNK         0.0844 
     56 C56       -52.8083  -21.8905    8.9311 C.3       14 UNK        -0.0967 
     57 S57       -53.1356  -22.1769    7.1580 S.3       14 UNK        -0.2604 
     58 C58       -54.6534  -23.1864    7.2131 C.3       14 UNK         0.0134 
     59 N         -50.5740  -23.0397    8.8433 N.am      6 UNK        -0.4116 
     60 C         -49.6793  -24.0210    9.0203 C.2       5 UNK         0.5034 
     61 O         -49.8175  -24.9200    9.8530 O.2       5 UNK        -0.5045 
     62 CA        -48.4036  -23.9930    8.1554 C.3       5 UNK         0.0224 
     63 CB        -48.1960  -22.6863    7.3553 C.3       5 UNK        -0.1978 
     64 N         -47.2176  -24.3087    8.9590 N.am      5 UNK        -0.4737 
     65 C         -46.7802  -23.6492   10.0438 C.2       4 UNK         0.5027 
     66 O         -47.2687  -22.5881   10.4328 O.2       4 UNK        -0.5211 
     67 CA        -45.6385  -24.2838   10.8642 C.3       4 UNK         0.0297 
     68 CB        -46.1487  -24.6924   12.2575 C.3       4 UNK        -0.1993 
     69 N         -45.0489  -25.4618   10.2244 N.am      4 UNK        -0.4486 
     70 C         -44.1324  -25.4339    9.2477 C.2       3 UNK         0.4961 
     71 O         -43.6071  -24.4027    8.8279 O.2       3 UNK        -0.5105 
     72 CA        -43.7579  -26.7884    8.6131 C.3       3 UNK         0.0299 
     73 CB        -42.4898  -27.3563    9.2707 C.3       3 UNK        -0.1972 
     74 N         -44.8292  -27.7939    8.6716 N.am      3 UNK        -0.4305 
     75 C         -46.0270  -27.6668    8.0835 C.2       2 UNK         0.5006 
     76 O         -46.3698  -26.6713    7.4419 O.2       2 UNK        -0.5106 
     77 CA        -47.0329  -28.8058    8.3172 C.3       2 UNK         0.0296 
     78 CB        -47.7584  -28.5997    9.6583 C.3       2 UNK        -0.2002 
     79 N         -48.0354  -28.8586    7.2537 N.am      2 UNK        -0.4032 
     80 C         -47.8088  -29.2173    5.9839 C.2       1 UNK         0.5000 
     81 O         -46.7223  -29.6492    5.5846 O.2       1 UNK        -0.5238 
     82 H82       -47.7877  -32.5081    2.4330 H         1 UNK         0.0889 
     83 H83       -48.4243  -31.0910    1.5957 H         1 UNK         0.0889 
     84 H84       -49.5093  -32.4055    2.0528 H         1 UNK         0.0889 
     85 H85       -48.5613  -29.3361    2.9526 H         1 UNK         0.3028 
     86 H86       -48.8807  -27.9962    4.6308 H         1 UNK         0.0864 
     87 H87       -51.1298  -29.3370    4.8423 H         1 UNK         0.0720 
     88 H88       -50.4546  -30.0289    6.2875 H         1 UNK         0.0720 
     89 H89       -53.0567  -28.7982    6.5545 H         1 UNK         0.0814 
     90 H90       -52.9912  -27.5825    5.2996 H         1 UNK         0.0814 
     91 H91       -53.4354  -25.1907    5.8394 H         1 UNK         0.1469 
     92 H92       -55.2326  -24.3203    9.6318 H         1 UNK         0.1381 
     93 H93       -53.5571  -28.2007    8.8714 H         1 UNK         0.1206 
     94 H94       -54.0870  -26.2899   11.5239 H         1 UNK         0.0813 
     95 H95       -55.7777  -26.2011   11.1090 H         1 UNK         0.0813 
     96 H96       -52.9439  -29.4572   10.6497 H         1 UNK         0.0638 
     97 H97       -52.7421  -28.1636   11.8005 H         1 UNK         0.0638 
     98 H98       -53.9274  -30.9064   12.4012 H         1 UNK         0.0568 
     99 H99       -51.9515  -30.7221   14.9455 H         1 UNK         0.3450 
    100 H100      -50.4901  -31.3189   14.1984 H         1 UNK         0.3450 
    101 H101      -53.3351  -28.7194   14.3431 H         1 UNK         0.2987 
    102 H102      -55.8013  -28.5799   15.8264 H         1 UNK         0.0766 
    103 H103      -55.2989  -31.2341   17.2730 H         1 UNK         0.0798 
    104 H104      -56.1359  -29.8434   17.9617 H         1 UNK         0.0798 
    105 H105      -56.8270  -30.6940   16.5920 H         1 UNK         0.0798 
    106 H106      -54.0587  -27.8287   16.9369 H         1 UNK         0.3198 
    107 H107      -51.8063  -28.7892   18.8499 H         1 UNK         0.0843 
    108 H108      -50.1070  -30.0061   17.5230 H         1 UNK         0.0831 
    109 H109      -49.5698  -28.3546   17.7726 H         1 UNK         0.0831 
    110 H110      -50.2346  -28.8400   16.2129 H         1 UNK         0.0831 
    111 H111      -51.8727  -26.8891   16.5455 H         1 UNK         0.3133 
    112 H112      -53.5423  -24.4577   18.4109 H         1 UNK         0.0566 
    113 H113      -51.7066  -22.8666   17.8470 H         1 UNK         0.0814 
    114 H114      -51.2711  -23.8489   19.2363 H         1 UNK         0.0814 
    115 H115      -50.5782  -24.2080   17.6607 H         1 UNK         0.0814 
    116 H116      -52.2692  -24.3675   15.8438 H         1 UNK         0.3091 
    117 H117      -54.5878  -26.3607   14.0515 H         1 UNK         0.0702 
    118 H118      -55.0277  -24.3013   12.7146 H         1 UNK         0.0785 
    119 H119      -54.4557  -23.2951   14.0407 H         1 UNK         0.0785 
    120 H120      -55.9194  -24.2531   14.2257 H         1 UNK         0.0785 
    121 H121      -52.5416  -24.6246   13.1327 H         1 UNK         0.2998 
    122 H122      -49.7020  -26.2640   14.2385 H         1 UNK         0.0697 
    123 H123      -50.6723  -26.9373   11.4091 H         1 UNK         0.0825 
    124 H124      -50.1356  -28.1018   12.6133 H         1 UNK         0.0825 
    125 H125      -48.9973  -26.9405   11.9550 H         1 UNK         0.0825 
    126 H126      -50.0148  -24.5938   11.9473 H         1 UNK         0.3029 
    127 H127      -51.0440  -21.6441   13.4703 H         1 UNK         0.0897 
    128 H128      -48.9238  -20.5272   12.7643 H         1 UNK         0.0792 
    129 H129      -48.7341  -21.3681   14.2944 H         1 UNK         0.0792 
    130 H130      -48.0822  -22.0745   12.8274 H         1 UNK         0.0792 
    131 H131      -49.7913  -22.1365   10.9346 H         1 UNK         0.3086 
    132 H132      -52.3256  -23.9227    9.4318 H         1 UNK         0.0583 
    133 H133      -53.7611  -21.8712    9.4643 H         1 UNK         0.1020 
    134 H134      -52.3857  -20.8899    9.0405 H         1 UNK         0.1020 
    135 H135      -55.3968  -22.7020    7.8481 H         1 UNK         0.0694 
    136 H136      -55.0865  -23.2216    6.2124 H         1 UNK         0.0694 
    137 H137      -50.3952  -22.3353    8.1430 H         1 UNK         0.2989 
    138 H138      -48.5126  -24.8092    7.4389 H         1 UNK         0.1055 
    139 H139      -47.2692  -22.7256    6.7827 H         1 UNK         0.0806 
    140 H140      -48.1440  -21.8096    8.0020 H         1 UNK         0.0806 
    141 H141      -49.0016  -22.5267    6.6375 H         1 UNK         0.0806 
    142 H142      -46.7489  -25.1686    8.6928 H         1 UNK         0.3061 
    143 H143      -44.8638  -23.5244   10.9907 H         1 UNK         0.0734 
    144 H144      -46.5111  -23.8262   12.8109 H         1 UNK         0.0832 
    145 H145      -46.9723  -25.4047   12.1947 H         1 UNK         0.0832 
    146 H146      -45.3569  -25.1432   12.8560 H         1 UNK         0.0832 
    147 H147      -45.4117  -26.3599   10.5075 H         1 UNK         0.3156 
    148 H148      -43.5404  -26.6026    7.5592 H         1 UNK         0.0589 
    149 H149      -42.6497  -27.5901   10.3241 H         1 UNK         0.0808 
    150 H150      -42.1550  -28.2653    8.7705 H         1 UNK         0.0808 
    151 H151      -41.6687  -26.6399    9.2177 H         1 UNK         0.0808 
    152 H152      -44.6287  -28.6381    9.1897 H         1 UNK         0.3098 
    153 H153      -46.4972  -29.7571    8.3369 H         1 UNK         0.0720 
    154 H154      -48.4747  -29.3992    9.8503 H         1 UNK         0.0791 
    155 H155      -48.3027  -27.6537    9.6780 H         1 UNK         0.0791 
    156 H156      -47.0565  -28.5914   10.4929 H         1 UNK         0.0791 
    157 H157      -48.9443  -28.4693    7.4690 H         1 UNK         0.3028 
@<TRIPOS>BOND
     1    1    2 1    
     2    1   82 1    
     3    1   83 1    
     4    1   84 1    
     5    2    3 2    
     6    2    4 am   BACKBONE|DICT|INTERRES
     7    4    5 1    
     8    4   85 1    
     9    5    6 1    
    10    5   80 1    
    11    5   86 1    
    12    6    7 1    
    13    6   87 1    
    14    6   88 1    
    15    7    8 1    
    16    8    9 1    
    17    8   89 1    
    18    8   90 1    
    19    9   10 ar   
    20    9   14 ar   
    21   10   11 ar   
    22   10   91 1    
    23   11   12 ar   
    24   11   58 1    
    25   12   13 ar   
    26   12   92 1    
    27   13   14 ar   
    28   13   15 1    
    29   14   93 1    
    30   15   16 1    
    31   15   94 1    
    32   15   95 1    
    33   16   17 1    
    34   17   18 1    
    35   17   96 1    
    36   17   97 1    
    37   18   19 1    
    38   18   22 1    
    39   18   98 1    
    40   19   20 am   BACKBONE|DICT|INTERRES
    41   19   21 2    
    42   20   99 1    
    43   20  100 1    
    44   22   23 am   BACKBONE|DICT|INTERRES
    45   22  101 1    
    46   23   24 2    
    47   23   25 1    
    48   25   26 1    
    49   25   27 1    
    50   25  102 1    
    51   26  103 1    
    52   26  104 1    
    53   26  105 1    
    54   27   28 am   BACKBONE|DICT|INTERRES
    55   27  106 1    
    56   28   29 2    
    57   28   30 1    
    58   30   31 1    
    59   30   32 1    
    60   30  107 1    
    61   31  108 1    
    62   31  109 1    
    63   31  110 1    
    64   32   33 am   BACKBONE|DICT|INTERRES
    65   32  111 1    
    66   33   34 2    
    67   33   35 1    
    68   35   36 1    
    69   35   37 1    
    70   35  112 1    
    71   36  113 1    
    72   36  114 1    
    73   36  115 1    
    74   37   38 am   BACKBONE|DICT|INTERRES
    75   37  116 1    
    76   38   39 2    
    77   38   40 1    
    78   40   41 1    
    79   40   42 1    
    80   40  117 1    
    81   41  118 1    
    82   41  119 1    
    83   41  120 1    
    84   42   43 am   BACKBONE|DICT|INTERRES
    85   42  121 1    
    86   43   44 2    
    87   43   45 1    
    88   45   46 1    
    89   45   47 1    
    90   45  122 1    
    91   46  123 1    
    92   46  124 1    
    93   46  125 1    
    94   47   48 am   BACKBONE|DICT|INTERRES
    95   47  126 1    
    96   48   49 2    
    97   48   50 1    
    98   50   51 1    
    99   50   52 1    
   100   50  127 1    
   101   51  128 1    
   102   51  129 1    
   103   51  130 1    
   104   52   53 am   BACKBONE|DICT|INTERRES
   105   52  131 1    
   106   53   54 2    
   107   53   55 1    
   108   55   56 1    
   109   55   59 1    
   110   55  132 1    
   111   56   57 1    
   112   56  133 1    
   113   56  134 1    
   114   57   58 1    
   115   58  135 1    
   116   58  136 1    
   117   59   60 am   BACKBONE|DICT|INTERRES
   118   59  137 1    
   119   60   61 2    
   120   60   62 1    
   121   62   63 1    
   122   62   64 1    
   123   62  138 1    
   124   63  139 1    
   125   63  140 1    
   126   63  141 1    
   127   64   65 am   BACKBONE|DICT|INTERRES
   128   64  142 1    
   129   65   66 2    
   130   65   67 1    
   131   67   68 1    
   132   67   69 1    
   133   67  143 1    
   134   68  144 1    
   135   68  145 1    
   136   68  146 1    
   137   69   70 am   BACKBONE|DICT|INTERRES
   138   69  147 1    
   139   70   71 2    
   140   70   72 1    
   141   72   73 1    
   142   72   74 1    
   143   72  148 1    
   144   73  149 1    
   145   73  150 1    
   146   73  151 1    
   147   74   75 am   BACKBONE|DICT|INTERRES
   148   74  152 1    
   149   75   76 2    
   150   75   77 1    
   151   77   78 1    
   152   77   79 1    
   153   77  153 1    
   154   78  154 1    
   155   78  155 1    
   156   78  156 1    
   157   79   80 am   BACKBONE|DICT|INTERRES
   158   79  157 1    
   159   80   81 2    
@<TRIPOS>SUBSTRUCTURE
     1 UNK         1 GROUP             0       ****    0 ROOT    
