@<TRIPOS>MOLECULE
3R207
157   159    1
SMALL
USER_CHARGES


@<TRIPOS>ATOM
      1 CA        -51.4946  -24.5987    1.7353 C.3       0 UNK        -0.1975 
      2 C         -50.7005  -25.1483    2.9109 C.2       0 UNK         0.4852 
      3 O         -50.1345  -26.2351    2.7987 O.2       0 UNK        -0.5216 
      4 N         -50.6447  -24.3875    4.0148 N.am      1 UNK        -0.4461 
      5 CA        -50.0151  -24.6391    5.3252 C.3       1 UNK         0.0864 
      6 C6        -50.7559  -25.6918    6.1977 C.3       14 UNK        -0.0898 
      7 S7        -50.4324  -27.4486    5.8067 S.3       14 UNK        -0.2598 
      8 C8        -51.9822  -28.2294    6.3510 C.3       14 UNK         0.0286 
      9 C9        -52.1325  -28.1793    7.8642 C.ar      14 UNK        -0.0844 
     10 C10       -51.3970  -29.0530    8.6683 C.ar      14 UNK        -0.0881 
     11 C11       -51.5236  -29.0150   10.0588 C.ar      14 UNK        -0.0643 
     12 C12       -52.3960  -28.0928   10.6451 C.ar      14 UNK        -0.0930 
     13 C13       -53.1595  -27.2257    9.8503 C.ar      14 UNK        -0.0827 
     14 C14       -53.0128  -27.2718    8.4602 C.ar      14 UNK        -0.1249 
     15 C15       -54.1366  -26.2204   10.4617 C.3       14 UNK         0.0141 
     16 S16       -55.0219  -26.8417   11.9302 S.3       14 UNK        -0.2313 
     17 C17       -55.9889  -28.1977   11.1836 C.3       14 UNK        -0.0915 
     18 CA        -57.2486  -28.5575   12.0112 C.3       13 UNK         0.0968 
     19 C         -58.1398  -29.5859   11.2560 C.2       13 UNK         0.5732 
     20 N         -58.3337  -30.7998   11.7587 N.am      13 UNK        -0.7310 
     21 O         -58.6756  -29.2708   10.1960 O.2       13 UNK        -0.5035 
     22 N         -56.8861  -28.9548   13.3785 N.am      13 UNK        -0.4233 
     23 C         -57.6915  -28.9184   14.4426 C.2       13 UNK         0.4989 
     24 O         -58.8632  -28.5414   14.3996 O.2       13 UNK        -0.4996 
     25 CA        -57.0985  -29.3601   15.7938 C.3       12 UNK         0.0216 
     26 CB        -57.3090  -30.8701   16.0202 C.3       12 UNK        -0.1964 
     27 N         -55.6956  -28.9734   16.0189 N.am      12 UNK        -0.4276 
     28 C         -54.5815  -29.3860   15.3995 C.2       12 UNK         0.5020 
     29 O         -54.5783  -30.1679   14.4463 O.2       12 UNK        -0.5489 
     30 CA        -53.2550  -28.7971   15.9211 C.3       11 UNK         0.0294 
     31 CB        -52.0349  -29.5803   15.4058 C.3       11 UNK        -0.2019 
     32 N         -53.0831  -27.3851   15.5697 N.am      11 UNK        -0.4493 
     33 C         -53.7900  -26.3581   16.0600 C.2       11 UNK         0.4932 
     34 O         -54.6989  -26.4837   16.8846 O.2       11 UNK        -0.5029 
     35 CA        -53.3776  -24.9609   15.5625 C.3       10 UNK         0.0280 
     36 CB        -54.2532  -23.8272   16.1353 C.3       10 UNK        -0.1976 
     37 N         -51.9549  -24.6939   15.7994 N.am      10 UNK        -0.4242 
     38 C         -51.2997  -24.6927   16.9720 C.2       10 UNK         0.5072 
     39 O         -51.8408  -24.8603   18.0658 O.2       10 UNK        -0.5224 
     40 CA        -49.7717  -24.4888   16.9329 C.3       9 UNK         0.0343 
     41 CB        -49.0563  -25.8215   17.2084 C.3       9 UNK        -0.2003 
     42 N         -49.2784  -23.9365   15.6683 N.am      9 UNK        -0.4272 
     43 C         -49.4540  -22.6694   15.2660 C.2       9 UNK         0.4988 
     44 O         -49.9781  -21.7961   15.9578 O.2       9 UNK        -0.5108 
     45 CA        -49.0071  -22.3311   13.8326 C.3       8 UNK         0.0248 
     46 CB        -47.5025  -22.0200   13.7885 C.3       8 UNK        -0.2001 
     47 N         -49.3177  -23.3977   12.8758 N.am      8 UNK        -0.4140 
     48 C         -50.5533  -23.8239   12.5750 C.2       8 UNK         0.5028 
     49 O         -51.5814  -23.3183   13.0230 O.2       8 UNK        -0.5428 
     50 CA        -50.6637  -25.0659   11.6822 C.3       7 UNK         0.0264 
     51 CB        -50.4976  -24.7203   10.1946 C.3       7 UNK        -0.1988 
     52 N         -49.6983  -26.0910   12.0671 N.am      7 UNK        -0.4454 
     53 C         -49.8332  -26.8886   13.1363 C.2       7 UNK         0.5027 
     54 O         -50.8190  -26.8771   13.8754 O.2       7 UNK        -0.5083 
     55 CA        -48.6587  -27.8379   13.4570 C.3       6 UNK         0.0844 
     56 C56       -48.9112  -29.2851   12.9749 C.3       14 UNK        -0.0967 
     57 S57       -49.0173  -29.4673   11.1597 S.3       14 UNK        -0.2604 
     58 C58       -50.7436  -29.9995   10.9159 C.3       14 UNK         0.0134 
     59 N         -47.3684  -27.3183   12.9942 N.am      6 UNK        -0.4116 
     60 C         -46.7499  -26.2650   13.5423 C.2       5 UNK         0.5034 
     61 O         -47.2062  -25.6158   14.4831 O.2       5 UNK        -0.5045 
     62 CA        -45.4186  -25.8391   12.9088 C.3       5 UNK         0.0224 
     63 CB        -44.2848  -26.7901   13.3243 C.3       5 UNK        -0.1978 
     64 N         -45.4593  -25.7301   11.4472 N.am      5 UNK        -0.4737 
     65 C         -46.2628  -24.9180   10.7499 C.2       4 UNK         0.5027 
     66 O         -47.1843  -24.2772   11.2523 O.2       4 UNK        -0.5211 
     67 CA        -45.9687  -24.7570    9.2495 C.3       4 UNK         0.0297 
     68 CB        -44.4973  -24.3755    8.9870 C.3       4 UNK        -0.1993 
     69 N         -46.3731  -25.8928    8.4168 N.am      4 UNK        -0.4486 
     70 C         -45.9397  -27.1632    8.4591 C.2       3 UNK         0.4961 
     71 O         -45.1551  -27.5998    9.3021 O.2       3 UNK        -0.5105 
     72 CA        -46.4382  -28.1086    7.3467 C.3       3 UNK         0.0299 
     73 CB        -47.6391  -28.9296    7.8372 C.3       3 UNK        -0.1972 
     74 N         -46.8051  -27.4098    6.1115 N.am      3 UNK        -0.4305 
     75 C         -45.9457  -26.7555    5.3144 C.2       2 UNK         0.5006 
     76 O         -44.7240  -26.7733    5.4690 O.2       2 UNK        -0.5106 
     77 CA        -46.5369  -25.9177    4.1631 C.3       2 UNK         0.0296 
     78 CB        -46.3634  -26.6481    2.8216 C.3       2 UNK        -0.2002 
     79 N         -47.9493  -25.5605    4.3292 N.am      2 UNK        -0.4032 
     80 C         -48.4827  -24.8435    5.3263 C.2       1 UNK         0.5000 
     81 O         -47.8177  -24.3749    6.2523 O.2       1 UNK        -0.5238 
     82 H82       -50.8469  -24.4839    0.8665 H         1 UNK         0.0889 
     83 H83       -51.9390  -23.6287    1.9577 H         1 UNK         0.0889 
     84 H84       -52.2977  -25.2868    1.4729 H         1 UNK         0.0889 
     85 H85       -51.1151  -23.4938    3.9704 H         1 UNK         0.3028 
     86 H86       -50.1528  -23.6877    5.8422 H         1 UNK         0.0864 
     87 H87       -51.8300  -25.5078    6.1489 H         1 UNK         0.0720 
     88 H88       -50.4853  -25.5456    7.2437 H         1 UNK         0.0720 
     89 H89       -51.9877  -29.2691    6.0208 H         1 UNK         0.0814 
     90 H90       -52.8280  -27.7493    5.8565 H         1 UNK         0.0814 
     91 H91       -50.7202  -29.7617    8.2108 H         1 UNK         0.1469 
     92 H92       -52.4887  -28.0612   11.7219 H         1 UNK         0.1381 
     93 H93       -53.5866  -26.5989    7.8377 H         1 UNK         0.1206 
     94 H94       -54.8795  -25.9193    9.7214 H         1 UNK         0.0813 
     95 H95       -53.6004  -25.3109   10.7287 H         1 UNK         0.0813 
     96 H96       -56.2724  -27.8990   10.1726 H         1 UNK         0.0638 
     97 H97       -55.3380  -29.0675   11.0766 H         1 UNK         0.0638 
     98 H98       -57.8533  -27.6521   12.0888 H         1 UNK         0.0568 
     99 H99       -58.9179  -31.4531   11.2613 H         1 UNK         0.3450 
    100 H100      -57.8969  -31.0682   12.6254 H         1 UNK         0.3450 
    101 H101      -55.9476  -29.3226   13.5139 H         1 UNK         0.2987 
    102 H102      -57.6678  -28.8341   16.5619 H         1 UNK         0.0766 
    103 H103      -56.9729  -31.1722   17.0120 H         1 UNK         0.0798 
    104 H104      -56.7726  -31.4731   15.2870 H         1 UNK         0.0798 
    105 H105      -58.3653  -31.1316   15.9433 H         1 UNK         0.0798 
    106 H106      -55.5626  -28.2143   16.6836 H         1 UNK         0.3198 
    107 H107      -53.2657  -28.8774   17.0102 H         1 UNK         0.0843 
    108 H108      -51.9667  -29.5319   14.3188 H         1 UNK         0.0831 
    109 H109      -52.0995  -30.6333   15.6829 H         1 UNK         0.0831 
    110 H110      -51.1053  -29.1898   15.8204 H         1 UNK         0.0831 
    111 H111      -52.3372  -27.1780   14.9068 H         1 UNK         0.3133 
    112 H112      -53.5122  -24.9665   14.4795 H         1 UNK         0.0566 
    113 H113      -53.9585  -22.8589   15.7306 H         1 UNK         0.0814 
    114 H114      -55.3025  -23.9801   15.8804 H         1 UNK         0.0814 
    115 H115      -54.1878  -23.7710   17.2224 H         1 UNK         0.0814 
    116 H116      -51.4091  -24.5402   14.9615 H         1 UNK         0.3091 
    117 H117      -49.5137  -23.7909   17.7322 H         1 UNK         0.0702 
    118 H118      -47.9735  -25.6961   17.2277 H         1 UNK         0.0785 
    119 H119      -49.2955  -26.5678   16.4506 H         1 UNK         0.0785 
    120 H120      -49.3523  -26.2324   18.1746 H         1 UNK         0.0785 
    121 H121      -48.7478  -24.5668   15.0732 H         1 UNK         0.2998 
    122 H122      -49.5504  -21.4378   13.5178 H         1 UNK         0.0697 
    123 H123      -46.9021  -22.8854   14.0711 H         1 UNK         0.0825 
    124 H124      -47.2507  -21.2090   14.4730 H         1 UNK         0.0825 
    125 H125      -47.1913  -21.7114   12.7902 H         1 UNK         0.0825 
    126 H126      -48.5256  -23.8344   12.4060 H         1 UNK         0.3029 
    127 H127      -51.6613  -25.4798   11.8281 H         1 UNK         0.0897 
    128 H128      -50.6111  -25.6114    9.5775 H         1 UNK         0.0792 
    129 H129      -49.5225  -24.2840    9.9781 H         1 UNK         0.0792 
    130 H130      -51.2555  -24.0045    9.8745 H         1 UNK         0.0792 
    131 H131      -48.8461  -26.1430   11.5280 H         1 UNK         0.3086 
    132 H132      -48.6029  -27.8854   14.5465 H         1 UNK         0.0583 
    133 H133      -48.0964  -29.9237   13.3198 H         1 UNK         0.1020 
    134 H134      -49.8000  -29.6903   13.4563 H         1 UNK         0.1020 
    135 H135      -50.7377  -30.9762   10.4298 H         1 UNK         0.0694 
    136 H136      -51.2542  -30.1483   11.8676 H         1 UNK         0.0694 
    137 H137      -46.9440  -27.7849   12.2051 H         1 UNK         0.2989 
    138 H138      -45.1855  -24.8459   13.2988 H         1 UNK         0.1055 
    139 H139      -44.2318  -26.8852   14.4100 H         1 UNK         0.0806 
    140 H140      -43.3159  -26.4218   12.9864 H         1 UNK         0.0806 
    141 H141      -44.4233  -27.7914   12.9145 H         1 UNK         0.0806 
    142 H142      -44.8118  -26.3025   10.9165 H         1 UNK         0.3061 
    143 H143      -46.5789  -23.9183    8.9096 H         1 UNK         0.0734 
    144 H144      -44.3435  -24.1097    7.9410 H         1 UNK         0.0832 
    145 H145      -44.2048  -23.5120    9.5860 H         1 UNK         0.0832 
    146 H146      -43.8081  -25.1859    9.2254 H         1 UNK         0.0832 
    147 H147      -47.0077  -25.6412    7.6656 H         1 UNK         0.3156 
    148 H148      -45.6261  -28.7991    7.1099 H         1 UNK         0.0589 
    149 H149      -48.4656  -28.2906    8.1520 H         1 UNK         0.0808 
    150 H150      -48.0094  -29.6024    7.0636 H         1 UNK         0.0808 
    151 H151      -47.3584  -29.5460    8.6917 H         1 UNK         0.0808 
    152 H152      -47.7911  -27.3609    5.8926 H         1 UNK         0.3098 
    153 H153      -45.9698  -24.9856    4.1229 H         1 UNK         0.0720 
    154 H154      -46.6868  -26.0261    1.9867 H         1 UNK         0.0791 
    155 H155      -46.9384  -27.5746    2.7917 H         1 UNK         0.0791 
    156 H156      -45.3177  -26.9054    2.6467 H         1 UNK         0.0791 
    157 H157      -48.6077  -25.9348    3.6457 H         1 UNK         0.3028 
@<TRIPOS>BOND
     1    1    2 1    
     2    1   82 1    
     3    1   83 1    
     4    1   84 1    
     5    2    3 2    
     6    2    4 am   BACKBONE|DICT|INTERRES
     7    4    5 1    
     8    4   85 1    
     9    5    6 1    
    10    5   80 1    
    11    5   86 1    
    12    6    7 1    
    13    6   87 1    
    14    6   88 1    
    15    7    8 1    
    16    8    9 1    
    17    8   89 1    
    18    8   90 1    
    19    9   10 ar   
    20    9   14 ar   
    21   10   11 ar   
    22   10   91 1    
    23   11   12 ar   
    24   11   58 1    
    25   12   13 ar   
    26   12   92 1    
    27   13   14 ar   
    28   13   15 1    
    29   14   93 1    
    30   15   16 1    
    31   15   94 1    
    32   15   95 1    
    33   16   17 1    
    34   17   18 1    
    35   17   96 1    
    36   17   97 1    
    37   18   19 1    
    38   18   22 1    
    39   18   98 1    
    40   19   20 am   BACKBONE|DICT|INTERRES
    41   19   21 2    
    42   20   99 1    
    43   20  100 1    
    44   22   23 am   BACKBONE|DICT|INTERRES
    45   22  101 1    
    46   23   24 2    
    47   23   25 1    
    48   25   26 1    
    49   25   27 1    
    50   25  102 1    
    51   26  103 1    
    52   26  104 1    
    53   26  105 1    
    54   27   28 am   BACKBONE|DICT|INTERRES
    55   27  106 1    
    56   28   29 2    
    57   28   30 1    
    58   30   31 1    
    59   30   32 1    
    60   30  107 1    
    61   31  108 1    
    62   31  109 1    
    63   31  110 1    
    64   32   33 am   BACKBONE|DICT|INTERRES
    65   32  111 1    
    66   33   34 2    
    67   33   35 1    
    68   35   36 1    
    69   35   37 1    
    70   35  112 1    
    71   36  113 1    
    72   36  114 1    
    73   36  115 1    
    74   37   38 am   BACKBONE|DICT|INTERRES
    75   37  116 1    
    76   38   39 2    
    77   38   40 1    
    78   40   41 1    
    79   40   42 1    
    80   40  117 1    
    81   41  118 1    
    82   41  119 1    
    83   41  120 1    
    84   42   43 am   BACKBONE|DICT|INTERRES
    85   42  121 1    
    86   43   44 2    
    87   43   45 1    
    88   45   46 1    
    89   45   47 1    
    90   45  122 1    
    91   46  123 1    
    92   46  124 1    
    93   46  125 1    
    94   47   48 am   BACKBONE|DICT|INTERRES
    95   47  126 1    
    96   48   49 2    
    97   48   50 1    
    98   50   51 1    
    99   50   52 1    
   100   50  127 1    
   101   51  128 1    
   102   51  129 1    
   103   51  130 1    
   104   52   53 am   BACKBONE|DICT|INTERRES
   105   52  131 1    
   106   53   54 2    
   107   53   55 1    
   108   55   56 1    
   109   55   59 1    
   110   55  132 1    
   111   56   57 1    
   112   56  133 1    
   113   56  134 1    
   114   57   58 1    
   115   58  135 1    
   116   58  136 1    
   117   59   60 am   BACKBONE|DICT|INTERRES
   118   59  137 1    
   119   60   61 2    
   120   60   62 1    
   121   62   63 1    
   122   62   64 1    
   123   62  138 1    
   124   63  139 1    
   125   63  140 1    
   126   63  141 1    
   127   64   65 am   BACKBONE|DICT|INTERRES
   128   64  142 1    
   129   65   66 2    
   130   65   67 1    
   131   67   68 1    
   132   67   69 1    
   133   67  143 1    
   134   68  144 1    
   135   68  145 1    
   136   68  146 1    
   137   69   70 am   BACKBONE|DICT|INTERRES
   138   69  147 1    
   139   70   71 2    
   140   70   72 1    
   141   72   73 1    
   142   72   74 1    
   143   72  148 1    
   144   73  149 1    
   145   73  150 1    
   146   73  151 1    
   147   74   75 am   BACKBONE|DICT|INTERRES
   148   74  152 1    
   149   75   76 2    
   150   75   77 1    
   151   77   78 1    
   152   77   79 1    
   153   77  153 1    
   154   78  154 1    
   155   78  155 1    
   156   78  156 1    
   157   79   80 am   BACKBONE|DICT|INTERRES
   158   79  157 1    
   159   80   81 2    
@<TRIPOS>SUBSTRUCTURE
     1 UNK         1 GROUP             0       ****    0 ROOT    
