@<TRIPOS>MOLECULE
3R207
157   159    1
SMALL
USER_CHARGES


@<TRIPOS>ATOM
      1 CA        -50.7025  -30.5206    2.0109 C.3       0 UNK        -0.1975 
      2 C         -50.4263  -29.5652    3.1629 C.2       0 UNK         0.4852 
      3 O         -51.1224  -28.5580    3.3016 O.2       0 UNK        -0.5216 
      4 N         -49.4234  -29.8791    3.9928 N.am      1 UNK        -0.4461 
      5 CA        -48.9852  -29.0565    5.1253 C.3       1 UNK         0.0864 
      6 C6        -48.1397  -29.8746    6.1348 C.3       14 UNK        -0.0898 
      7 S7        -49.0999  -31.1896    6.9631 S.3       14 UNK        -0.2598 
      8 C8        -49.0224  -30.6903    8.7190 C.3       14 UNK         0.0286 
      9 C9        -50.2917  -29.9928    9.1970 C.ar      14 UNK        -0.0844 
     10 C10       -50.7238  -28.7972    8.6118 C.ar      14 UNK        -0.0881 
     11 C11       -51.9056  -28.1775    9.0350 C.ar      14 UNK        -0.0643 
     12 C12       -52.6349  -28.7464   10.0811 C.ar      14 UNK        -0.0930 
     13 C13       -52.2045  -29.9277   10.6913 C.ar      14 UNK        -0.0827 
     14 C14       -51.0366  -30.5486   10.2420 C.ar      14 UNK        -0.1249 
     15 C15       -53.0104  -30.5314   11.8290 C.3       14 UNK         0.0141 
     16 S16       -54.5181  -31.3393   11.2088 S.3       14 UNK        -0.2313 
     17 C17       -55.4874  -31.4885   12.7457 C.3       14 UNK        -0.0915 
     18 CA        -56.5232  -30.3433   12.9116 C.3       13 UNK         0.0968 
     19 C         -57.4394  -30.6106   14.1309 C.2       13 UNK         0.5732 
     20 N         -58.5752  -31.2624   13.9251 N.am      13 UNK        -0.7310 
     21 O         -57.1130  -30.2644   15.2654 O.2       13 UNK        -0.5035 
     22 N         -55.8641  -29.0429   13.0732 N.am      13 UNK        -0.4233 
     23 C         -55.8796  -28.0330   12.1966 C.2       13 UNK         0.4989 
     24 O         -56.4492  -28.0758   11.1051 O.2       13 UNK        -0.4996 
     25 CA        -55.0916  -26.7694   12.6033 C.3       12 UNK         0.0216 
     26 CB        -55.5199  -25.5099   11.8218 C.3       12 UNK        -0.1964 
     27 N         -55.0958  -26.5156   14.0495 N.am      12 UNK        -0.4276 
     28 C         -56.1560  -26.2972   14.8448 C.2       12 UNK         0.5020 
     29 O         -57.3225  -26.2692   14.4516 O.2       12 UNK        -0.5489 
     30 CA        -55.8654  -26.0944   16.3438 C.3       11 UNK         0.0294 
     31 CB        -56.2224  -27.3630   17.1354 C.3       11 UNK        -0.2019 
     32 N         -54.4672  -25.7467   16.6107 N.am      11 UNK        -0.4493 
     33 C         -53.9151  -24.5502   16.3807 C.2       11 UNK         0.4932 
     34 O         -54.5488  -23.5702   15.9894 O.2       11 UNK        -0.5029 
     35 CA        -52.3979  -24.4301   16.5919 C.3       10 UNK         0.0280 
     36 CB        -52.0467  -24.2828   18.0846 C.3       10 UNK        -0.1976 
     37 N         -51.6074  -25.4911   15.9515 N.am      10 UNK        -0.4242 
     38 C         -51.5248  -26.7977   16.2448 C.2       10 UNK         0.5072 
     39 O         -52.2251  -27.3599   17.0881 O.2       10 UNK        -0.5224 
     40 CA        -50.4841  -27.6206   15.4613 C.3       9 UNK         0.0343 
     41 CB        -51.1193  -28.2513   14.2105 C.3       9 UNK        -0.2003 
     42 N         -49.3063  -26.8338   15.0785 N.am      9 UNK        -0.4272 
     43 C         -48.4118  -26.3351   15.9470 C.2       9 UNK         0.4988 
     44 O         -48.4180  -26.5816   17.1537 O.2       9 UNK        -0.5108 
     45 CA        -47.3483  -25.3738   15.3866 C.3       8 UNK         0.0248 
     46 CB        -46.1520  -26.1523   14.8169 C.3       8 UNK        -0.2001 
     47 N         -47.8867  -24.4587   14.3745 N.am      8 UNK        -0.4140 
     48 C         -48.7948  -23.5031   14.6275 C.2       8 UNK         0.5028 
     49 O         -49.2109  -23.2368   15.7546 O.2       8 UNK        -0.5428 
     50 CA        -49.3664  -22.7308   13.4264 C.3       7 UNK         0.0264 
     51 CB        -48.4546  -21.5507   13.0558 C.3       7 UNK        -0.1988 
     52 N         -49.5897  -23.5750   12.2501 N.am      7 UNK        -0.4454 
     53 C         -50.4685  -24.5882   12.1887 C.2       7 UNK         0.5027 
     54 O         -51.2308  -24.8844   13.1091 O.2       7 UNK        -0.5083 
     55 CA        -50.4560  -25.4449   10.9040 C.3       6 UNK         0.0844 
     56 C56       -51.3109  -24.7784    9.7971 C.3       14 UNK        -0.0967 
     57 S57       -51.2176  -25.6041    8.1724 S.3       14 UNK        -0.2604 
     58 C58       -52.4426  -26.9404    8.3224 C.3       14 UNK         0.0134 
     59 N         -49.0843  -25.7509   10.4846 N.am      6 UNK        -0.4116 
     60 C         -48.2152  -26.4682   11.2120 C.2       5 UNK         0.5034 
     61 O         -48.4950  -27.0026   12.2847 O.2       5 UNK        -0.5045 
     62 CA        -46.7726  -26.5467   10.6931 C.3       5 UNK         0.0224 
     63 CB        -46.6120  -27.6755    9.6645 C.3       5 UNK        -0.1978 
     64 N         -46.3402  -25.2732   10.1152 N.am      5 UNK        -0.4737 
     65 C         -46.0263  -24.1923   10.8422 C.2       4 UNK         0.5027 
     66 O         -46.0325  -24.1765   12.0723 O.2       4 UNK        -0.5211 
     67 CA        -45.6789  -22.9054   10.0737 C.3       4 UNK         0.0297 
     68 CB        -44.1857  -22.8824    9.7123 C.3       4 UNK        -0.1993 
     69 N         -46.4797  -22.7253    8.8603 N.am      4 UNK        -0.4486 
     70 C         -47.8053  -22.5286    8.8500 C.2       3 UNK         0.4961 
     71 O         -48.4937  -22.4430    9.8662 O.2       3 UNK        -0.5105 
     72 CA        -48.4894  -22.4694    7.4730 C.3       3 UNK         0.0299 
     73 CB        -48.4513  -21.0375    6.9164 C.3       3 UNK        -0.1972 
     74 N         -47.9511  -23.4028    6.4731 N.am      3 UNK        -0.4305 
     75 C         -47.8324  -24.7262    6.6441 C.2       2 UNK         0.5006 
     76 O         -48.0270  -25.3046    7.7164 O.2       2 UNK        -0.5106 
     77 CA        -47.4091  -25.5567    5.4315 C.3       2 UNK         0.0296 
     78 CB        -45.8792  -25.7346    5.4039 C.3       2 UNK        -0.2002 
     79 N         -48.0791  -26.8427    5.5776 N.am      2 UNK        -0.4032 
     80 C         -48.2087  -27.8049    4.6598 C.2       1 UNK         0.5000 
     81 O         -47.7284  -27.7440    3.5239 O.2       1 UNK        -0.5238 
     82 H82       -50.0250  -31.3743    2.0177 H         1 UNK         0.0889 
     83 H83       -50.5863  -30.0031    1.0590 H         1 UNK         0.0889 
     84 H84       -51.7231  -30.8975    2.0724 H         1 UNK         0.0889 
     85 H85       -48.8785  -30.7119    3.8227 H         1 UNK         0.3028 
     86 H86       -49.8847  -28.7008    5.6304 H         1 UNK         0.0864 
     87 H87       -47.2913  -30.3401    5.6295 H         1 UNK         0.0720 
     88 H88       -47.7040  -29.2238    6.8938 H         1 UNK         0.0720 
     89 H89       -48.8479  -31.5922    9.3076 H         1 UNK         0.0814 
     90 H90       -48.1609  -30.0527    8.9058 H         1 UNK         0.0814 
     91 H91       -50.1516  -28.3552    7.8122 H         1 UNK         0.1469 
     92 H92       -53.5577  -28.2865   10.4021 H         1 UNK         0.1381 
     93 H93       -50.7101  -31.4692   10.7064 H         1 UNK         0.1206 
     94 H94       -53.2706  -29.7432   12.5345 H         1 UNK         0.0813 
     95 H95       -52.4160  -31.2573   12.3860 H         1 UNK         0.0813 
     96 H96       -54.8128  -31.5346   13.6029 H         1 UNK         0.0638 
     97 H97       -55.9954  -32.4541   12.7091 H         1 UNK         0.0638 
     98 H98       -57.1593  -30.3232   12.0244 H         1 UNK         0.0568 
     99 H99       -58.8457  -31.5638   13.0018 H         1 UNK         0.3450 
    100 H100      -59.1758  -31.4564   14.7111 H         1 UNK         0.3450 
    101 H101      -55.4456  -28.8936   13.9795 H         1 UNK         0.2987 
    102 H102      -54.0514  -26.9703   12.3433 H         1 UNK         0.0766 
    103 H103      -54.9243  -24.6437   12.1107 H         1 UNK         0.0798 
    104 H104      -56.5696  -25.2675   11.9910 H         1 UNK         0.0798 
    105 H105      -55.3864  -25.6489   10.7482 H         1 UNK         0.0798 
    106 H106      -54.1888  -26.4986   14.4931 H         1 UNK         0.3198 
    107 H107      -56.5012  -25.2783   16.6942 H         1 UNK         0.0843 
    108 H108      -55.6030  -28.2117   16.8421 H         1 UNK         0.0831 
    109 H109      -57.2622  -27.6489   16.9684 H         1 UNK         0.0831 
    110 H110      -56.0975  -27.2105   18.2075 H         1 UNK         0.0831 
    111 H111      -53.8476  -26.4878   16.9357 H         1 UNK         0.3133 
    112 H112      -52.0879  -23.5087   16.0959 H         1 UNK         0.0566 
    113 H113      -50.9779  -24.1154   18.2207 H         1 UNK         0.0814 
    114 H114      -52.5672  -23.4311   18.5242 H         1 UNK         0.0814 
    115 H115      -52.3240  -25.1653   18.6619 H         1 UNK         0.0814 
    116 H116      -51.0664  -25.1778   15.1520 H         1 UNK         0.3091 
    117 H117      -50.1470  -28.4286   16.1138 H         1 UNK         0.0702 
    118 H118      -51.9648  -28.8837   14.4833 H         1 UNK         0.0785 
    119 H119      -51.4844  -27.4983   13.5123 H         1 UNK         0.0785 
    120 H120      -50.4050  -28.8782   13.6759 H         1 UNK         0.0785 
    121 H121      -49.1723  -26.6585   14.0862 H         1 UNK         0.2998 
    122 H122      -46.9852  -24.7651   16.2174 H         1 UNK         0.0697 
    123 H123      -46.4434  -26.7947   13.9866 H         1 UNK         0.0825 
    124 H124      -45.7060  -26.7915   15.5800 H         1 UNK         0.0825 
    125 H125      -45.3717  -25.4786   14.4624 H         1 UNK         0.0825 
    126 H126      -47.5252  -24.5538   13.4310 H         1 UNK         0.3029 
    127 H127      -50.3355  -22.3278   13.7290 H         1 UNK         0.0897 
    128 H128      -48.8907  -20.9479   12.2590 H         1 UNK         0.0792 
    129 H129      -47.4736  -21.8880   12.7207 H         1 UNK         0.0792 
    130 H130      -48.2993  -20.8931   13.9122 H         1 UNK         0.0792 
    131 H131      -49.0486  -23.3450   11.4187 H         1 UNK         0.3086 
    132 H132      -50.9264  -26.3987   11.1518 H         1 UNK         0.0583 
    133 H133      -52.3559  -24.7219   10.1078 H         1 UNK         0.1020 
    134 H134      -50.9910  -23.7460    9.6425 H         1 UNK         0.1020 
    135 H135      -53.3380  -26.5564    8.8137 H         1 UNK         0.0694 
    136 H136      -52.7500  -27.2357    7.3185 H         1 UNK         0.0694 
    137 H137      -48.7880  -25.3896    9.5832 H         1 UNK         0.2989 
    138 H138      -46.1239  -26.7729   11.5421 H         1 UNK         0.1055 
    139 H139      -46.7944  -28.6418   10.1350 H         1 UNK         0.0806 
    140 H140      -45.6021  -27.7022    9.2551 H         1 UNK         0.0806 
    141 H141      -47.3101  -27.5760    8.8335 H         1 UNK         0.0806 
    142 H142      -46.4212  -25.1809    9.1101 H         1 UNK         0.3061 
    143 H143      -45.8822  -22.0613   10.7361 H         1 UNK         0.0734 
    144 H144      -43.9045  -21.9397    9.2426 H         1 UNK         0.0832 
    145 H145      -43.5682  -22.9941   10.6049 H         1 UNK         0.0832 
    146 H146      -43.9207  -23.6915    9.0304 H         1 UNK         0.0832 
    147 H147      -45.9992  -22.7914    7.9749 H         1 UNK         0.3156 
    148 H148      -49.5355  -22.7424    7.6267 H         1 UNK         0.0589 
    149 H149      -47.4333  -20.7178    6.6901 H         1 UNK         0.0808 
    150 H150      -49.0427  -20.9490    6.0049 H         1 UNK         0.0808 
    151 H151      -48.8632  -20.3280    7.6359 H         1 UNK         0.0808 
    152 H152      -47.7467  -23.0152    5.5629 H         1 UNK         0.3098 
    153 H153      -47.7532  -25.0734    4.5150 H         1 UNK         0.0720 
    154 H154      -45.5605  -26.3257    4.5453 H         1 UNK         0.0791 
    155 H155      -45.5161  -26.2320    6.3044 H         1 UNK         0.0791 
    156 H156      -45.3738  -24.7705    5.3351 H         1 UNK         0.0791 
    157 H157      -48.5050  -26.9491    6.4907 H         1 UNK         0.3028 
@<TRIPOS>BOND
     1    1    2 1    
     2    1   82 1    
     3    1   83 1    
     4    1   84 1    
     5    2    3 2    
     6    2    4 am   BACKBONE|DICT|INTERRES
     7    4    5 1    
     8    4   85 1    
     9    5    6 1    
    10    5   80 1    
    11    5   86 1    
    12    6    7 1    
    13    6   87 1    
    14    6   88 1    
    15    7    8 1    
    16    8    9 1    
    17    8   89 1    
    18    8   90 1    
    19    9   10 ar   
    20    9   14 ar   
    21   10   11 ar   
    22   10   91 1    
    23   11   12 ar   
    24   11   58 1    
    25   12   13 ar   
    26   12   92 1    
    27   13   14 ar   
    28   13   15 1    
    29   14   93 1    
    30   15   16 1    
    31   15   94 1    
    32   15   95 1    
    33   16   17 1    
    34   17   18 1    
    35   17   96 1    
    36   17   97 1    
    37   18   19 1    
    38   18   22 1    
    39   18   98 1    
    40   19   20 am   BACKBONE|DICT|INTERRES
    41   19   21 2    
    42   20   99 1    
    43   20  100 1    
    44   22   23 am   BACKBONE|DICT|INTERRES
    45   22  101 1    
    46   23   24 2    
    47   23   25 1    
    48   25   26 1    
    49   25   27 1    
    50   25  102 1    
    51   26  103 1    
    52   26  104 1    
    53   26  105 1    
    54   27   28 am   BACKBONE|DICT|INTERRES
    55   27  106 1    
    56   28   29 2    
    57   28   30 1    
    58   30   31 1    
    59   30   32 1    
    60   30  107 1    
    61   31  108 1    
    62   31  109 1    
    63   31  110 1    
    64   32   33 am   BACKBONE|DICT|INTERRES
    65   32  111 1    
    66   33   34 2    
    67   33   35 1    
    68   35   36 1    
    69   35   37 1    
    70   35  112 1    
    71   36  113 1    
    72   36  114 1    
    73   36  115 1    
    74   37   38 am   BACKBONE|DICT|INTERRES
    75   37  116 1    
    76   38   39 2    
    77   38   40 1    
    78   40   41 1    
    79   40   42 1    
    80   40  117 1    
    81   41  118 1    
    82   41  119 1    
    83   41  120 1    
    84   42   43 am   BACKBONE|DICT|INTERRES
    85   42  121 1    
    86   43   44 2    
    87   43   45 1    
    88   45   46 1    
    89   45   47 1    
    90   45  122 1    
    91   46  123 1    
    92   46  124 1    
    93   46  125 1    
    94   47   48 am   BACKBONE|DICT|INTERRES
    95   47  126 1    
    96   48   49 2    
    97   48   50 1    
    98   50   51 1    
    99   50   52 1    
   100   50  127 1    
   101   51  128 1    
   102   51  129 1    
   103   51  130 1    
   104   52   53 am   BACKBONE|DICT|INTERRES
   105   52  131 1    
   106   53   54 2    
   107   53   55 1    
   108   55   56 1    
   109   55   59 1    
   110   55  132 1    
   111   56   57 1    
   112   56  133 1    
   113   56  134 1    
   114   57   58 1    
   115   58  135 1    
   116   58  136 1    
   117   59   60 am   BACKBONE|DICT|INTERRES
   118   59  137 1    
   119   60   61 2    
   120   60   62 1    
   121   62   63 1    
   122   62   64 1    
   123   62  138 1    
   124   63  139 1    
   125   63  140 1    
   126   63  141 1    
   127   64   65 am   BACKBONE|DICT|INTERRES
   128   64  142 1    
   129   65   66 2    
   130   65   67 1    
   131   67   68 1    
   132   67   69 1    
   133   67  143 1    
   134   68  144 1    
   135   68  145 1    
   136   68  146 1    
   137   69   70 am   BACKBONE|DICT|INTERRES
   138   69  147 1    
   139   70   71 2    
   140   70   72 1    
   141   72   73 1    
   142   72   74 1    
   143   72  148 1    
   144   73  149 1    
   145   73  150 1    
   146   73  151 1    
   147   74   75 am   BACKBONE|DICT|INTERRES
   148   74  152 1    
   149   75   76 2    
   150   75   77 1    
   151   77   78 1    
   152   77   79 1    
   153   77  153 1    
   154   78  154 1    
   155   78  155 1    
   156   78  156 1    
   157   79   80 am   BACKBONE|DICT|INTERRES
   158   79  157 1    
   159   80   81 2    
@<TRIPOS>SUBSTRUCTURE
     1 UNK         1 GROUP             0       ****    0 ROOT    
