@<TRIPOS>MOLECULE
3R207
157   159    1
SMALL
USER_CHARGES


@<TRIPOS>ATOM
      1 CA        -51.8058  -26.2854    1.1194 C.3       0 UNK        -0.1975 
      2 C         -51.4231  -26.5986    2.5586 C.2       0 UNK         0.4852 
      3 O         -52.1517  -26.2226    3.4777 O.2       0 UNK        -0.5216 
      4 N         -50.2887  -27.2801    2.7530 N.am      1 UNK        -0.4461 
      5 CA        -49.7203  -27.6346    4.0553 C.3       1 UNK         0.0864 
      6 C6        -49.7613  -29.1631    4.3244 C.3       14 UNK        -0.0898 
      7 S7        -51.4507  -29.8577    4.2651 S.3       14 UNK        -0.2598 
      8 C8        -51.6522  -30.5704    5.9365 C.3       14 UNK         0.0286 
      9 C9        -51.7427  -29.5719    7.0933 C.ar      14 UNK        -0.0844 
     10 C10       -51.9942  -28.2060    6.9039 C.ar      14 UNK        -0.0881 
     11 C11       -52.0484  -27.3284    7.9904 C.ar      14 UNK        -0.0643 
     12 C12       -51.8993  -27.8361    9.2846 C.ar      14 UNK        -0.0930 
     13 C13       -51.6632  -29.1963    9.4962 C.ar      14 UNK        -0.0827 
     14 C14       -51.5826  -30.0550    8.3965 C.ar      14 UNK        -0.1249 
     15 C15       -51.4399  -29.7267   10.9073 C.3       14 UNK         0.0141 
     16 S16       -52.8489  -29.4013   12.0130 S.3       14 UNK        -0.2313 
     17 C17       -52.1405  -29.9566   13.5994 C.3       14 UNK        -0.0915 
     18 CA        -53.2069  -30.5209   14.5695 C.3       13 UNK         0.0968 
     19 C         -52.5412  -31.1251   15.8328 C.2       13 UNK         0.5732 
     20 N         -52.3632  -32.4386   15.8742 N.am      13 UNK        -0.7310 
     21 O         -52.1448  -30.4127   16.7530 O.2       13 UNK        -0.5035 
     22 N         -54.1986  -29.5031   14.9371 N.am      13 UNK        -0.4233 
     23 C         -55.4512  -29.7840   15.3180 C.2       13 UNK         0.4989 
     24 O         -55.9109  -30.9274   15.3608 O.2       13 UNK        -0.4996 
     25 CA        -56.3446  -28.5849   15.6887 C.3       12 UNK         0.0216 
     26 CB        -57.6846  -28.9956   16.3377 C.3       12 UNK        -0.1964 
     27 N         -55.6460  -27.5853   16.5025 N.am      12 UNK        -0.4276 
     28 C         -55.1303  -27.7420   17.7333 C.2       12 UNK         0.5020 
     29 O         -55.2353  -28.7773   18.3925 O.2       12 UNK        -0.5489 
     30 CA        -54.3622  -26.5507   18.3414 C.3       11 UNK         0.0294 
     31 CB        -52.9577  -26.9801   18.8034 C.3       11 UNK        -0.2019 
     32 N         -54.2269  -25.4404   17.3955 N.am      11 UNK        -0.4493 
     33 C         -55.0422  -24.3779   17.3271 C.2       11 UNK         0.4932 
     34 O         -55.9603  -24.1695   18.1199 O.2       11 UNK        -0.5029 
     35 CA        -54.8177  -23.3876   16.1658 C.3       10 UNK         0.0280 
     36 CB        -54.0060  -22.1743   16.6471 C.3       10 UNK        -0.1976 
     37 N         -54.1490  -23.9796   15.0027 N.am      10 UNK        -0.4242 
     38 C         -54.6476  -24.9639   14.2393 C.2       10 UNK         0.5072 
     39 O         -55.7699  -25.4448   14.3922 O.2       10 UNK        -0.5224 
     40 CA        -53.7017  -25.5753   13.1898 C.3       9 UNK         0.0343 
     41 CB        -53.8804  -24.8807   11.8323 C.3       9 UNK        -0.2003 
     42 N         -52.2912  -25.5434   13.6055 N.am      9 UNK        -0.4272 
     43 C         -51.8215  -26.2082   14.6755 C.2       9 UNK         0.4988 
     44 O         -52.5416  -26.9242   15.3734 O.2       9 UNK        -0.5108 
     45 CA        -50.3450  -26.0342   15.0783 C.3       8 UNK         0.0248 
     46 CB        -49.6319  -27.3931   15.1865 C.3       8 UNK        -0.2001 
     47 N         -49.5992  -25.1741   14.1582 N.am      8 UNK        -0.4140 
     48 C         -49.3629  -23.8664   14.3446 C.2       8 UNK         0.5028 
     49 O         -49.7281  -23.2437   15.3421 O.2       8 UNK        -0.5428 
     50 CA        -48.6170  -23.1092   13.2239 C.3       7 UNK         0.0264 
     51 CB        -47.1120  -23.0525   13.5315 C.3       7 UNK        -0.1988 
     52 N         -48.8158  -23.6783   11.8862 N.am      7 UNK        -0.4454 
     53 C         -50.0100  -23.8244   11.2943 C.2       7 UNK         0.5027 
     54 O         -51.0485  -23.3564   11.7601 O.2       7 UNK        -0.5083 
     55 CA        -50.1032  -24.7306   10.0512 C.3       6 UNK         0.0844 
     56 C56       -50.3642  -23.9388    8.7503 C.3       14 UNK        -0.0967 
     57 S57       -50.7001  -25.0083    7.3031 S.3       14 UNK        -0.2604 
     58 C58       -52.2641  -25.8391    7.7482 C.3       14 UNK         0.0134 
     59 N         -49.0009  -25.6892    9.9332 N.am      6 UNK        -0.4116 
     60 C         -48.7757  -26.7014   10.7821 C.2       5 UNK         0.5034 
     61 O         -49.4346  -26.8926   11.8030 O.2       5 UNK        -0.5045 
     62 CA        -47.5942  -27.6247   10.4620 C.3       5 UNK         0.0224 
     63 CB        -47.9150  -28.5528    9.2771 C.3       5 UNK        -0.1978 
     64 N         -46.3974  -26.8374   10.1693 N.am      5 UNK        -0.4737 
     65 C         -45.5740  -26.3443   11.1046 C.2       4 UNK         0.5027 
     66 O         -45.6892  -26.5768   12.3076 O.2       4 UNK        -0.5211 
     67 CA        -44.4315  -25.4301   10.6250 C.3       4 UNK         0.0297 
     68 CB        -43.1472  -26.2465   10.4093 C.3       4 UNK        -0.1993 
     69 N         -44.7476  -24.6925    9.3987 N.am      4 UNK        -0.4486 
     70 C         -45.6820  -23.7363    9.3056 C.2       3 UNK         0.4961 
     71 O         -46.3676  -23.3517   10.2519 O.2       3 UNK        -0.5105 
     72 CA        -45.9329  -23.1501    7.9050 C.3       3 UNK         0.0299 
     73 CB        -44.9510  -22.0036    7.6165 C.3       3 UNK        -0.1972 
     74 N         -45.8737  -24.1385    6.8188 N.am      3 UNK        -0.4305 
     75 C         -46.6347  -25.2388    6.7521 C.2       2 UNK         0.5006 
     76 O         -47.4062  -25.5938    7.6448 O.2       2 UNK        -0.5106 
     77 CA        -46.4986  -26.1175    5.5094 C.3       2 UNK         0.0296 
     78 CB        -45.4396  -27.2129    5.7266 C.3       2 UNK        -0.2002 
     79 N         -47.8045  -26.7223    5.2694 N.am      2 UNK        -0.4032 
     80 C         -48.2730  -27.1171    4.0830 C.2       1 UNK         0.5000 
     81 O         -47.6113  -27.0927    3.0399 O.2       1 UNK        -0.5238 
     82 H82       -51.0804  -26.6814    0.4088 H         1 UNK         0.0889 
     83 H83       -51.8699  -25.2074    0.9741 H         1 UNK         0.0889 
     84 H84       -52.7781  -26.7195    0.8879 H         1 UNK         0.0889 
     85 H85       -49.6929  -27.5039    1.9669 H         1 UNK         0.3028 
     86 H86       -50.2601  -27.1180    4.8504 H         1 UNK         0.0864 
     87 H87       -49.1584  -29.6980    3.5879 H         1 UNK         0.0720 
     88 H88       -49.3185  -29.3861    5.2972 H         1 UNK         0.0720 
     89 H89       -50.8280  -31.2629    6.1151 H         1 UNK         0.0814 
     90 H90       -52.5619  -31.1721    5.9383 H         1 UNK         0.0814 
     91 H91       -52.1446  -27.8085    5.9107 H         1 UNK         0.1469 
     92 H92       -51.9638  -27.1860   10.1424 H         1 UNK         0.1381 
     93 H93       -51.3895  -31.1075    8.5542 H         1 UNK         0.1206 
     94 H94       -50.5466  -29.2606   11.3231 H         1 UNK         0.0813 
     95 H95       -51.2480  -30.8006   10.8895 H         1 UNK         0.0813 
     96 H96       -51.3857  -30.7181   13.3940 H         1 UNK         0.0638 
     97 H97       -51.6125  -29.1192   14.0521 H         1 UNK         0.0638 
     98 H98       -53.7242  -31.3266   14.0441 H         1 UNK         0.0568 
     99 H99       -52.6750  -33.0323   15.1216 H         1 UNK         0.3450 
    100 H100      -51.9171  -32.8454   16.6812 H         1 UNK         0.3450 
    101 H101      -53.8487  -28.5548   15.0094 H         1 UNK         0.2987 
    102 H102      -56.5817  -28.0906   14.7455 H         1 UNK         0.0766 
    103 H103      -57.5351  -29.5538   17.2624 H         1 UNK         0.0798 
    104 H104      -58.2976  -28.1240   16.5668 H         1 UNK         0.0798 
    105 H105      -58.2644  -29.6306   15.6668 H         1 UNK         0.0798 
    106 H106      -55.5195  -26.6885   16.0463 H         1 UNK         0.3198 
    107 H107      -54.9208  -26.2225   19.2205 H         1 UNK         0.0843 
    108 H108      -53.0190  -27.7453   19.5784 H         1 UNK         0.0831 
    109 H109      -52.4016  -26.1414   19.2221 H         1 UNK         0.0831 
    110 H110      -52.3715  -27.3991   17.9846 H         1 UNK         0.0831 
    111 H111      -53.5210  -25.5668   16.6797 H         1 UNK         0.3133 
    112 H112      -55.7995  -23.0368   15.8410 H         1 UNK         0.0566 
    113 H113      -53.9137  -21.4214   15.8641 H         1 UNK         0.0814 
    114 H114      -54.4895  -21.6941   17.4992 H         1 UNK         0.0814 
    115 H115      -53.0006  -22.4588   16.9609 H         1 UNK         0.0814 
    116 H116      -53.2165  -23.6492   14.7992 H         1 UNK         0.3091 
    117 H117      -53.9831  -26.6237   13.0682 H         1 UNK         0.0702 
    118 H118      -53.2495  -25.3325   11.0691 H         1 UNK         0.0785 
    119 H119      -53.6428  -23.8178   11.8853 H         1 UNK         0.0785 
    120 H120      -54.9118  -24.9646   11.4873 H         1 UNK         0.0785 
    121 H121      -51.6709  -24.9398   13.0798 H         1 UNK         0.2998 
    122 H122      -50.3486  -25.5893   16.0753 H         1 UNK         0.0697 
    123 H123      -49.5823  -27.9044   14.2254 H         1 UNK         0.0825 
    124 H124      -50.1484  -28.0553   15.8834 H         1 UNK         0.0825 
    125 H125      -48.6119  -27.2746   15.5521 H         1 UNK         0.0825 
    126 H126      -49.3028  -25.6164   13.2925 H         1 UNK         0.3029 
    127 H127      -49.0045  -22.0884   13.2091 H         1 UNK         0.0897 
    128 H128      -46.5856  -22.4173   12.8191 H         1 UNK         0.0792 
    129 H129      -46.9297  -22.6410   14.5253 H         1 UNK         0.0792 
    130 H130      -46.6562  -24.0432   13.4979 H         1 UNK         0.0792 
    131 H131      -47.9862  -24.0005   11.3986 H         1 UNK         0.3086 
    132 H132      -50.9966  -25.3180   10.2373 H         1 UNK         0.0583 
    133 H133      -51.2111  -23.2606    8.8745 H         1 UNK         0.1020 
    134 H134      -49.5033  -23.3104    8.5151 H         1 UNK         0.1020 
    135 H135      -52.7207  -25.3652    8.6176 H         1 UNK         0.0694 
    136 H136      -52.9719  -25.7044    6.9288 H         1 UNK         0.0694 
    137 H137      -48.4211  -25.6093    9.0990 H         1 UNK         0.2989 
    138 H138      -47.4086  -28.2498   11.3388 H         1 UNK         0.1055 
    139 H139      -47.0641  -29.1868    9.0282 H         1 UNK         0.0806 
    140 H140      -48.1939  -28.0002    8.3798 H         1 UNK         0.0806 
    141 H141      -48.7477  -29.2135    9.5173 H         1 UNK         0.0806 
    142 H142      -46.2799  -26.5353    9.2105 H         1 UNK         0.3061 
    143 H143      -44.2445  -24.6998   11.4156 H         1 UNK         0.0734 
    144 H144      -42.8724  -26.7865   11.3167 H         1 UNK         0.0832 
    145 H145      -43.2653  -26.9848    9.6151 H         1 UNK         0.0832 
    146 H146      -42.3055  -25.6038   10.1507 H         1 UNK         0.0832 
    147 H147      -44.2382  -24.9463    8.5648 H         1 UNK         0.3156 
    148 H148      -46.9434  -22.7360    7.9067 H         1 UNK         0.0589 
    149 H149      -43.9208  -22.3570    7.5569 H         1 UNK         0.0808 
    150 H150      -45.1897  -21.5021    6.6785 H         1 UNK         0.0808 
    151 H151      -44.9912  -21.2487    8.4033 H         1 UNK         0.0808 
    152 H152      -45.2521  -23.9297    6.0502 H         1 UNK         0.3098 
    153 H153      -46.2206  -25.4908    4.6592 H         1 UNK         0.0720 
    154 H154      -45.3412  -27.8483    4.8463 H         1 UNK         0.0791 
    155 H155      -45.6906  -27.8532    6.5736 H         1 UNK         0.0791 
    156 H156      -44.4587  -26.7782    5.9225 H         1 UNK         0.0791 
    157 H157      -48.4093  -26.7182    6.0829 H         1 UNK         0.3028 
@<TRIPOS>BOND
     1    1    2 1    
     2    1   82 1    
     3    1   83 1    
     4    1   84 1    
     5    2    3 2    
     6    2    4 am   BACKBONE|DICT|INTERRES
     7    4    5 1    
     8    4   85 1    
     9    5    6 1    
    10    5   80 1    
    11    5   86 1    
    12    6    7 1    
    13    6   87 1    
    14    6   88 1    
    15    7    8 1    
    16    8    9 1    
    17    8   89 1    
    18    8   90 1    
    19    9   10 ar   
    20    9   14 ar   
    21   10   11 ar   
    22   10   91 1    
    23   11   12 ar   
    24   11   58 1    
    25   12   13 ar   
    26   12   92 1    
    27   13   14 ar   
    28   13   15 1    
    29   14   93 1    
    30   15   16 1    
    31   15   94 1    
    32   15   95 1    
    33   16   17 1    
    34   17   18 1    
    35   17   96 1    
    36   17   97 1    
    37   18   19 1    
    38   18   22 1    
    39   18   98 1    
    40   19   20 am   BACKBONE|DICT|INTERRES
    41   19   21 2    
    42   20   99 1    
    43   20  100 1    
    44   22   23 am   BACKBONE|DICT|INTERRES
    45   22  101 1    
    46   23   24 2    
    47   23   25 1    
    48   25   26 1    
    49   25   27 1    
    50   25  102 1    
    51   26  103 1    
    52   26  104 1    
    53   26  105 1    
    54   27   28 am   BACKBONE|DICT|INTERRES
    55   27  106 1    
    56   28   29 2    
    57   28   30 1    
    58   30   31 1    
    59   30   32 1    
    60   30  107 1    
    61   31  108 1    
    62   31  109 1    
    63   31  110 1    
    64   32   33 am   BACKBONE|DICT|INTERRES
    65   32  111 1    
    66   33   34 2    
    67   33   35 1    
    68   35   36 1    
    69   35   37 1    
    70   35  112 1    
    71   36  113 1    
    72   36  114 1    
    73   36  115 1    
    74   37   38 am   BACKBONE|DICT|INTERRES
    75   37  116 1    
    76   38   39 2    
    77   38   40 1    
    78   40   41 1    
    79   40   42 1    
    80   40  117 1    
    81   41  118 1    
    82   41  119 1    
    83   41  120 1    
    84   42   43 am   BACKBONE|DICT|INTERRES
    85   42  121 1    
    86   43   44 2    
    87   43   45 1    
    88   45   46 1    
    89   45   47 1    
    90   45  122 1    
    91   46  123 1    
    92   46  124 1    
    93   46  125 1    
    94   47   48 am   BACKBONE|DICT|INTERRES
    95   47  126 1    
    96   48   49 2    
    97   48   50 1    
    98   50   51 1    
    99   50   52 1    
   100   50  127 1    
   101   51  128 1    
   102   51  129 1    
   103   51  130 1    
   104   52   53 am   BACKBONE|DICT|INTERRES
   105   52  131 1    
   106   53   54 2    
   107   53   55 1    
   108   55   56 1    
   109   55   59 1    
   110   55  132 1    
   111   56   57 1    
   112   56  133 1    
   113   56  134 1    
   114   57   58 1    
   115   58  135 1    
   116   58  136 1    
   117   59   60 am   BACKBONE|DICT|INTERRES
   118   59  137 1    
   119   60   61 2    
   120   60   62 1    
   121   62   63 1    
   122   62   64 1    
   123   62  138 1    
   124   63  139 1    
   125   63  140 1    
   126   63  141 1    
   127   64   65 am   BACKBONE|DICT|INTERRES
   128   64  142 1    
   129   65   66 2    
   130   65   67 1    
   131   67   68 1    
   132   67   69 1    
   133   67  143 1    
   134   68  144 1    
   135   68  145 1    
   136   68  146 1    
   137   69   70 am   BACKBONE|DICT|INTERRES
   138   69  147 1    
   139   70   71 2    
   140   70   72 1    
   141   72   73 1    
   142   72   74 1    
   143   72  148 1    
   144   73  149 1    
   145   73  150 1    
   146   73  151 1    
   147   74   75 am   BACKBONE|DICT|INTERRES
   148   74  152 1    
   149   75   76 2    
   150   75   77 1    
   151   77   78 1    
   152   77   79 1    
   153   77  153 1    
   154   78  154 1    
   155   78  155 1    
   156   78  156 1    
   157   79   80 am   BACKBONE|DICT|INTERRES
   158   79  157 1    
   159   80   81 2    
@<TRIPOS>SUBSTRUCTURE
     1 UNK         1 GROUP             0       ****    0 ROOT    
