@<TRIPOS>MOLECULE
3R207
157   159    1
SMALL
USER_CHARGES


@<TRIPOS>ATOM
      1 CA        -50.7390  -30.8701    9.8652 C.3       0 UNK        -0.1975 
      2 C         -50.2217  -29.9396    8.7771 C.2       0 UNK         0.4852 
      3 O         -50.3425  -28.7247    8.9156 O.2       0 UNK        -0.5216 
      4 N         -49.6495  -30.5135    7.7077 N.am      1 UNK        -0.4461 
      5 CA        -49.0963  -29.8288    6.5279 C.3       1 UNK         0.0864 
      6 C6        -50.1799  -29.1144    5.6630 C.3       14 UNK        -0.0898 
      7 S7        -51.5290  -30.2277    5.1369 S.3       14 UNK        -0.2598 
      8 C8        -52.9598  -29.0968    5.0951 C.3       14 UNK         0.0286 
      9 C9        -53.3728  -28.6479    6.4893 C.ar      14 UNK        -0.0844 
     10 C10       -53.0950  -27.3494    6.9278 C.ar      14 UNK        -0.0881 
     11 C11       -53.4183  -26.9528    8.2296 C.ar      14 UNK        -0.0643 
     12 C12       -54.0549  -27.8603    9.0824 C.ar      14 UNK        -0.0930 
     13 C13       -54.3663  -29.1523    8.6452 C.ar      14 UNK        -0.0827 
     14 C14       -54.0218  -29.5392    7.3476 C.ar      14 UNK        -0.1249 
     15 C15       -55.0387  -30.1498    9.5770 C.3       14 UNK         0.0141 
     16 S16       -56.8494  -30.1523    9.3939 S.3       14 UNK        -0.2313 
     17 C17       -57.3433  -28.7085   10.4024 C.3       14 UNK        -0.0915 
     18 CA        -57.8786  -29.0782   11.8122 C.3       13 UNK         0.0968 
     19 C         -59.2779  -29.7621   11.7490 C.2       13 UNK         0.5732 
     20 N         -59.4295  -31.0141   12.1651 N.am      13 UNK        -0.7310 
     21 O         -60.2471  -29.1363   11.3257 O.2       13 UNK        -0.5035 
     22 N         -56.8596  -29.7853   12.6058 N.am      13 UNK        -0.4233 
     23 C         -56.8783  -29.9265   13.9367 C.2       13 UNK         0.4989 
     24 O         -57.7411  -29.4435   14.6705 O.2       13 UNK        -0.4996 
     25 CA        -55.7407  -30.7578   14.5527 C.3       12 UNK         0.0216 
     26 CB        -56.0575  -32.2598   14.4552 C.3       12 UNK        -0.1964 
     27 N         -54.4268  -30.4926   13.9537 N.am      12 UNK        -0.4276 
     28 C         -53.7246  -29.3696   14.1552 C.2       12 UNK         0.5020 
     29 O         -54.1336  -28.4081   14.8118 O.2       12 UNK        -0.5489 
     30 CA        -52.3186  -29.3092   13.5467 C.3       11 UNK         0.0294 
     31 CB        -52.3062  -28.5408   12.2137 C.3       11 UNK        -0.2019 
     32 N         -51.4647  -28.6210   14.5048 N.am      11 UNK        -0.4493 
     33 C         -50.1507  -28.8055   14.6629 C.2       11 UNK         0.4932 
     34 O         -49.4889  -29.6002   13.9932 O.2       11 UNK        -0.5029 
     35 CA        -49.4699  -27.9413   15.7387 C.3       10 UNK         0.0280 
     36 CB        -47.9333  -27.9662   15.6323 C.3       10 UNK        -0.1976 
     37 N         -49.9219  -26.5569   15.6209 N.am      10 UNK        -0.4242 
     38 C         -50.8358  -25.9499   16.3876 C.2       10 UNK         0.5072 
     39 O         -51.4215  -26.5028   17.3202 O.2       10 UNK        -0.5224 
     40 CA        -51.1498  -24.4824   16.0295 C.3       9 UNK         0.0343 
     41 CB        -51.9096  -23.7304   17.1428 C.3       9 UNK        -0.2003 
     42 N         -49.9534  -23.7438   15.6072 N.am      9 UNK        -0.4272 
     43 C         -48.8486  -23.4994   16.3309 C.2       9 UNK         0.4988 
     44 O         -48.7348  -23.7766   17.5256 O.2       9 UNK        -0.5108 
     45 CA        -47.6413  -22.8752   15.6039 C.3       8 UNK         0.0248 
     46 CB        -46.5053  -23.9065   15.4936 C.3       8 UNK        -0.2001 
     47 N         -47.9490  -22.3606   14.2656 N.am      8 UNK        -0.4140 
     48 C         -48.6456  -21.2413   14.0220 C.2       8 UNK         0.5028 
     49 O         -49.0554  -20.4848   14.9031 O.2       8 UNK        -0.5428 
     50 CA        -48.9683  -20.9262   12.5512 C.3       7 UNK         0.0264 
     51 CB        -47.7888  -20.2019   11.8830 C.3       7 UNK        -0.1988 
     52 N         -49.3244  -22.1116   11.7648 N.am      7 UNK        -0.4454 
     53 C         -50.3936  -22.8931   11.9840 C.2       7 UNK         0.5027 
     54 O         -51.2145  -22.6935   12.8796 O.2       7 UNK        -0.5083 
     55 CA        -50.5426  -24.1384   11.0864 C.3       6 UNK         0.0844 
     56 C56       -51.1143  -23.7604    9.6967 C.3       14 UNK        -0.0967 
     57 S57       -51.2890  -25.2114    8.6055 S.3       14 UNK        -0.2604 
     58 C58       -53.0750  -25.5504    8.7193 C.3       14 UNK         0.0134 
     59 N         -49.2842  -24.8843   11.0027 N.am      6 UNK        -0.4116 
     60 C         -48.6678  -25.4690   12.0388 C.2       5 UNK         0.5034 
     61 O         -49.1097  -25.4839   13.1871 O.2       5 UNK        -0.5045 
     62 CA        -47.2948  -26.0919   11.7578 C.3       5 UNK         0.0224 
     63 CB        -47.4458  -27.5140   11.1953 C.3       5 UNK        -0.1978 
     64 N         -46.5039  -25.2616   10.8450 N.am      5 UNK        -0.4737 
     65 C         -45.9811  -24.0739   11.1882 C.2       4 UNK         0.5027 
     66 O         -46.0839  -23.5854   12.3124 O.2       4 UNK        -0.5211 
     67 CA        -45.2627  -23.2714   10.0896 C.3       4 UNK         0.0297 
     68 CB        -43.8001  -23.7241    9.9602 C.3       4 UNK        -0.1993 
     69 N         -45.9227  -23.3648    8.7867 N.am      4 UNK        -0.4486 
     70 C         -47.1698  -22.9457    8.5307 C.2       3 UNK         0.4961 
     71 O         -47.8779  -22.3642    9.3515 O.2       3 UNK        -0.5105 
     72 CA        -47.7463  -23.2629    7.1402 C.3       3 UNK         0.0299 
     73 CB        -47.5727  -22.0576    6.2031 C.3       3 UNK        -0.1972 
     74 N         -47.1888  -24.4632    6.5029 N.am      3 UNK        -0.4305 
     75 C         -47.2267  -25.7015    7.0164 C.2       2 UNK         0.5006 
     76 O         -47.6493  -25.9589    8.1439 O.2       2 UNK        -0.5106 
     77 CA        -46.6658  -26.8185    6.1232 C.3       2 UNK         0.0296 
     78 CB        -45.2551  -27.2530    6.5708 C.3       2 UNK        -0.2002 
     79 N         -47.6121  -27.9361    6.0123 N.am      2 UNK        -0.4032 
     80 C         -47.8931  -28.9162    6.8875 C.2       1 UNK         0.5000 
     81 O         -47.2287  -29.1550    7.9002 O.2       1 UNK        -0.5238 
     82 H82       -50.4776  -31.9103    9.6725 H         1 UNK         0.0889 
     83 H83       -51.8242  -30.7984    9.9279 H         1 UNK         0.0889 
     84 H84       -50.3193  -30.5884   10.8309 H         1 UNK         0.0889 
     85 H85       -49.5651  -31.5194    7.6862 H         1 UNK         0.3028 
     86 H86       -48.6684  -30.6214    5.9123 H         1 UNK         0.0864 
     87 H87       -50.5903  -28.2658    6.2111 H         1 UNK         0.0720 
     88 H88       -49.7526  -28.7101    4.7447 H         1 UNK         0.0720 
     89 H89       -53.7988  -29.6069    4.6195 H         1 UNK         0.0814 
     90 H90       -52.7256  -28.2397    4.4617 H         1 UNK         0.0814 
     91 H91       -52.5934  -26.6530    6.2702 H         1 UNK         0.1469 
     92 H92       -54.2990  -27.5607   10.0912 H         1 UNK         0.1381 
     93 H93       -54.2411  -30.5429    7.0093 H         1 UNK         0.1206 
     94 H94       -54.6669  -31.1533    9.3637 H         1 UNK         0.0813 
     95 H95       -54.7752  -29.9475   10.6137 H         1 UNK         0.0813 
     96 H96       -56.5000  -28.0273   10.5040 H         1 UNK         0.0638 
     97 H97       -58.0949  -28.1476    9.8440 H         1 UNK         0.0638 
     98 H98       -58.0584  -28.1326   12.3274 H         1 UNK         0.0568 
     99 H99       -60.3418  -31.4397   12.1228 H         1 UNK         0.3450 
    100 H100      -58.6426  -31.5386   12.5090 H         1 UNK         0.3450 
    101 H101      -56.1336  -30.2450   12.0811 H         1 UNK         0.2987 
    102 H102      -55.6854  -30.4968   15.6122 H         1 UNK         0.0766 
    103 H103      -57.0245  -32.4849   14.9078 H         1 UNK         0.0798 
    104 H104      -55.3121  -32.8565   14.9815 H         1 UNK         0.0798 
    105 H105      -56.0933  -32.6043   13.4210 H         1 UNK         0.0798 
    106 H106      -54.0106  -31.2411   13.4178 H         1 UNK         0.3198 
    107 H107      -51.9468  -30.3245   13.3910 H         1 UNK         0.0843 
    108 H108      -52.7667  -27.5565   12.3078 H         1 UNK         0.0831 
    109 H109      -52.8463  -29.0883   11.4454 H         1 UNK         0.0831 
    110 H110      -51.2909  -28.3950   11.8427 H         1 UNK         0.0831 
    111 H111      -51.9604  -27.9941   15.1280 H         1 UNK         0.3133 
    112 H112      -49.7491  -28.3495   16.7119 H         1 UNK         0.0566 
    113 H113      -47.4737  -27.3368   16.3947 H         1 UNK         0.0814 
    114 H114      -47.5468  -28.9768   15.7701 H         1 UNK         0.0814 
    115 H115      -47.5921  -27.6144   14.6582 H         1 UNK         0.0814 
    116 H116      -49.5656  -26.0502   14.8097 H         1 UNK         0.3091 
    117 H117      -51.8015  -24.5193   15.1552 H         1 UNK         0.0702 
    118 H118      -52.8681  -24.2075   17.3507 H         1 UNK         0.0785 
    119 H119      -51.3484  -23.7111   18.0774 H         1 UNK         0.0785 
    120 H120      -52.1169  -22.7001   16.8536 H         1 UNK         0.0785 
    121 H121      -49.9395  -23.4787   14.6302 H         1 UNK         0.2998 
    122 H122      -47.2880  -22.0436   16.2171 H         1 UNK         0.0697 
    123 H123      -46.7978  -24.7614   14.8826 H         1 UNK         0.0825 
    124 H124      -46.2228  -24.2890   16.4753 H         1 UNK         0.0825 
    125 H125      -45.6118  -23.4673   15.0498 H         1 UNK         0.0825 
    126 H126      -47.5772  -22.8885   13.4811 H         1 UNK         0.3029 
    127 H127      -49.8301  -20.2555   12.5416 H         1 UNK         0.0897 
    128 H128      -48.0363  -19.8960   10.8663 H         1 UNK         0.0792 
    129 H129      -46.9026  -20.8356   11.8341 H         1 UNK         0.0792 
    130 H130      -47.5180  -19.3015   12.4361 H         1 UNK         0.0792 
    131 H131      -48.7216  -22.3228   10.9700 H         1 UNK         0.3086 
    132 H132      -51.2657  -24.7985   11.5708 H         1 UNK         0.0583 
    133 H133      -52.0824  -23.2667    9.8014 H         1 UNK         0.1020 
    134 H134      -50.4665  -23.0410    9.1935 H         1 UNK         0.1020 
    135 H135      -53.3943  -25.4220    9.7548 H         1 UNK         0.0694 
    136 H136      -53.6216  -24.8148    8.1280 H         1 UNK         0.0694 
    137 H137      -48.8608  -24.9556   10.0868 H         1 UNK         0.2989 
    138 H138      -46.7593  -26.1576   12.7073 H         1 UNK         0.1055 
    139 H139      -47.9843  -28.1536   11.8965 H         1 UNK         0.0806 
    140 H140      -46.4761  -27.9765   11.0117 H         1 UNK         0.0806 
    141 H141      -48.0035  -27.5259   10.2576 H         1 UNK         0.0806 
    142 H142      -46.4701  -25.5581    9.8759 H         1 UNK         0.3061 
    143 H143      -45.2704  -22.2214   10.3899 H         1 UNK         0.0734 
    144 H144      -43.2537  -23.1059    9.2477 H         1 UNK         0.0832 
    145 H145      -43.2830  -23.6449   10.9177 H         1 UNK         0.0832 
    146 H146      -43.7239  -24.7623    9.6344 H         1 UNK         0.0832 
    147 H147      -45.4181  -23.8321    8.0481 H         1 UNK         0.3156 
    148 H148      -48.8160  -23.4388    7.2711 H         1 UNK         0.0589 
    149 H149      -46.5210  -21.8515    5.9996 H         1 UNK         0.0808 
    150 H150      -48.0759  -22.2186    5.2495 H         1 UNK         0.0808 
    151 H151      -48.0016  -21.1562    6.6437 H         1 UNK         0.0808 
    152 H152      -46.8033  -24.3369    5.5776 H         1 UNK         0.3098 
    153 H153      -46.5734  -26.4260    5.1091 H         1 UNK         0.0720 
    154 H154      -44.5435  -26.4350    6.4542 H         1 UNK         0.0791 
    155 H155      -44.8884  -28.0900    5.9767 H         1 UNK         0.0791 
    156 H156      -45.2309  -27.5482    7.6204 H         1 UNK         0.0791 
    157 H157      -48.2232  -27.8704    5.2109 H         1 UNK         0.3028 
@<TRIPOS>BOND
     1    1    2 1    
     2    1   82 1    
     3    1   83 1    
     4    1   84 1    
     5    2    3 2    
     6    2    4 am   BACKBONE|DICT|INTERRES
     7    4    5 1    
     8    4   85 1    
     9    5    6 1    
    10    5   80 1    
    11    5   86 1    
    12    6    7 1    
    13    6   87 1    
    14    6   88 1    
    15    7    8 1    
    16    8    9 1    
    17    8   89 1    
    18    8   90 1    
    19    9   10 ar   
    20    9   14 ar   
    21   10   11 ar   
    22   10   91 1    
    23   11   12 ar   
    24   11   58 1    
    25   12   13 ar   
    26   12   92 1    
    27   13   14 ar   
    28   13   15 1    
    29   14   93 1    
    30   15   16 1    
    31   15   94 1    
    32   15   95 1    
    33   16   17 1    
    34   17   18 1    
    35   17   96 1    
    36   17   97 1    
    37   18   19 1    
    38   18   22 1    
    39   18   98 1    
    40   19   20 am   BACKBONE|DICT|INTERRES
    41   19   21 2    
    42   20   99 1    
    43   20  100 1    
    44   22   23 am   BACKBONE|DICT|INTERRES
    45   22  101 1    
    46   23   24 2    
    47   23   25 1    
    48   25   26 1    
    49   25   27 1    
    50   25  102 1    
    51   26  103 1    
    52   26  104 1    
    53   26  105 1    
    54   27   28 am   BACKBONE|DICT|INTERRES
    55   27  106 1    
    56   28   29 2    
    57   28   30 1    
    58   30   31 1    
    59   30   32 1    
    60   30  107 1    
    61   31  108 1    
    62   31  109 1    
    63   31  110 1    
    64   32   33 am   BACKBONE|DICT|INTERRES
    65   32  111 1    
    66   33   34 2    
    67   33   35 1    
    68   35   36 1    
    69   35   37 1    
    70   35  112 1    
    71   36  113 1    
    72   36  114 1    
    73   36  115 1    
    74   37   38 am   BACKBONE|DICT|INTERRES
    75   37  116 1    
    76   38   39 2    
    77   38   40 1    
    78   40   41 1    
    79   40   42 1    
    80   40  117 1    
    81   41  118 1    
    82   41  119 1    
    83   41  120 1    
    84   42   43 am   BACKBONE|DICT|INTERRES
    85   42  121 1    
    86   43   44 2    
    87   43   45 1    
    88   45   46 1    
    89   45   47 1    
    90   45  122 1    
    91   46  123 1    
    92   46  124 1    
    93   46  125 1    
    94   47   48 am   BACKBONE|DICT|INTERRES
    95   47  126 1    
    96   48   49 2    
    97   48   50 1    
    98   50   51 1    
    99   50   52 1    
   100   50  127 1    
   101   51  128 1    
   102   51  129 1    
   103   51  130 1    
   104   52   53 am   BACKBONE|DICT|INTERRES
   105   52  131 1    
   106   53   54 2    
   107   53   55 1    
   108   55   56 1    
   109   55   59 1    
   110   55  132 1    
   111   56   57 1    
   112   56  133 1    
   113   56  134 1    
   114   57   58 1    
   115   58  135 1    
   116   58  136 1    
   117   59   60 am   BACKBONE|DICT|INTERRES
   118   59  137 1    
   119   60   61 2    
   120   60   62 1    
   121   62   63 1    
   122   62   64 1    
   123   62  138 1    
   124   63  139 1    
   125   63  140 1    
   126   63  141 1    
   127   64   65 am   BACKBONE|DICT|INTERRES
   128   64  142 1    
   129   65   66 2    
   130   65   67 1    
   131   67   68 1    
   132   67   69 1    
   133   67  143 1    
   134   68  144 1    
   135   68  145 1    
   136   68  146 1    
   137   69   70 am   BACKBONE|DICT|INTERRES
   138   69  147 1    
   139   70   71 2    
   140   70   72 1    
   141   72   73 1    
   142   72   74 1    
   143   72  148 1    
   144   73  149 1    
   145   73  150 1    
   146   73  151 1    
   147   74   75 am   BACKBONE|DICT|INTERRES
   148   74  152 1    
   149   75   76 2    
   150   75   77 1    
   151   77   78 1    
   152   77   79 1    
   153   77  153 1    
   154   78  154 1    
   155   78  155 1    
   156   78  156 1    
   157   79   80 am   BACKBONE|DICT|INTERRES
   158   79  157 1    
   159   80   81 2    
@<TRIPOS>SUBSTRUCTURE
     1 UNK         1 GROUP             0       ****    0 ROOT    
