@<TRIPOS>MOLECULE
3R207
157   159    1
SMALL
USER_CHARGES


@<TRIPOS>ATOM
      1 CA        -51.8034  -23.8967    6.6473 C.3       0 UNK        -0.1975 
      2 C         -52.2098  -23.9989    5.1811 C.2       0 UNK         0.4852 
      3 O         -52.4379  -22.9715    4.5447 O.2       0 UNK        -0.5216 
      4 N         -52.3343  -25.2031    4.6057 N.am      1 UNK        -0.4461 
      5 CA        -52.0039  -26.5066    5.1933 C.3       1 UNK         0.0864 
      6 C6        -52.7492  -27.6323    4.4352 C.3       14 UNK        -0.0898 
      7 S7        -52.7283  -29.2600    5.2592 S.3       14 UNK        -0.2598 
      8 C8        -53.8707  -29.0160    6.6603 C.3       14 UNK         0.0286 
      9 C9        -53.1323  -28.7132    7.9593 C.ar      14 UNK        -0.0844 
     10 C10       -53.3829  -27.5327    8.6698 C.ar      14 UNK        -0.0881 
     11 C11       -52.7499  -27.2961    9.8954 C.ar      14 UNK        -0.0643 
     12 C12       -51.8456  -28.2382   10.3934 C.ar      14 UNK        -0.0930 
     13 C13       -51.5744  -29.4117    9.6881 C.ar      14 UNK        -0.0827 
     14 C14       -52.2287  -29.6476    8.4773 C.ar      14 UNK        -0.1249 
     15 C15       -50.5509  -30.4059   10.2195 C.3       14 UNK         0.0141 
     16 S16       -50.9297  -30.9912   11.9009 S.3       14 UNK        -0.2313 
     17 C17       -52.2733  -32.1932   11.6016 C.3       14 UNK        -0.0915 
     18 CA        -53.6245  -31.8150   12.2633 C.3       13 UNK         0.0968 
     19 C         -53.5370  -31.7793   13.8194 C.2       13 UNK         0.5732 
     20 N         -53.6780  -30.6300   14.4711 N.am      13 UNK        -0.7310 
     21 O         -53.3528  -32.8211   14.4449 O.2       13 UNK        -0.5035 
     22 N         -54.2086  -30.6154   11.6505 N.am      13 UNK        -0.4233 
     23 C         -55.4964  -30.2680   11.7560 C.2       13 UNK         0.4989 
     24 O         -56.3639  -30.9639   12.2881 O.2       13 UNK        -0.4996 
     25 CA        -55.8750  -28.8894   11.1944 C.3       12 UNK         0.0216 
     26 CB        -57.0937  -28.9743   10.2599 C.3       12 UNK        -0.1964 
     27 N         -56.1361  -27.9138   12.2564 N.am      12 UNK        -0.4276 
     28 C         -55.2554  -27.5341   13.1914 C.2       12 UNK         0.5020 
     29 O         -54.1094  -27.9844   13.2927 O.2       12 UNK        -0.5489 
     30 CA        -55.7257  -26.4686   14.1843 C.3       11 UNK         0.0294 
     31 CB        -56.4305  -27.1168   15.3896 C.3       11 UNK        -0.2019 
     32 N         -54.5449  -25.7351   14.6234 N.am      11 UNK        -0.4493 
     33 C         -54.5172  -24.5241   15.1894 C.2       11 UNK         0.4932 
     34 O         -55.5318  -23.8620   15.4139 O.2       11 UNK        -0.5029 
     35 CA        -53.1332  -23.9328   15.5416 C.3       10 UNK         0.0280 
     36 CB        -53.1533  -23.1395   16.8652 C.3       10 UNK        -0.1976 
     37 N         -52.0284  -24.9029   15.5306 N.am      10 UNK        -0.4242 
     38 C         -51.8761  -25.9784   16.3201 C.2       10 UNK         0.5072 
     39 O         -52.6623  -26.3019   17.2110 O.2       10 UNK        -0.5224 
     40 CA        -50.6469  -26.8619   16.0549 C.3       9 UNK         0.0343 
     41 CB        -50.9218  -27.8234   14.8854 C.3       9 UNK        -0.2003 
     42 N         -49.4228  -26.1038   15.7873 N.am      9 UNK        -0.4272 
     43 C         -48.7790  -25.3361   16.6791 C.2       9 UNK         0.4988 
     44 O         -49.1689  -25.1457   17.8314 O.2       9 UNK        -0.5108 
     45 CA        -47.4663  -24.6849   16.2156 C.3       8 UNK         0.0248 
     46 CB        -46.3161  -25.7062   16.2289 C.3       8 UNK        -0.2001 
     47 N         -47.5955  -24.1104   14.8763 N.am      8 UNK        -0.4140 
     48 C         -47.9699  -22.8476   14.6275 C.2       8 UNK         0.5028 
     49 O         -48.1764  -22.0088   15.5057 O.2       8 UNK        -0.5428 
     50 CA        -48.1505  -22.4380   13.1519 C.3       7 UNK         0.0264 
     51 CB        -46.8555  -21.8123   12.6092 C.3       7 UNK        -0.1988 
     52 N         -48.5606  -23.5305   12.2649 N.am      7 UNK        -0.4454 
     53 C         -49.6867  -24.2465   12.3990 C.2       7 UNK         0.5027 
     54 O         -50.5245  -24.0493   13.2798 O.2       7 UNK        -0.5083 
     55 CA        -49.8727  -25.4400   11.4438 C.3       6 UNK         0.0844 
     56 C56       -50.5020  -25.0252   10.0913 C.3       14 UNK        -0.0967 
     57 S57       -52.2597  -24.5454   10.1648 S.3       14 UNK        -0.2604 
     58 C58       -53.0917  -26.0638   10.7240 C.3       14 UNK         0.0134 
     59 N         -48.6415  -26.2059   11.2353 N.am      6 UNK        -0.4116 
     60 C         -47.8809  -26.7690   12.1836 C.2       5 UNK         0.5034 
     61 O         -48.1215  -26.7012   13.3872 O.2       5 UNK        -0.5045 
     62 CA        -46.6125  -27.4904   11.7107 C.3       5 UNK         0.0224 
     63 CB        -46.9389  -28.9004   11.1955 C.3       5 UNK        -0.1978 
     64 N         -45.9374  -26.7272   10.6611 N.am      5 UNK        -0.4737 
     65 C         -45.0970  -25.7109   10.8933 C.2       4 UNK         0.5027 
     66 O         -44.7285  -25.3704   12.0173 O.2       4 UNK        -0.5211 
     67 CA        -44.5940  -24.9301    9.6658 C.3       4 UNK         0.0297 
     68 CB        -43.3130  -25.5714    9.1090 C.3       4 UNK        -0.1993 
     69 N         -45.5878  -24.8134    8.5930 N.am      4 UNK        -0.4486 
     70 C         -46.7470  -24.1503    8.7026 C.2       3 UNK         0.4961 
     71 O         -47.1212  -23.5825    9.7293 O.2       3 UNK        -0.5105 
     72 CA        -47.6670  -24.1495    7.4691 C.3       3 UNK         0.0299 
     73 CB        -47.1880  -23.1126    6.4411 C.3       3 UNK        -0.1972 
     74 N         -47.8616  -25.4450    6.8016 N.am      3 UNK        -0.4305 
     75 C         -48.1155  -26.6264    7.3832 C.2       2 UNK         0.5006 
     76 O         -48.0657  -26.8255    8.5963 O.2       2 UNK        -0.5106 
     77 CA        -48.5848  -27.7556    6.4535 C.3       2 UNK         0.0296 
     78 CB        -48.3990  -29.1475    7.0840 C.3       2 UNK        -0.2002 
     79 N         -50.0022  -27.5577    6.1522 N.am      2 UNK        -0.4032 
     80 C         -50.4731  -26.7155    5.2242 C.2       1 UNK         0.5000 
     81 O         -49.7464  -26.0970    4.4403 O.2       1 UNK        -0.5238 
     82 H82       -52.5380  -24.3968    7.2764 H         1 UNK         0.0889 
     83 H83       -51.7542  -22.8545    6.9619 H         1 UNK         0.0889 
     84 H84       -50.8253  -24.3410    6.8220 H         1 UNK         0.0889 
     85 H85       -52.5806  -25.2313    3.6267 H         1 UNK         0.3028 
     86 H86       -52.3604  -26.5048    6.2232 H         1 UNK         0.0864 
     87 H87       -53.7950  -27.3551    4.2907 H         1 UNK         0.0720 
     88 H88       -52.3373  -27.7535    3.4313 H         1 UNK         0.0720 
     89 H89       -54.4481  -29.9312    6.7989 H         1 UNK         0.0814 
     90 H90       -54.5951  -28.2352    6.4240 H         1 UNK         0.0814 
     91 H91       -54.0952  -26.8122    8.2915 H         1 UNK         0.1469 
     92 H92       -51.3612  -28.0758   11.3451 H         1 UNK         0.1381 
     93 H93       -52.0339  -30.5603    7.9304 H         1 UNK         0.1206 
     94 H94       -50.4419  -31.2613    9.5511 H         1 UNK         0.0813 
     95 H95       -49.5800  -29.9144   10.2440 H         1 UNK         0.0813 
     96 H96       -51.9382  -33.1658   11.9662 H         1 UNK         0.0638 
     97 H97       -52.4161  -32.3198   10.5274 H         1 UNK         0.0638 
     98 H98       -54.3098  -32.6348   12.0393 H         1 UNK         0.0568 
     99 H99       -53.6261  -30.6264   15.4761 H         1 UNK         0.3450 
    100 H100      -53.8084  -29.7584   13.9651 H         1 UNK         0.3450 
    101 H101      -53.5496  -29.9655   11.2440 H         1 UNK         0.2987 
    102 H102      -55.0383  -28.5196   10.6063 H         1 UNK         0.0766 
    103 H103      -57.3021  -28.0127    9.7904 H         1 UNK         0.0798 
    104 H104      -57.9917  -29.2919   10.7915 H         1 UNK         0.0798 
    105 H105      -56.9183  -29.6927    9.4578 H         1 UNK         0.0798 
    106 H106      -57.0642  -27.5164   12.2780 H         1 UNK         0.3198 
    107 H107      -56.4062  -25.7815   13.6770 H         1 UNK         0.0843 
    108 H108      -57.3006  -27.6934   15.0734 H         1 UNK         0.0831 
    109 H109      -56.7806  -26.3662   16.0982 H         1 UNK         0.0831 
    110 H110      -55.7644  -27.7956   15.9244 H         1 UNK         0.0831 
    111 H111      -53.6764  -26.2223   14.4385 H         1 UNK         0.3133 
    112 H112      -52.9046  -23.2261   14.7427 H         1 UNK         0.0566 
    113 H113      -52.1749  -22.7124   17.0857 H         1 UNK         0.0814 
    114 H114      -53.8625  -22.3123   16.8168 H         1 UNK         0.0814 
    115 H115      -53.4440  -23.7662   17.7087 H         1 UNK         0.0814 
    116 H116      -51.3301  -24.7308   14.8085 H         1 UNK         0.3091 
    117 H117      -50.4723  -27.4615   16.9507 H         1 UNK         0.0702 
    118 H118      -50.0878  -28.5071   14.7257 H         1 UNK         0.0785 
    119 H119      -51.0974  -27.2886   13.9522 H         1 UNK         0.0785 
    120 H120      -51.8059  -28.4321   15.0793 H         1 UNK         0.0785 
    121 H121      -48.9946  -26.2475   14.8744 H         1 UNK         0.2998 
    122 H122      -47.2145  -23.8963   16.9281 H         1 UNK         0.0697 
    123 H123      -46.4945  -26.5341   15.5419 H         1 UNK         0.0825 
    124 H124      -46.1859  -26.1321   17.2246 H         1 UNK         0.0825 
    125 H125      -45.3709  -25.2402   15.9500 H         1 UNK         0.0825 
    126 H126      -47.4861  -24.7477   14.0977 H         1 UNK         0.3029 
    127 H127      -48.9372  -21.6812   13.1216 H         1 UNK         0.0897 
    128 H128      -46.9986  -21.4139   11.6045 H         1 UNK         0.0792 
    129 H129      -46.5232  -20.9868   13.2403 H         1 UNK         0.0792 
    130 H130      -46.0443  -22.5409   12.5668 H         1 UNK         0.0792 
    131 H131      -47.9509  -23.7255   11.4736 H         1 UNK         0.3086 
    132 H132      -50.5525  -26.1214   11.9498 H         1 UNK         0.0583 
    133 H133      -49.9449  -24.1967    9.6539 H         1 UNK         0.1020 
    134 H134      -50.4248  -25.8416    9.3723 H         1 UNK         0.1020 
    135 H135      -52.8471  -26.2280   11.7734 H         1 UNK         0.0694 
    136 H136      -54.1694  -25.8981   10.6946 H         1 UNK         0.0694 
    137 H137      -48.3655  -26.3507   10.2653 H         1 UNK         0.2989 
    138 H138      -45.9490  -27.5900   12.5731 H         1 UNK         0.1055 
    139 H139      -47.5146  -29.4652   11.9306 H         1 UNK         0.0806 
    140 H140      -46.0286  -29.4648   10.9936 H         1 UNK         0.0806 
    141 H141      -47.5193  -28.8691   10.2739 H         1 UNK         0.0806 
    142 H142      -46.2488  -26.8897    9.7108 H         1 UNK         0.3061 
    143 H143      -44.3507  -23.9194   10.0012 H         1 UNK         0.0734 
    144 H144      -42.5481  -25.6481    9.8832 H         1 UNK         0.0832 
    145 H145      -43.4954  -26.5784    8.7315 H         1 UNK         0.0832 
    146 H146      -42.8909  -24.9781    8.2978 H         1 UNK         0.0832 
    147 H147      -45.3749  -25.2647    7.7152 H         1 UNK         0.3156 
    148 H148      -48.6513  -23.8300    7.8107 H         1 UNK         0.0589 
    149 H149      -47.0496  -22.1350    6.9056 H         1 UNK         0.0808 
    150 H150      -46.2362  -23.3978    5.9914 H         1 UNK         0.0808 
    151 H151      -47.9139  -22.9854    5.6375 H         1 UNK         0.0808 
    152 H152      -47.9756  -25.4049    5.7963 H         1 UNK         0.3098 
    153 H153      -47.9970  -27.7183    5.5337 H         1 UNK         0.0720 
    154 H154      -48.6935  -29.9372    6.3927 H         1 UNK         0.0791 
    155 H155      -48.9915  -29.2621    7.9912 H         1 UNK         0.0791 
    156 H156      -47.3556  -29.3200    7.3511 H         1 UNK         0.0791 
    157 H157      -50.6592  -28.0343    6.7558 H         1 UNK         0.3028 
@<TRIPOS>BOND
     1    1    2 1    
     2    1   82 1    
     3    1   83 1    
     4    1   84 1    
     5    2    3 2    
     6    2    4 am   BACKBONE|DICT|INTERRES
     7    4    5 1    
     8    4   85 1    
     9    5    6 1    
    10    5   80 1    
    11    5   86 1    
    12    6    7 1    
    13    6   87 1    
    14    6   88 1    
    15    7    8 1    
    16    8    9 1    
    17    8   89 1    
    18    8   90 1    
    19    9   10 ar   
    20    9   14 ar   
    21   10   11 ar   
    22   10   91 1    
    23   11   12 ar   
    24   11   58 1    
    25   12   13 ar   
    26   12   92 1    
    27   13   14 ar   
    28   13   15 1    
    29   14   93 1    
    30   15   16 1    
    31   15   94 1    
    32   15   95 1    
    33   16   17 1    
    34   17   18 1    
    35   17   96 1    
    36   17   97 1    
    37   18   19 1    
    38   18   22 1    
    39   18   98 1    
    40   19   20 am   BACKBONE|DICT|INTERRES
    41   19   21 2    
    42   20   99 1    
    43   20  100 1    
    44   22   23 am   BACKBONE|DICT|INTERRES
    45   22  101 1    
    46   23   24 2    
    47   23   25 1    
    48   25   26 1    
    49   25   27 1    
    50   25  102 1    
    51   26  103 1    
    52   26  104 1    
    53   26  105 1    
    54   27   28 am   BACKBONE|DICT|INTERRES
    55   27  106 1    
    56   28   29 2    
    57   28   30 1    
    58   30   31 1    
    59   30   32 1    
    60   30  107 1    
    61   31  108 1    
    62   31  109 1    
    63   31  110 1    
    64   32   33 am   BACKBONE|DICT|INTERRES
    65   32  111 1    
    66   33   34 2    
    67   33   35 1    
    68   35   36 1    
    69   35   37 1    
    70   35  112 1    
    71   36  113 1    
    72   36  114 1    
    73   36  115 1    
    74   37   38 am   BACKBONE|DICT|INTERRES
    75   37  116 1    
    76   38   39 2    
    77   38   40 1    
    78   40   41 1    
    79   40   42 1    
    80   40  117 1    
    81   41  118 1    
    82   41  119 1    
    83   41  120 1    
    84   42   43 am   BACKBONE|DICT|INTERRES
    85   42  121 1    
    86   43   44 2    
    87   43   45 1    
    88   45   46 1    
    89   45   47 1    
    90   45  122 1    
    91   46  123 1    
    92   46  124 1    
    93   46  125 1    
    94   47   48 am   BACKBONE|DICT|INTERRES
    95   47  126 1    
    96   48   49 2    
    97   48   50 1    
    98   50   51 1    
    99   50   52 1    
   100   50  127 1    
   101   51  128 1    
   102   51  129 1    
   103   51  130 1    
   104   52   53 am   BACKBONE|DICT|INTERRES
   105   52  131 1    
   106   53   54 2    
   107   53   55 1    
   108   55   56 1    
   109   55   59 1    
   110   55  132 1    
   111   56   57 1    
   112   56  133 1    
   113   56  134 1    
   114   57   58 1    
   115   58  135 1    
   116   58  136 1    
   117   59   60 am   BACKBONE|DICT|INTERRES
   118   59  137 1    
   119   60   61 2    
   120   60   62 1    
   121   62   63 1    
   122   62   64 1    
   123   62  138 1    
   124   63  139 1    
   125   63  140 1    
   126   63  141 1    
   127   64   65 am   BACKBONE|DICT|INTERRES
   128   64  142 1    
   129   65   66 2    
   130   65   67 1    
   131   67   68 1    
   132   67   69 1    
   133   67  143 1    
   134   68  144 1    
   135   68  145 1    
   136   68  146 1    
   137   69   70 am   BACKBONE|DICT|INTERRES
   138   69  147 1    
   139   70   71 2    
   140   70   72 1    
   141   72   73 1    
   142   72   74 1    
   143   72  148 1    
   144   73  149 1    
   145   73  150 1    
   146   73  151 1    
   147   74   75 am   BACKBONE|DICT|INTERRES
   148   74  152 1    
   149   75   76 2    
   150   75   77 1    
   151   77   78 1    
   152   77   79 1    
   153   77  153 1    
   154   78  154 1    
   155   78  155 1    
   156   78  156 1    
   157   79   80 am   BACKBONE|DICT|INTERRES
   158   79  157 1    
   159   80   81 2    
@<TRIPOS>SUBSTRUCTURE
     1 UNK         1 GROUP             0       ****    0 ROOT    
