@<TRIPOS>MOLECULE
3R207
157   159    1
SMALL
USER_CHARGES


@<TRIPOS>ATOM
      1 CA        -47.7039  -30.8175    1.2551 C.3       0 UNK        -0.1975 
      2 C         -48.3351  -30.1760    2.4817 C.2       0 UNK         0.4852 
      3 O         -47.9208  -30.4695    3.6044 O.2       0 UNK        -0.5216 
      4 N         -49.3266  -29.2966    2.2751 N.am      1 UNK        -0.4461 
      5 CA        -50.0879  -28.5479    3.2865 C.3       1 UNK         0.0864 
      6 C6        -50.8082  -29.4660    4.3113 C.3       14 UNK        -0.0898 
      7 S7        -52.2384  -28.6693    5.1138 S.3       14 UNK        -0.2598 
      8 C8        -51.5111  -28.3052    6.7370 C.3       14 UNK         0.0286 
      9 C9        -52.4975  -27.6213    7.6677 C.ar      14 UNK        -0.0844 
     10 C10       -52.7455  -26.2529    7.5429 C.ar      14 UNK        -0.0881 
     11 C11       -53.6234  -25.6105    8.4197 C.ar      14 UNK        -0.0643 
     12 C12       -54.2467  -26.3495    9.4291 C.ar      14 UNK        -0.0930 
     13 C13       -53.9980  -27.7180    9.5816 C.ar      14 UNK        -0.0827 
     14 C14       -53.1304  -28.3486    8.6787 C.ar      14 UNK        -0.1249 
     15 C15       -54.6730  -28.4443   10.7503 C.3       14 UNK         0.0141 
     16 S16       -54.3990  -30.2476   10.8736 S.3       14 UNK        -0.2313 
     17 C17       -52.6391  -30.3321   11.3475 C.3       14 UNK        -0.0915 
     18 CA        -52.4248  -30.8183   12.8024 C.3       13 UNK         0.0968 
     19 C         -50.9398  -31.1947   13.0544 C.2       13 UNK         0.5732 
     20 N         -50.5123  -32.3580   12.5825 N.am      13 UNK        -0.7310 
     21 O         -50.1652  -30.4437   13.6439 O.2       13 UNK        -0.5035 
     22 N         -52.8955  -29.8224   13.7721 N.am      13 UNK        -0.4233 
     23 C         -53.4212  -30.1121   14.9685 C.2       13 UNK         0.4989 
     24 O         -53.6397  -31.2618   15.3547 O.2       13 UNK        -0.4996 
     25 CA        -53.7672  -28.9394   15.9074 C.3       12 UNK         0.0216 
     26 CB        -52.9148  -28.9909   17.1833 C.3       12 UNK        -0.1964 
     27 N         -53.6243  -27.6210   15.2788 N.am      12 UNK        -0.4276 
     28 C         -54.5428  -27.0880   14.4610 C.2       12 UNK         0.5020 
     29 O         -55.6209  -27.6305   14.2095 O.2       12 UNK        -0.5489 
     30 CA        -54.1830  -25.7524   13.7860 C.3       11 UNK         0.0294 
     31 CB        -55.3551  -25.1335   12.9938 C.3       11 UNK        -0.2019 
     32 N         -53.6028  -24.7682   14.7024 N.am      11 UNK        -0.4493 
     33 C         -54.1667  -24.2236   15.7884 C.2       11 UNK         0.4932 
     34 O         -55.2933  -24.5036   16.2026 O.2       11 UNK        -0.5029 
     35 CA        -53.3019  -23.1826   16.5255 C.3       10 UNK         0.0280 
     36 CB        -54.1189  -22.2900   17.4842 C.3       10 UNK        -0.1976 
     37 N         -52.1728  -23.8083   17.2234 N.am      10 UNK        -0.4242 
     38 C         -52.2246  -24.7420   18.1882 C.2       10 UNK         0.5072 
     39 O         -53.2669  -25.1676   18.6891 O.2       10 UNK        -0.5224 
     40 CA        -50.8659  -25.2827   18.6831 C.3       9 UNK         0.0343 
     41 CB        -50.9790  -26.5858   19.5000 C.3       9 UNK        -0.2003 
     42 N         -49.8528  -25.4405   17.6329 N.am      9 UNK        -0.4272 
     43 C         -49.9724  -26.0529   16.4446 C.2       9 UNK         0.4988 
     44 O         -51.0133  -26.5487   16.0061 O.2       9 UNK        -0.5108 
     45 CA        -48.6929  -26.0838   15.5918 C.3       8 UNK         0.0248 
     46 CB        -48.4930  -27.4731   14.9613 C.3       8 UNK        -0.2001 
     47 N         -48.6828  -25.0643   14.5388 N.am      8 UNK        -0.4140 
     48 C         -48.8771  -23.7448   14.6953 C.2       8 UNK         0.5028 
     49 O         -49.0734  -23.1945   15.7802 O.2       8 UNK        -0.5428 
     50 CA        -48.8644  -22.8841   13.4196 C.3       7 UNK         0.0264 
     51 CB        -47.4291  -22.4776   13.0508 C.3       7 UNK        -0.1988 
     52 N         -49.4988  -23.5379   12.2729 N.am      7 UNK        -0.4454 
     53 C         -50.7939  -23.8813   12.2126 C.2       7 UNK         0.5027 
     54 O         -51.5983  -23.6506   13.1149 O.2       7 UNK        -0.5083 
     55 CA        -51.2532  -24.6291   10.9454 C.3       6 UNK         0.0844 
     56 C56       -51.5194  -23.6568    9.7647 C.3       14 UNK        -0.0967 
     57 S57       -53.2716  -23.1536    9.7012 S.3       14 UNK        -0.2604 
     58 C58       -53.8902  -24.1165    8.2805 C.3       14 UNK         0.0134 
     59 N         -50.2907  -25.6730   10.5966 N.am      6 UNK        -0.4116 
     60 C         -50.1736  -26.8469   11.2331 C.2       5 UNK         0.5034 
     61 O         -50.9512  -27.2345   12.1055 O.2       5 UNK        -0.5045 
     62 CA        -48.9613  -27.7207   10.8562 C.3       5 UNK         0.0224 
     63 CB        -49.3496  -28.7996    9.8361 C.3       5 UNK        -0.1978 
     64 N         -47.8476  -26.9381   10.3100 N.am      5 UNK        -0.4737 
     65 C         -47.0483  -26.1554   11.0490 C.2       4 UNK         0.5027 
     66 O         -47.1503  -26.0410   12.2683 O.2       4 UNK        -0.5211 
     67 CA        -45.9977  -25.3139   10.3017 C.3       4 UNK         0.0297 
     68 CB        -44.6977  -26.1135   10.1250 C.3       4 UNK        -0.1993 
     69 N         -46.4578  -24.8346    8.9956 N.am      4 UNK        -0.4486 
     70 C         -47.5401  -24.0701    8.7930 C.2       3 UNK         0.4961 
     71 O         -48.2370  -23.6246    9.7042 O.2       3 UNK        -0.5105 
     72 CA        -47.9539  -23.7945    7.3367 C.3       3 UNK         0.0299 
     73 CB        -47.5042  -22.3876    6.9135 C.3       3 UNK        -0.1972 
     74 N         -47.4659  -24.7767    6.3600 N.am      3 UNK        -0.4305 
     75 C         -47.7508  -26.0870    6.3623 C.2       2 UNK         0.5006 
     76 O         -48.3946  -26.6513    7.2495 O.2       2 UNK        -0.5106 
     77 CA        -47.1535  -26.9135    5.2117 C.3       2 UNK         0.0296 
     78 CB        -45.9642  -27.7460    5.7179 C.3       2 UNK        -0.2002 
     79 N         -48.1288  -27.8063    4.5829 N.am      2 UNK        -0.4032 
     80 C         -49.2481  -27.4310    3.9484 C.2       1 UNK         0.5000 
     81 O         -49.6041  -26.2571    3.8274 O.2       1 UNK        -0.5238 
     82 H82       -46.6408  -30.5819    1.2144 H         1 UNK         0.0889 
     83 H83       -48.1642  -30.4712    0.3299 H         1 UNK         0.0889 
     84 H84       -47.8114  -31.9008    1.3024 H         1 UNK         0.0889 
     85 H85       -49.5888  -29.0890    1.3208 H         1 UNK         0.3028 
     86 H86       -50.8648  -28.0397    2.7120 H         1 UNK         0.0864 
     87 H87       -51.1968  -30.3471    3.7983 H         1 UNK         0.0720 
     88 H88       -50.1149  -29.8501    5.0617 H         1 UNK         0.0720 
     89 H89       -50.6408  -27.6648    6.6031 H         1 UNK         0.0814 
     90 H90       -51.1489  -29.2328    7.1829 H         1 UNK         0.0814 
     91 H91       -52.2499  -25.6909    6.7629 H         1 UNK         0.1469 
     92 H92       -54.9162  -25.8443   10.1101 H         1 UNK         0.1381 
     93 H93       -52.9222  -29.4047    8.7601 H         1 UNK         0.1206 
     94 H94       -55.7489  -28.2737   10.6927 H         1 UNK         0.0813 
     95 H95       -54.3389  -27.9871   11.6804 H         1 UNK         0.0813 
     96 H96       -52.1780  -29.3559   11.2040 H         1 UNK         0.0638 
     97 H97       -52.1553  -31.0061   10.6383 H         1 UNK         0.0638 
     98 H98       -53.0066  -31.7330   12.9325 H         1 UNK         0.0568 
     99 H99       -51.1321  -32.9842   12.0929 H         1 UNK         0.3450 
    100 H100      -49.5496  -32.6180   12.7276 H         1 UNK         0.3450 
    101 H101      -52.6705  -28.8618   13.5596 H         1 UNK         0.2987 
    102 H102      -54.8097  -29.0701   16.2057 H         1 UNK         0.0766 
    103 H103      -53.1974  -28.1924   17.8693 H         1 UNK         0.0798 
    104 H104      -51.8514  -28.8953   16.9619 H         1 UNK         0.0798 
    105 H105      -53.0538  -29.9349   17.7119 H         1 UNK         0.0798 
    106 H106      -52.7513  -27.1233   15.4536 H         1 UNK         0.3198 
    107 H107      -53.3973  -25.9924   13.0686 H         1 UNK         0.0843 
    108 H108      -55.0320  -24.2563   12.4327 H         1 UNK         0.0831 
    109 H109      -56.1732  -24.8332   13.6488 H         1 UNK         0.0831 
    110 H110      -55.7661  -25.8439   12.2768 H         1 UNK         0.0831 
    111 H111      -52.6904  -24.4200   14.4129 H         1 UNK         0.3133 
    112 H112      -52.8702  -22.5313   15.7635 H         1 UNK         0.0566 
    113 H113      -53.4919  -21.5287   17.9480 H         1 UNK         0.0814 
    114 H114      -54.9146  -21.7726   16.9471 H         1 UNK         0.0814 
    115 H115      -54.5899  -22.8667   18.2809 H         1 UNK         0.0814 
    116 H116      -51.2544  -23.5617   16.8745 H         1 UNK         0.3091 
    117 H117      -50.4834  -24.5147   19.3570 H         1 UNK         0.0702 
    118 H118      -51.7097  -26.4938   20.3044 H         1 UNK         0.0785 
    119 H119      -50.0259  -26.8416   19.9627 H         1 UNK         0.0785 
    120 H120      -51.2763  -27.4262   18.8767 H         1 UNK         0.0785 
    121 H121      -48.9629  -25.0048   17.8341 H         1 UNK         0.2998 
    122 H122      -47.8368  -25.8888   16.2404 H         1 UNK         0.0697 
    123 H123      -49.2753  -27.7035   14.2370 H         1 UNK         0.0825 
    124 H124      -48.5181  -28.2558   15.7205 H         1 UNK         0.0825 
    125 H125      -47.5318  -27.5480   14.4534 H         1 UNK         0.0825 
    126 H126      -48.4466  -25.3969   13.6087 H         1 UNK         0.3029 
    127 H127      -49.4314  -21.9752   13.6324 H         1 UNK         0.0897 
    128 H128      -47.4106  -21.8370   12.1688 H         1 UNK         0.0792 
    129 H129      -46.9608  -21.9235   13.8654 H         1 UNK         0.0792 
    130 H130      -46.8034  -23.3467   12.8474 H         1 UNK         0.0792 
    131 H131      -48.9177  -23.6989   11.4532 H         1 UNK         0.3086 
    132 H132      -52.1867  -25.1393   11.1905 H         1 UNK         0.0583 
    133 H133      -50.8946  -22.7625    9.8165 H         1 UNK         0.1020 
    134 H134      -51.2574  -24.1231    8.8142 H         1 UNK         0.1020 
    135 H135      -54.9644  -23.9528    8.1845 H         1 UNK         0.0694 
    136 H136      -53.4387  -23.7256    7.3673 H         1 UNK         0.0694 
    137 H137      -49.5799  -25.4223    9.9241 H         1 UNK         0.2989 
    138 H138      -48.6224  -28.2187   11.7679 H         1 UNK         0.1055 
    139 H139      -50.1137  -29.4635   10.2357 H         1 UNK         0.0806 
    140 H140      -48.4946  -29.4207    9.5687 H         1 UNK         0.0806 
    141 H141      -49.7401  -28.3559    8.9219 H         1 UNK         0.0806 
    142 H142      -47.7411  -26.9408    9.3010 H         1 UNK         0.3061 
    143 H143      -45.7799  -24.4372   10.9146 H         1 UNK         0.0734 
    144 H144      -43.9120  -25.5030    9.6796 H         1 UNK         0.0832 
    145 H145      -44.3243  -26.4658   11.0878 H         1 UNK         0.0832 
    146 H146      -44.8438  -26.9900    9.4923 H         1 UNK         0.0832 
    147 H147      -45.9453  -25.1517    8.1862 H         1 UNK         0.3156 
    148 H148      -49.0450  -23.8253    7.3058 H         1 UNK         0.0589 
    149 H149      -46.4171  -22.2998    6.8916 H         1 UNK         0.0808 
    150 H150      -47.8838  -22.1287    5.9249 H         1 UNK         0.0808 
    151 H151      -47.8775  -21.6330    7.6078 H         1 UNK         0.0808 
    152 H152      -46.9120  -24.4089    5.5993 H         1 UNK         0.3098 
    153 H153      -46.7925  -26.2331    4.4378 H         1 UNK         0.0720 
    154 H154      -45.4923  -28.2991    4.9053 H         1 UNK         0.0791 
    155 H155      -46.2722  -28.4659    6.4777 H         1 UNK         0.0791 
    156 H156      -45.1983  -27.1091    6.1625 H         1 UNK         0.0791 
    157 H157      -47.9109  -28.7989    4.5764 H         1 UNK         0.3028 
@<TRIPOS>BOND
     1    1    2 1    
     2    1   82 1    
     3    1   83 1    
     4    1   84 1    
     5    2    3 2    
     6    2    4 am   BACKBONE|DICT|INTERRES
     7    4    5 1    
     8    4   85 1    
     9    5    6 1    
    10    5   80 1    
    11    5   86 1    
    12    6    7 1    
    13    6   87 1    
    14    6   88 1    
    15    7    8 1    
    16    8    9 1    
    17    8   89 1    
    18    8   90 1    
    19    9   10 ar   
    20    9   14 ar   
    21   10   11 ar   
    22   10   91 1    
    23   11   12 ar   
    24   11   58 1    
    25   12   13 ar   
    26   12   92 1    
    27   13   14 ar   
    28   13   15 1    
    29   14   93 1    
    30   15   16 1    
    31   15   94 1    
    32   15   95 1    
    33   16   17 1    
    34   17   18 1    
    35   17   96 1    
    36   17   97 1    
    37   18   19 1    
    38   18   22 1    
    39   18   98 1    
    40   19   20 am   BACKBONE|DICT|INTERRES
    41   19   21 2    
    42   20   99 1    
    43   20  100 1    
    44   22   23 am   BACKBONE|DICT|INTERRES
    45   22  101 1    
    46   23   24 2    
    47   23   25 1    
    48   25   26 1    
    49   25   27 1    
    50   25  102 1    
    51   26  103 1    
    52   26  104 1    
    53   26  105 1    
    54   27   28 am   BACKBONE|DICT|INTERRES
    55   27  106 1    
    56   28   29 2    
    57   28   30 1    
    58   30   31 1    
    59   30   32 1    
    60   30  107 1    
    61   31  108 1    
    62   31  109 1    
    63   31  110 1    
    64   32   33 am   BACKBONE|DICT|INTERRES
    65   32  111 1    
    66   33   34 2    
    67   33   35 1    
    68   35   36 1    
    69   35   37 1    
    70   35  112 1    
    71   36  113 1    
    72   36  114 1    
    73   36  115 1    
    74   37   38 am   BACKBONE|DICT|INTERRES
    75   37  116 1    
    76   38   39 2    
    77   38   40 1    
    78   40   41 1    
    79   40   42 1    
    80   40  117 1    
    81   41  118 1    
    82   41  119 1    
    83   41  120 1    
    84   42   43 am   BACKBONE|DICT|INTERRES
    85   42  121 1    
    86   43   44 2    
    87   43   45 1    
    88   45   46 1    
    89   45   47 1    
    90   45  122 1    
    91   46  123 1    
    92   46  124 1    
    93   46  125 1    
    94   47   48 am   BACKBONE|DICT|INTERRES
    95   47  126 1    
    96   48   49 2    
    97   48   50 1    
    98   50   51 1    
    99   50   52 1    
   100   50  127 1    
   101   51  128 1    
   102   51  129 1    
   103   51  130 1    
   104   52   53 am   BACKBONE|DICT|INTERRES
   105   52  131 1    
   106   53   54 2    
   107   53   55 1    
   108   55   56 1    
   109   55   59 1    
   110   55  132 1    
   111   56   57 1    
   112   56  133 1    
   113   56  134 1    
   114   57   58 1    
   115   58  135 1    
   116   58  136 1    
   117   59   60 am   BACKBONE|DICT|INTERRES
   118   59  137 1    
   119   60   61 2    
   120   60   62 1    
   121   62   63 1    
   122   62   64 1    
   123   62  138 1    
   124   63  139 1    
   125   63  140 1    
   126   63  141 1    
   127   64   65 am   BACKBONE|DICT|INTERRES
   128   64  142 1    
   129   65   66 2    
   130   65   67 1    
   131   67   68 1    
   132   67   69 1    
   133   67  143 1    
   134   68  144 1    
   135   68  145 1    
   136   68  146 1    
   137   69   70 am   BACKBONE|DICT|INTERRES
   138   69  147 1    
   139   70   71 2    
   140   70   72 1    
   141   72   73 1    
   142   72   74 1    
   143   72  148 1    
   144   73  149 1    
   145   73  150 1    
   146   73  151 1    
   147   74   75 am   BACKBONE|DICT|INTERRES
   148   74  152 1    
   149   75   76 2    
   150   75   77 1    
   151   77   78 1    
   152   77   79 1    
   153   77  153 1    
   154   78  154 1    
   155   78  155 1    
   156   78  156 1    
   157   79   80 am   BACKBONE|DICT|INTERRES
   158   79  157 1    
   159   80   81 2    
@<TRIPOS>SUBSTRUCTURE
     1 UNK         1 GROUP             0       ****    0 ROOT    
