@<TRIPOS>MOLECULE
3R207
157   159    1
SMALL
USER_CHARGES


@<TRIPOS>ATOM
      1 CA        -50.0787  -29.4399    6.9543 C.3       0 UNK        -0.1975 
      2 C         -50.2889  -28.0420    6.3967 C.2       0 UNK         0.4852 
      3 O         -49.4826  -27.5890    5.5825 O.2       0 UNK        -0.5216 
      4 N         -51.3699  -27.3629    6.8053 N.am      1 UNK        -0.4461 
      5 CA        -51.6847  -25.9977    6.3758 C.3       1 UNK         0.0864 
      6 C6        -53.1933  -25.6674    6.5363 C.3       14 UNK        -0.0898 
      7 S7        -53.7593  -25.3606    8.2471 S.3       14 UNK        -0.2598 
      8 C8        -54.8862  -26.7571    8.5420 C.3       14 UNK         0.0286 
      9 C9        -54.1546  -28.0775    8.7407 C.ar      14 UNK        -0.0844 
     10 C10       -53.1910  -28.2061    9.7452 C.ar      14 UNK        -0.0881 
     11 C11       -52.5716  -29.4351    9.9875 C.ar      14 UNK        -0.0643 
     12 C12       -52.9357  -30.5477    9.2266 C.ar      14 UNK        -0.0930 
     13 C13       -53.9046  -30.4346    8.2267 C.ar      14 UNK        -0.0827 
     14 C14       -54.4977  -29.1941    7.9751 C.ar      14 UNK        -0.1249 
     15 C15       -54.3340  -31.6584    7.4360 C.3       14 UNK         0.0141 
     16 S16       -55.9962  -32.2198    7.9227 S.3       14 UNK        -0.2313 
     17 C17       -55.7204  -32.9088    9.5919 C.3       14 UNK        -0.0915 
     18 CA        -56.8052  -32.4269   10.6006 C.3       13 UNK         0.0968 
     19 C         -56.9845  -33.3699   11.8333 C.2       13 UNK         0.5732 
     20 N         -57.5538  -32.8981   12.9365 N.am      13 UNK        -0.7310 
     21 O         -56.6417  -34.5495   11.7877 O.2       13 UNK        -0.5035 
     22 N         -56.6890  -30.9897   10.9232 N.am      13 UNK        -0.4233 
     23 C         -55.7967  -30.4244   11.7507 C.2       13 UNK         0.4989 
     24 O         -54.9119  -31.0464   12.3450 O.2       13 UNK        -0.4996 
     25 CA        -55.9407  -28.9091   11.9803 C.3       12 UNK         0.0216 
     26 CB        -57.3881  -28.4933   12.3148 C.3       12 UNK        -0.1964 
     27 N         -55.0568  -28.4904   13.0687 N.am      12 UNK        -0.4276 
     28 C         -54.4211  -27.3170   13.1624 C.2       12 UNK         0.5020 
     29 O         -54.4945  -26.4293   12.3097 O.2       12 UNK        -0.5489 
     30 CA        -53.5861  -27.1014   14.4395 C.3       11 UNK         0.0294 
     31 CB        -52.5204  -28.1925   14.6593 C.3       11 UNK        -0.2019 
     32 N         -52.9147  -25.8016   14.4464 N.am      11 UNK        -0.4493 
     33 C         -53.4185  -24.6685   14.9489 C.2       11 UNK         0.4932 
     34 O         -54.5489  -24.5667   15.4306 O.2       11 UNK        -0.5029 
     35 CA        -52.4468  -23.4701   14.9637 C.3       10 UNK         0.0280 
     36 CB        -53.0159  -22.2232   15.6731 C.3       10 UNK        -0.1976 
     37 N         -51.1432  -23.8561   15.5235 N.am      10 UNK        -0.4242 
     38 C         -50.9013  -24.3484   16.7504 C.2       10 UNK         0.5072 
     39 O         -51.7365  -24.3934   17.6548 O.2       10 UNK        -0.5224 
     40 CA        -49.5049  -24.9380   17.0153 C.3       9 UNK         0.0343 
     41 CB        -49.5719  -26.4742   16.9843 C.3       9 UNK        -0.2003 
     42 N         -48.4905  -24.4869   16.0605 N.am      9 UNK        -0.4272 
     43 C         -47.8554  -23.3098   16.1387 C.2       9 UNK         0.4988 
     44 O         -48.0394  -22.4896   17.0391 O.2       9 UNK        -0.5108 
     45 CA        -46.8514  -22.9848   15.0192 C.3       8 UNK         0.0248 
     46 CB        -45.5160  -23.7048   15.2623 C.3       8 UNK        -0.2001 
     47 N         -47.3503  -23.2978   13.6761 N.am      8 UNK        -0.4140 
     48 C         -48.4185  -22.7138   13.1119 C.2       8 UNK         0.5028 
     49 O         -49.1201  -21.8709   13.6712 O.2       8 UNK        -0.5428 
     50 CA        -48.7713  -23.1429   11.6811 C.3       7 UNK         0.0264 
     51 CB        -47.8521  -22.4359   10.6749 C.3       7 UNK        -0.1988 
     52 N         -48.7105  -24.5942   11.4959 N.am      7 UNK        -0.4454 
     53 C         -49.5608  -25.4559   12.0742 C.2       7 UNK         0.5027 
     54 O         -50.5188  -25.1190   12.7733 O.2       7 UNK        -0.5083 
     55 CA        -49.2569  -26.9547   11.9063 C.3       6 UNK         0.0844 
     56 C56       -49.7565  -27.4874   10.5437 C.3       14 UNK        -0.0967 
     57 S57       -49.8459  -29.3079   10.5376 S.3       14 UNK        -0.2604 
     58 C58       -51.5537  -29.5827   11.1063 C.3       14 UNK         0.0134 
     59 N         -47.8430  -27.2513   12.1455 N.am      6 UNK        -0.4116 
     60 C         -47.2102  -27.0576   13.3116 C.2       5 UNK         0.5034 
     61 O         -47.7535  -26.6254   14.3268 O.2       5 UNK        -0.5045 
     62 CA        -45.7055  -27.3626   13.3505 C.3       5 UNK         0.0224 
     63 CB        -45.4665  -28.8281   13.7462 C.3       5 UNK        -0.1978 
     64 N         -45.0168  -27.0781   12.0905 N.am      5 UNK        -0.4737 
     65 C         -44.9325  -25.8771   11.5010 C.2       4 UNK         0.5027 
     66 O         -45.4320  -24.8509   11.9694 O.2       4 UNK        -0.5211 
     67 CA        -44.1533  -25.8154   10.1690 C.3       4 UNK         0.0297 
     68 CB        -43.8174  -27.2045    9.5769 C.3       4 UNK        -0.1993 
     69 N         -44.7957  -24.9981    9.1330 N.am      4 UNK        -0.4486 
     70 C         -46.0651  -25.0591    8.7078 C.2       3 UNK         0.4961 
     71 O         -46.9573  -25.7256    9.2395 O.2       3 UNK        -0.5105 
     72 CA        -46.3651  -24.2632    7.4328 C.3       3 UNK         0.0299 
     73 CB        -45.9891  -25.0789    6.1822 C.3       3 UNK        -0.1972 
     74 N         -47.7814  -23.9232    7.3890 N.am      3 UNK        -0.4305 
     75 C         -48.3114  -22.8753    6.7507 C.2       2 UNK         0.5006 
     76 O         -47.6540  -22.0985    6.0549 O.2       2 UNK        -0.5106 
     77 CA        -49.8292  -22.6613    6.9221 C.3       2 UNK         0.0296 
     78 CB        -50.3297  -21.3746    6.2383 C.3       2 UNK        -0.2002 
     79 N         -50.6110  -23.7951    6.4245 N.am      2 UNK        -0.4032 
     80 C         -50.7649  -24.9631    7.0615 C.2       1 UNK         0.5000 
     81 O         -50.2365  -25.2180    8.1486 O.2       1 UNK        -0.5238 
     82 H82       -50.0186  -30.1646    6.1430 H         1 UNK         0.0889 
     83 H83       -50.8911  -29.7379    7.6127 H         1 UNK         0.0889 
     84 H84       -49.1486  -29.4812    7.5203 H         1 UNK         0.0889 
     85 H85       -51.9864  -27.7562    7.5041 H         1 UNK         0.3028 
     86 H86       -51.4693  -25.9482    5.3058 H         1 UNK         0.0864 
     87 H87       -53.4306  -24.7725    5.9588 H         1 UNK         0.0720 
     88 H88       -53.7936  -26.4611    6.0886 H         1 UNK         0.0720 
     89 H89       -55.6053  -26.8205    7.7238 H         1 UNK         0.0814 
     90 H90       -55.4657  -26.5447    9.4415 H         1 UNK         0.0814 
     91 H91       -52.9525  -27.3483   10.3585 H         1 UNK         0.1469 
     92 H92       -52.4759  -31.5056    9.4275 H         1 UNK         0.1381 
     93 H93       -55.2580  -29.1131    7.2101 H         1 UNK         0.1206 
     94 H94       -54.3405  -31.4142    6.3728 H         1 UNK         0.0813 
     95 H95       -53.6230  -32.4771    7.5578 H         1 UNK         0.0813 
     96 H96       -55.7387  -33.9935    9.4762 H         1 UNK         0.0638 
     97 H97       -54.7227  -32.6616    9.9552 H         1 UNK         0.0638 
     98 H98       -57.7648  -32.5206   10.0910 H         1 UNK         0.0568 
     99 H99       -57.6779  -33.5114   13.7263 H         1 UNK         0.3450 
    100 H100      -57.8567  -31.9394   12.9886 H         1 UNK         0.3450 
    101 H101      -57.3766  -30.3975   10.4823 H         1 UNK         0.2987 
    102 H102      -55.6398  -28.4161   11.0570 H         1 UNK         0.0766 
    103 H103      -58.0688  -28.6965   11.4878 H         1 UNK         0.0798 
    104 H104      -57.4526  -27.4239   12.5171 H         1 UNK         0.0798 
    105 H105      -57.7656  -29.0195   13.1924 H         1 UNK         0.0798 
    106 H106      -54.8778  -29.2093   13.7578 H         1 UNK         0.3198 
    107 H107      -54.2858  -27.1465   15.2772 H         1 UNK         0.0843 
    108 H108      -52.9207  -29.1995   14.5389 H         1 UNK         0.0831 
    109 H109      -52.1169  -28.1345   15.6704 H         1 UNK         0.0831 
    110 H110      -51.6822  -28.0845   13.9746 H         1 UNK         0.0831 
    111 H111      -52.0196  -25.7431   13.9706 H         1 UNK         0.3133 
    112 H112      -52.2666  -23.2026   13.9213 H         1 UNK         0.0566 
    113 H113      -53.9265  -21.8794   15.1812 H         1 UNK         0.0814 
    114 H114      -52.3040  -21.3980   15.6523 H         1 UNK         0.0814 
    115 H115      -53.2672  -22.4241   16.7148 H         1 UNK         0.0814 
    116 H116      -50.3833  -23.8774   14.8560 H         1 UNK         0.3091 
    117 H117      -49.2033  -24.6334   18.0198 H         1 UNK         0.0702 
    118 H118      -48.6018  -26.9189   17.2070 H         1 UNK         0.0785 
    119 H119      -49.8924  -26.8426   16.0089 H         1 UNK         0.0785 
    120 H120      -50.2799  -26.8511   17.7236 H         1 UNK         0.0785 
    121 H121      -48.2459  -25.1384   15.3166 H         1 UNK         0.2998 
    122 H122      -46.6623  -21.9097   15.0489 H         1 UNK         0.0697 
    123 H123      -45.6426  -24.7862   15.2914 H         1 UNK         0.0825 
    124 H124      -45.0810  -23.4042   16.2163 H         1 UNK         0.0825 
    125 H125      -44.7880  -23.4711   14.4849 H         1 UNK         0.0825 
    126 H126      -46.8030  -23.9500   13.1205 H         1 UNK         0.3029 
    127 H127      -49.7972  -22.8224   11.4852 H         1 UNK         0.0897 
    128 H128      -46.8232  -22.7914   10.7404 H         1 UNK         0.0792 
    129 H129      -47.8376  -21.3585   10.8460 H         1 UNK         0.0792 
    130 H130      -48.2013  -22.5894    9.6586 H         1 UNK         0.0792 
    131 H131      -47.9532  -24.9626   10.9285 H         1 UNK         0.3086 
    132 H132      -49.8178  -27.4654   12.6907 H         1 UNK         0.0583 
    133 H133      -50.7321  -27.0743   10.2904 H         1 UNK         0.1020 
    134 H134      -49.0948  -27.1693    9.7366 H         1 UNK         0.1020 
    135 H135      -51.6248  -30.5818   11.5389 H         1 UNK         0.0694 
    136 H136      -51.7900  -28.8896   11.9105 H         1 UNK         0.0694 
    137 H137      -47.3101  -27.5768   11.3522 H         1 UNK         0.2989 
    138 H138      -45.2610  -26.7275   14.1180 H         1 UNK         0.1055 
    139 H139      -45.8636  -29.5195   13.0017 H         1 UNK         0.0806 
    140 H140      -44.4039  -29.0390   13.8692 H         1 UNK         0.0806 
    141 H141      -45.9516  -29.0590   14.6960 H         1 UNK         0.0806 
    142 H142      -44.5730  -27.8609   11.6320 H         1 UNK         0.3061 
    143 H143      -43.2101  -25.3201   10.4038 H         1 UNK         0.0734 
    144 H144      -44.7174  -27.7818    9.3592 H         1 UNK         0.0832 
    145 H145      -43.2605  -27.1071    8.6447 H         1 UNK         0.0832 
    146 H146      -43.1915  -27.7912   10.2504 H         1 UNK         0.0832 
    147 H147      -44.1730  -24.3695    8.6448 H         1 UNK         0.3156 
    148 H148      -45.7779  -23.3425    7.4585 H         1 UNK         0.0589 
    149 H149      -46.1536  -24.5063    5.2693 H         1 UNK         0.0808 
    150 H150      -44.9368  -25.3654    6.1982 H         1 UNK         0.0808 
    151 H151      -46.5774  -25.9952    6.1119 H         1 UNK         0.0808 
    152 H152      -48.3927  -24.5299    7.9341 H         1 UNK         0.3098 
    153 H153      -50.0194  -22.5557    7.9923 H         1 UNK         0.0720 
    154 H154      -49.7973  -20.4998    6.6144 H         1 UNK         0.0791 
    155 H155      -51.3905  -21.2107    6.4290 H         1 UNK         0.0791 
    156 H156      -50.1832  -21.4064    5.1578 H         1 UNK         0.0791 
    157 H157      -51.0560  -23.6683    5.5270 H         1 UNK         0.3028 
@<TRIPOS>BOND
     1    1    2 1    
     2    1   82 1    
     3    1   83 1    
     4    1   84 1    
     5    2    3 2    
     6    2    4 am   BACKBONE|DICT|INTERRES
     7    4    5 1    
     8    4   85 1    
     9    5    6 1    
    10    5   80 1    
    11    5   86 1    
    12    6    7 1    
    13    6   87 1    
    14    6   88 1    
    15    7    8 1    
    16    8    9 1    
    17    8   89 1    
    18    8   90 1    
    19    9   10 ar   
    20    9   14 ar   
    21   10   11 ar   
    22   10   91 1    
    23   11   12 ar   
    24   11   58 1    
    25   12   13 ar   
    26   12   92 1    
    27   13   14 ar   
    28   13   15 1    
    29   14   93 1    
    30   15   16 1    
    31   15   94 1    
    32   15   95 1    
    33   16   17 1    
    34   17   18 1    
    35   17   96 1    
    36   17   97 1    
    37   18   19 1    
    38   18   22 1    
    39   18   98 1    
    40   19   20 am   BACKBONE|DICT|INTERRES
    41   19   21 2    
    42   20   99 1    
    43   20  100 1    
    44   22   23 am   BACKBONE|DICT|INTERRES
    45   22  101 1    
    46   23   24 2    
    47   23   25 1    
    48   25   26 1    
    49   25   27 1    
    50   25  102 1    
    51   26  103 1    
    52   26  104 1    
    53   26  105 1    
    54   27   28 am   BACKBONE|DICT|INTERRES
    55   27  106 1    
    56   28   29 2    
    57   28   30 1    
    58   30   31 1    
    59   30   32 1    
    60   30  107 1    
    61   31  108 1    
    62   31  109 1    
    63   31  110 1    
    64   32   33 am   BACKBONE|DICT|INTERRES
    65   32  111 1    
    66   33   34 2    
    67   33   35 1    
    68   35   36 1    
    69   35   37 1    
    70   35  112 1    
    71   36  113 1    
    72   36  114 1    
    73   36  115 1    
    74   37   38 am   BACKBONE|DICT|INTERRES
    75   37  116 1    
    76   38   39 2    
    77   38   40 1    
    78   40   41 1    
    79   40   42 1    
    80   40  117 1    
    81   41  118 1    
    82   41  119 1    
    83   41  120 1    
    84   42   43 am   BACKBONE|DICT|INTERRES
    85   42  121 1    
    86   43   44 2    
    87   43   45 1    
    88   45   46 1    
    89   45   47 1    
    90   45  122 1    
    91   46  123 1    
    92   46  124 1    
    93   46  125 1    
    94   47   48 am   BACKBONE|DICT|INTERRES
    95   47  126 1    
    96   48   49 2    
    97   48   50 1    
    98   50   51 1    
    99   50   52 1    
   100   50  127 1    
   101   51  128 1    
   102   51  129 1    
   103   51  130 1    
   104   52   53 am   BACKBONE|DICT|INTERRES
   105   52  131 1    
   106   53   54 2    
   107   53   55 1    
   108   55   56 1    
   109   55   59 1    
   110   55  132 1    
   111   56   57 1    
   112   56  133 1    
   113   56  134 1    
   114   57   58 1    
   115   58  135 1    
   116   58  136 1    
   117   59   60 am   BACKBONE|DICT|INTERRES
   118   59  137 1    
   119   60   61 2    
   120   60   62 1    
   121   62   63 1    
   122   62   64 1    
   123   62  138 1    
   124   63  139 1    
   125   63  140 1    
   126   63  141 1    
   127   64   65 am   BACKBONE|DICT|INTERRES
   128   64  142 1    
   129   65   66 2    
   130   65   67 1    
   131   67   68 1    
   132   67   69 1    
   133   67  143 1    
   134   68  144 1    
   135   68  145 1    
   136   68  146 1    
   137   69   70 am   BACKBONE|DICT|INTERRES
   138   69  147 1    
   139   70   71 2    
   140   70   72 1    
   141   72   73 1    
   142   72   74 1    
   143   72  148 1    
   144   73  149 1    
   145   73  150 1    
   146   73  151 1    
   147   74   75 am   BACKBONE|DICT|INTERRES
   148   74  152 1    
   149   75   76 2    
   150   75   77 1    
   151   77   78 1    
   152   77   79 1    
   153   77  153 1    
   154   78  154 1    
   155   78  155 1    
   156   78  156 1    
   157   79   80 am   BACKBONE|DICT|INTERRES
   158   79  157 1    
   159   80   81 2    
@<TRIPOS>SUBSTRUCTURE
     1 UNK         1 GROUP             0       ****    0 ROOT    
