@<TRIPOS>MOLECULE
3R207
157   159    1
SMALL
USER_CHARGES


@<TRIPOS>ATOM
      1 CA        -46.7722  -27.3894    4.6022 C.3       0 UNK        -0.1975 
      2 C         -47.7583  -26.8683    3.5573 C.2       0 UNK         0.4852 
      3 O         -47.4245  -26.8870    2.3740 O.2       0 UNK        -0.5216 
      4 N         -48.9694  -26.4016    3.9034 N.am      1 UNK        -0.4461 
      5 CA        -49.5788  -26.2403    5.2323 C.3       1 UNK         0.0864 
      6 C6        -49.7649  -27.5591    6.0334 C.3       14 UNK        -0.0898 
      7 S7        -50.7930  -28.7995    5.1824 S.3       14 UNK        -0.2598 
      8 C8        -52.4358  -28.5122    5.9339 C.3       14 UNK         0.0286 
      9 C9        -52.4860  -28.6327    7.4587 C.ar      14 UNK        -0.0844 
     10 C10       -51.7234  -29.5805    8.1515 C.ar      14 UNK        -0.0881 
     11 C11       -51.7887  -29.6689    9.5454 C.ar      14 UNK        -0.0643 
     12 C12       -52.6329  -28.8066   10.2495 C.ar      14 UNK        -0.0930 
     13 C13       -53.4270  -27.8699    9.5726 C.ar      14 UNK        -0.0827 
     14 C14       -53.3359  -27.7883    8.1798 C.ar      14 UNK        -0.1249 
     15 C15       -54.3880  -26.9225   10.2966 C.3       14 UNK         0.0141 
     16 S16       -54.9155  -27.4708   11.9560 S.3       14 UNK        -0.2313 
     17 C17       -55.8866  -28.9601   11.5329 C.3       14 UNK        -0.0915 
     18 CA        -57.2335  -29.0244   12.2966 C.3       13 UNK         0.0968 
     19 C         -58.1211  -30.1926   11.7781 C.2       13 UNK         0.5732 
     20 N         -58.4417  -31.1982   12.5842 N.am      13 UNK        -0.7310 
     21 O         -58.5371  -30.1798   10.6219 O.2       13 UNK        -0.5035 
     22 N         -57.0055  -29.0315   13.7469 N.am      13 UNK        -0.4233 
     23 C         -57.8746  -28.6503   14.6849 C.2       13 UNK         0.4989 
     24 O         -59.0164  -28.2583   14.4414 O.2       13 UNK        -0.4996 
     25 CA        -57.3896  -28.6883   16.1467 C.3       12 UNK         0.0216 
     26 CB        -57.6990  -30.0515   16.7960 C.3       12 UNK        -0.1964 
     27 N         -55.9808  -28.3047   16.3431 N.am      12 UNK        -0.4276 
     28 C         -54.8593  -28.9262   15.9524 C.2       12 UNK         0.5020 
     29 O         -54.8482  -29.9705   15.2972 O.2       12 UNK        -0.5489 
     30 CA        -53.5335  -28.2362   16.3273 C.3       11 UNK         0.0294 
     31 CB        -52.3120  -29.1442   16.0918 C.3       11 UNK        -0.2019 
     32 N         -53.3266  -26.9832   15.5985 N.am      11 UNK        -0.4493 
     33 C         -53.9875  -25.8345   15.7910 C.2       11 UNK         0.4932 
     34 O         -54.9124  -25.7011   16.5963 O.2       11 UNK        -0.5029 
     35 CA        -53.4792  -24.6328   14.9736 C.3       10 UNK         0.0280 
     36 CB        -54.3021  -23.3474   15.1982 C.3       10 UNK        -0.1976 
     37 N         -52.0506  -24.3971   15.2146 N.am      10 UNK        -0.4242 
     38 C         -51.4484  -24.1327   16.3859 C.2       10 UNK         0.5072 
     39 O         -52.0477  -23.9289   17.4427 O.2       10 UNK        -0.5224 
     40 CA        -49.9086  -24.1240   16.4030 C.3       9 UNK         0.0343 
     41 CB        -49.3869  -25.4258   17.0340 C.3       9 UNK        -0.2003 
     42 N         -49.3093  -23.9654   15.0759 N.am      9 UNK        -0.4272 
     43 C         -49.2438  -22.8076   14.4036 C.2       9 UNK         0.4988 
     44 O         -49.6234  -21.7280   14.8585 O.2       9 UNK        -0.5108 
     45 CA        -48.6882  -22.8694   12.9694 C.3       8 UNK         0.0248 
     46 CB        -47.1516  -22.8886   12.9788 C.3       8 UNK        -0.2001 
     47 N         -49.1932  -24.0158   12.2074 N.am      8 UNK        -0.4140 
     48 C         -50.4850  -24.2196   11.9059 C.2       8 UNK         0.5028 
     49 O         -51.3935  -23.4487   12.2132 O.2       8 UNK        -0.5428 
     50 CA        -50.8330  -25.5202   11.1730 C.3       7 UNK         0.0264 
     51 CB        -50.5705  -25.3884    9.6689 C.3       7 UNK        -0.1988 
     52 N         -50.0898  -26.6583   11.7045 N.am      7 UNK        -0.4454 
     53 C         -50.3842  -27.2691   12.8595 C.2       7 UNK         0.5027 
     54 O         -51.3317  -26.9536   13.5805 O.2       7 UNK        -0.5083 
     55 CA        -49.4414  -28.4023   13.3080 C.3       6 UNK         0.0844 
     56 C56       -49.8789  -29.7761   12.7389 C.3       14 UNK        -0.0967 
     57 S57       -49.4368  -30.0416   10.9814 S.3       14 UNK        -0.2604 
     58 C58       -50.9740  -30.7229   10.2819 C.3       14 UNK         0.0134 
     59 N         -48.0313  -28.1063   13.0362 N.am      6 UNK        -0.4116 
     60 C         -47.3419  -27.0821   13.5575 C.2       5 UNK         0.5034 
     61 O         -47.8069  -26.2806   14.3655 O.2       5 UNK        -0.5045 
     62 CA        -45.9015  -26.8907   13.0577 C.3       5 UNK         0.0224 
     63 CB        -44.9259  -27.7423   13.8851 C.3       5 UNK        -0.1978 
     64 N         -45.7331  -27.1923   11.6325 N.am      5 UNK        -0.4737 
     65 C         -46.3395  -26.5344   10.6356 C.2       4 UNK         0.5027 
     66 O         -47.1483  -25.6192   10.8079 O.2       4 UNK        -0.5211 
     67 CA        -46.0338  -27.0362    9.2190 C.3       4 UNK         0.0297 
     68 CB        -47.1446  -27.9814    8.7371 C.3       4 UNK        -0.1993 
     69 N         -45.8851  -25.9261    8.2760 N.am      4 UNK        -0.4486 
     70 C         -44.7396  -25.2495    8.1008 C.2       3 UNK         0.4961 
     71 O         -43.7225  -25.4704    8.7606 O.2       3 UNK        -0.5105 
     72 CA        -44.6651  -24.1857    6.9858 C.3       3 UNK         0.0299 
     73 CB        -43.7292  -24.6614    5.8606 C.3       3 UNK        -0.1972 
     74 N         -45.9605  -23.8480    6.3955 N.am      3 UNK        -0.4305 
     75 C         -46.8006  -22.9204    6.8713 C.2       2 UNK         0.5006 
     76 O         -46.5551  -22.2081    7.8455 O.2       2 UNK        -0.5106 
     77 CA        -48.1503  -22.7558    6.1410 C.3       2 UNK         0.0296 
     78 CB        -48.0668  -21.6073    5.1219 C.3       2 UNK        -0.2002 
     79 N         -48.6727  -23.9583    5.4701 N.am      2 UNK        -0.4032 
     80 C         -48.8761  -25.1456    6.0604 C.2       1 UNK         0.5000 
     81 O         -48.4900  -25.4015    7.1987 O.2       1 UNK        -0.5238 
     82 H82       -45.7533  -27.3170    4.2225 H         1 UNK         0.0889 
     83 H83       -46.9708  -28.4404    4.8090 H         1 UNK         0.0889 
     84 H84       -46.8029  -26.8403    5.5389 H         1 UNK         0.0889 
     85 H85       -49.5679  -26.1018    3.1462 H         1 UNK         0.3028 
     86 H86       -50.5800  -25.8475    5.0476 H         1 UNK         0.0864 
     87 H87       -50.2095  -27.3458    7.0057 H         1 UNK         0.0720 
     88 H88       -48.8081  -28.0253    6.2583 H         1 UNK         0.0720 
     89 H89       -53.1412  -29.2268    5.5085 H         1 UNK         0.0814 
     90 H90       -52.7776  -27.5233    5.6241 H         1 UNK         0.0814 
     91 H91       -51.0747  -30.2516    7.6058 H         1 UNK         0.1469 
     92 H92       -52.6721  -28.8796   11.3264 H         1 UNK         0.1381 
     93 H93       -53.9384  -27.0619    7.6512 H         1 UNK         0.1206 
     94 H94       -55.2830  -26.7750    9.6901 H         1 UNK         0.0813 
     95 H95       -53.9224  -25.9414   10.3818 H         1 UNK         0.0813 
     96 H96       -55.2782  -29.8391   11.7532 H         1 UNK         0.0638 
     97 H97       -56.0608  -28.9739   10.4554 H         1 UNK         0.0638 
     98 H98       -57.7858  -28.1130   12.0599 H         1 UNK         0.0568 
     99 H99       -58.1050  -31.2178   13.5329 H         1 UNK         0.3450 
    100 H100      -59.0221  -31.9448   12.2361 H         1 UNK         0.3450 
    101 H101      -56.1036  -29.3797   14.0624 H         1 UNK         0.2987 
    102 H102      -57.9704  -27.9342   16.6802 H         1 UNK         0.0766 
    103 H103      -57.1607  -30.8674   16.3130 H         1 UNK         0.0798 
    104 H104      -58.7632  -30.2817   16.7285 H         1 UNK         0.0798 
    105 H105      -57.4340  -30.0554   17.8533 H         1 UNK         0.0798 
    106 H106      -55.8415  -27.3835   16.7537 H         1 UNK         0.3198 
    107 H107      -53.5761  -28.0075   17.3944 H         1 UNK         0.0843 
    108 H108      -52.1958  -29.3939   15.0367 H         1 UNK         0.0831 
    109 H109      -52.4102  -30.0818   16.6405 H         1 UNK         0.0831 
    110 H110      -51.3911  -28.6667   16.4270 H         1 UNK         0.0831 
    111 H111      -52.6017  -26.9944   14.8810 H         1 UNK         0.3133 
    112 H112      -53.5732  -24.9072   13.9214 H         1 UNK         0.0566 
    113 H113      -55.3479  -23.5054   14.9321 H         1 UNK         0.0814 
    114 H114      -54.2779  -23.0228   16.2388 H         1 UNK         0.0814 
    115 H115      -53.9298  -22.5288   14.5822 H         1 UNK         0.0814 
    116 H116      -51.4541  -24.5495   14.4125 H         1 UNK         0.3091 
    117 H117      -49.5895  -23.2885   17.0296 H         1 UNK         0.0702 
    118 H118      -48.2988  -25.4262   17.1015 H         1 UNK         0.0785 
    119 H119      -49.6868  -26.3007   16.4552 H         1 UNK         0.0785 
    120 H120      -49.7749  -25.5547   18.0454 H         1 UNK         0.0785 
    121 H121      -48.9000  -24.8007   14.6619 H         1 UNK         0.2998 
    122 H122      -49.0123  -21.9656   12.4493 H         1 UNK         0.0697 
    123 H123      -46.7632  -23.7597   13.5058 H         1 UNK         0.0825 
    124 H124      -46.7544  -22.0031   13.4767 H         1 UNK         0.0825 
    125 H125      -46.7475  -22.9016   11.9661 H         1 UNK         0.0825 
    126 H126      -48.5026  -24.6759   11.8577 H         1 UNK         0.3029 
    127 H127      -51.8959  -25.7107   11.3227 H         1 UNK         0.0897 
    128 H128      -49.5260  -25.1469    9.4748 H         1 UNK         0.0792 
    129 H129      -51.1772  -24.5946    9.2319 H         1 UNK         0.0792 
    130 H130      -50.8084  -26.3111    9.1398 H         1 UNK         0.0792 
    131 H131      -49.2794  -26.9613   11.1834 H         1 UNK         0.3086 
    132 H132      -49.5392  -28.4610   14.3944 H         1 UNK         0.0583 
    133 H133      -49.3984  -30.5683   13.3151 H         1 UNK         0.1020 
    134 H134      -50.9496  -29.9258   12.8892 H         1 UNK         0.1020 
    135 H135      -50.7060  -31.5279    9.5959 H         1 UNK         0.0694 
    136 H136      -51.5785  -31.1904   11.0602 H         1 UNK         0.0694 
    137 H137      -47.5747  -28.7049   12.3638 H         1 UNK         0.2989 
    138 H138      -45.6429  -25.8402   13.2039 H         1 UNK         0.1055 
    139 H139      -45.0210  -27.5202   14.9492 H         1 UNK         0.0806 
    140 H140      -43.8907  -27.5430   13.6073 H         1 UNK         0.0806 
    141 H141      -45.1090  -28.8101   13.7578 H         1 UNK         0.0806 
    142 H142      -45.0905  -27.9370   11.4010 H         1 UNK         0.3061 
    143 H143      -45.1015  -27.6053    9.2370 H         1 UNK         0.0734 
    144 H144      -46.9540  -28.3306    7.7231 H         1 UNK         0.0832 
    145 H145      -47.2031  -28.8652    9.3722 H         1 UNK         0.0832 
    146 H146      -48.1249  -27.5034    8.7553 H         1 UNK         0.0832 
    147 H147      -46.7335  -25.6271    7.7999 H         1 UNK         0.3156 
    148 H148      -44.2283  -23.2868    7.4261 H         1 UNK         0.0589 
    149 H149      -44.0969  -25.5716    5.3854 H         1 UNK         0.0808 
    150 H150      -43.6167  -23.9000    5.0885 H         1 UNK         0.0808 
    151 H151      -42.7313  -24.8767    6.2456 H         1 UNK         0.0808 
    152 H152      -46.2440  -24.3749    5.5836 H         1 UNK         0.3098 
    153 H153      -48.8828  -22.4788    6.9020 H         1 UNK         0.0720 
    154 H154      -49.0435  -21.3840    4.6921 H         1 UNK         0.0791 
    155 H155      -47.3841  -21.8426    4.3044 H         1 UNK         0.0791 
    156 H156      -47.7072  -20.6910    5.5929 H         1 UNK         0.0791 
    157 H157      -48.9810  -23.8406    4.5155 H         1 UNK         0.3028 
@<TRIPOS>BOND
     1    1    2 1    
     2    1   82 1    
     3    1   83 1    
     4    1   84 1    
     5    2    3 2    
     6    2    4 am   BACKBONE|DICT|INTERRES
     7    4    5 1    
     8    4   85 1    
     9    5    6 1    
    10    5   80 1    
    11    5   86 1    
    12    6    7 1    
    13    6   87 1    
    14    6   88 1    
    15    7    8 1    
    16    8    9 1    
    17    8   89 1    
    18    8   90 1    
    19    9   10 ar   
    20    9   14 ar   
    21   10   11 ar   
    22   10   91 1    
    23   11   12 ar   
    24   11   58 1    
    25   12   13 ar   
    26   12   92 1    
    27   13   14 ar   
    28   13   15 1    
    29   14   93 1    
    30   15   16 1    
    31   15   94 1    
    32   15   95 1    
    33   16   17 1    
    34   17   18 1    
    35   17   96 1    
    36   17   97 1    
    37   18   19 1    
    38   18   22 1    
    39   18   98 1    
    40   19   20 am   BACKBONE|DICT|INTERRES
    41   19   21 2    
    42   20   99 1    
    43   20  100 1    
    44   22   23 am   BACKBONE|DICT|INTERRES
    45   22  101 1    
    46   23   24 2    
    47   23   25 1    
    48   25   26 1    
    49   25   27 1    
    50   25  102 1    
    51   26  103 1    
    52   26  104 1    
    53   26  105 1    
    54   27   28 am   BACKBONE|DICT|INTERRES
    55   27  106 1    
    56   28   29 2    
    57   28   30 1    
    58   30   31 1    
    59   30   32 1    
    60   30  107 1    
    61   31  108 1    
    62   31  109 1    
    63   31  110 1    
    64   32   33 am   BACKBONE|DICT|INTERRES
    65   32  111 1    
    66   33   34 2    
    67   33   35 1    
    68   35   36 1    
    69   35   37 1    
    70   35  112 1    
    71   36  113 1    
    72   36  114 1    
    73   36  115 1    
    74   37   38 am   BACKBONE|DICT|INTERRES
    75   37  116 1    
    76   38   39 2    
    77   38   40 1    
    78   40   41 1    
    79   40   42 1    
    80   40  117 1    
    81   41  118 1    
    82   41  119 1    
    83   41  120 1    
    84   42   43 am   BACKBONE|DICT|INTERRES
    85   42  121 1    
    86   43   44 2    
    87   43   45 1    
    88   45   46 1    
    89   45   47 1    
    90   45  122 1    
    91   46  123 1    
    92   46  124 1    
    93   46  125 1    
    94   47   48 am   BACKBONE|DICT|INTERRES
    95   47  126 1    
    96   48   49 2    
    97   48   50 1    
    98   50   51 1    
    99   50   52 1    
   100   50  127 1    
   101   51  128 1    
   102   51  129 1    
   103   51  130 1    
   104   52   53 am   BACKBONE|DICT|INTERRES
   105   52  131 1    
   106   53   54 2    
   107   53   55 1    
   108   55   56 1    
   109   55   59 1    
   110   55  132 1    
   111   56   57 1    
   112   56  133 1    
   113   56  134 1    
   114   57   58 1    
   115   58  135 1    
   116   58  136 1    
   117   59   60 am   BACKBONE|DICT|INTERRES
   118   59  137 1    
   119   60   61 2    
   120   60   62 1    
   121   62   63 1    
   122   62   64 1    
   123   62  138 1    
   124   63  139 1    
   125   63  140 1    
   126   63  141 1    
   127   64   65 am   BACKBONE|DICT|INTERRES
   128   64  142 1    
   129   65   66 2    
   130   65   67 1    
   131   67   68 1    
   132   67   69 1    
   133   67  143 1    
   134   68  144 1    
   135   68  145 1    
   136   68  146 1    
   137   69   70 am   BACKBONE|DICT|INTERRES
   138   69  147 1    
   139   70   71 2    
   140   70   72 1    
   141   72   73 1    
   142   72   74 1    
   143   72  148 1    
   144   73  149 1    
   145   73  150 1    
   146   73  151 1    
   147   74   75 am   BACKBONE|DICT|INTERRES
   148   74  152 1    
   149   75   76 2    
   150   75   77 1    
   151   77   78 1    
   152   77   79 1    
   153   77  153 1    
   154   78  154 1    
   155   78  155 1    
   156   78  156 1    
   157   79   80 am   BACKBONE|DICT|INTERRES
   158   79  157 1    
   159   80   81 2    
@<TRIPOS>SUBSTRUCTURE
     1 UNK         1 GROUP             0       ****    0 ROOT    
