@<TRIPOS>MOLECULE
3R207
157   159    1
SMALL
USER_CHARGES


@<TRIPOS>ATOM
      1 CA        -46.1143  -31.1646    7.0165 C.3       0 UNK        -0.1975 
      2 C         -47.1042  -30.4420    6.1154 C.2       0 UNK         0.4852 
      3 O         -46.7484  -30.0494    5.0026 O.2       0 UNK        -0.5216 
      4 N         -48.3458  -30.2613    6.5854 N.am      1 UNK        -0.4461 
      5 CA        -49.4157  -29.5345    5.8963 C.3       1 UNK         0.0864 
      6 C6        -50.8127  -29.9513    6.4332 C.3       14 UNK        -0.0898 
      7 S7        -52.1320  -29.6325    5.2144 S.3       14 UNK        -0.2598 
      8 C8        -53.5753  -29.3219    6.2912 C.3       14 UNK         0.0286 
      9 C9        -53.5809  -27.9668    7.0008 C.ar      14 UNK        -0.0844 
     10 C10       -53.0581  -26.8150    6.3999 C.ar      14 UNK        -0.0881 
     11 C11       -53.1189  -25.5790    7.0498 C.ar      14 UNK        -0.0643 
     12 C12       -53.7300  -25.4942    8.3028 C.ar      14 UNK        -0.0930 
     13 C13       -54.2355  -26.6337    8.9349 C.ar      14 UNK        -0.0827 
     14 C14       -54.1696  -27.8640    8.2662 C.ar      14 UNK        -0.1249 
     15 C15       -54.8628  -26.4728   10.3218 C.3       14 UNK         0.0141 
     16 S16       -54.9792  -27.9909   11.3288 S.3       14 UNK        -0.2313 
     17 C17       -53.2276  -28.2943   11.7389 C.3       14 UNK        -0.0915 
     18 CA        -53.0528  -29.4572   12.7584 C.3       13 UNK         0.0968 
     19 C         -51.5864  -29.8984   13.0179 C.2       13 UNK         0.5732 
     20 N         -50.6093  -29.4234   12.2578 N.am      13 UNK        -0.7310 
     21 O         -51.3280  -30.7378   13.8781 O.2       13 UNK        -0.5035 
     22 N         -53.7283  -29.1725   14.0321 N.am      13 UNK        -0.4233 
     23 C         -54.7738  -29.8535   14.5185 C.2       13 UNK         0.4989 
     24 O         -55.2604  -30.8456   13.9714 O.2       13 UNK        -0.4996 
     25 CA        -55.4223  -29.3119   15.8079 C.3       12 UNK         0.0216 
     26 CB        -56.2867  -30.3585   16.5457 C.3       12 UNK        -0.1964 
     27 N         -54.4753  -28.6581   16.7170 N.am      12 UNK        -0.4276 
     28 C         -53.4802  -29.2256   17.4179 C.2       12 UNK         0.5020 
     29 O         -53.2406  -30.4338   17.4091 O.2       12 UNK        -0.5489 
     30 CA        -52.5990  -28.2952   18.2772 C.3       11 UNK         0.0294 
     31 CB        -51.1049  -28.6320   18.1167 C.3       11 UNK        -0.2019 
     32 N         -52.8025  -26.8860   17.9334 N.am      11 UNK        -0.4493 
     33 C         -53.5597  -26.0165   18.6177 C.2       11 UNK         0.4932 
     34 O         -54.1151  -26.2859   19.6825 O.2       11 UNK        -0.5029 
     35 CA        -53.7569  -24.6134   18.0066 C.3       10 UNK         0.0280 
     36 CB        -52.8195  -23.6002   18.6827 C.3       10 UNK        -0.1976 
     37 N         -53.5525  -24.5585   16.5551 N.am      10 UNK        -0.4242 
     38 C         -54.2928  -25.2051   15.6415 C.2       10 UNK         0.5072 
     39 O         -55.2836  -25.8802   15.9194 O.2       10 UNK        -0.5224 
     40 CA        -53.7916  -25.1612   14.1851 C.3       9 UNK         0.0343 
     41 CB        -54.3965  -23.9509   13.4575 C.3       9 UNK        -0.2003 
     42 N         -52.3256  -25.1251   14.0767 N.am      9 UNK        -0.4272 
     43 C         -51.4921  -26.0313   14.6130 C.2       9 UNK         0.4988 
     44 O         -51.9045  -27.0636   15.1442 O.2       9 UNK        -0.5108 
     45 CA        -49.9742  -25.7366   14.6344 C.3       8 UNK         0.0248 
     46 CB        -49.1418  -27.0030   14.3785 C.3       8 UNK        -0.2001 
     47 N         -49.5309  -24.6878   13.7139 N.am      8 UNK        -0.4140 
     48 C         -49.7477  -23.3723   13.8427 C.2       8 UNK         0.5028 
     49 O         -50.3131  -22.8643   14.8113 O.2       8 UNK        -0.5428 
     50 CA        -49.3367  -22.4879   12.6502 C.3       7 UNK         0.0264 
     51 CB        -47.8945  -21.9825   12.8097 C.3       7 UNK        -0.1988 
     52 N         -49.4881  -23.1685   11.3570 N.am      7 UNK        -0.4454 
     53 C         -50.6598  -23.6064   10.8661 C.2       7 UNK         0.5027 
     54 O         -51.7404  -23.4277   11.4273 O.2       7 UNK        -0.5083 
     55 CA        -50.6204  -24.3874    9.5420 C.3       6 UNK         0.0844 
     56 C56       -50.6863  -23.3961    8.3509 C.3       14 UNK        -0.0967 
     57 S57       -50.7414  -24.1805    6.7080 S.3       14 UNK        -0.2604 
     58 C58       -52.5306  -24.3379    6.3918 C.3       14 UNK         0.0134 
     59 N         -49.4778  -25.3076    9.5241 N.am      6 UNK        -0.4116 
     60 C         -49.4601  -26.4757   10.1894 C.2       5 UNK         0.5034 
     61 O         -50.4423  -26.9524   10.7575 O.2       5 UNK        -0.5045 
     62 CA        -48.1201  -27.2243   10.3270 C.3       5 UNK         0.0224 
     63 CB        -48.0218  -28.4284    9.3840 C.3       5 UNK        -0.1978 
     64 N         -46.9520  -26.3637   10.1524 N.am      5 UNK        -0.4737 
     65 C         -46.5433  -25.4844   11.0759 C.2       4 UNK         0.5027 
     66 O         -47.0777  -25.3610   12.1769 O.2       4 UNK        -0.5211 
     67 CA        -45.3852  -24.5490   10.6901 C.3       4 UNK         0.0297 
     68 CB        -44.0410  -25.1523   11.1253 C.3       4 UNK        -0.1993 
     69 N         -45.3382  -24.2292    9.2597 N.am      4 UNK        -0.4486 
     70 C         -46.3229  -23.6400    8.5671 C.2       3 UNK         0.4961 
     71 O         -47.3944  -23.2974    9.0695 O.2       3 UNK        -0.5105 
     72 CA        -46.0880  -23.3955    7.0662 C.3       3 UNK         0.0299 
     73 CB        -44.6137  -23.5484    6.6253 C.3       3 UNK        -0.1972 
     74 N         -46.9593  -24.2161    6.2169 N.am      3 UNK        -0.4305 
     75 C         -47.0382  -25.5552    6.1694 C.2       2 UNK         0.5006 
     76 O         -46.4398  -26.3149    6.9364 O.2       2 UNK        -0.5106 
     77 CA        -47.8659  -26.1156    4.9963 C.3       2 UNK         0.0296 
     78 CB        -47.0950  -25.9509    3.6743 C.3       2 UNK        -0.2002 
     79 N         -48.2172  -27.5285    5.1446 N.am      2 UNK        -0.4032 
     80 C         -49.1679  -28.0095    5.9535 C.2       1 UNK         0.5000 
     81 O         -49.8117  -27.3123    6.7334 O.2       1 UNK        -0.5238 
     82 H82       -45.7326  -32.0547    6.5172 H         1 UNK         0.0889 
     83 H83       -46.5682  -31.4719    7.9585 H         1 UNK         0.0889 
     84 H84       -45.2715  -30.5122    7.2436 H         1 UNK         0.0889 
     85 H85       -48.5763  -30.6001    7.5081 H         1 UNK         0.3028 
     86 H86       -49.3724  -29.8265    4.8441 H         1 UNK         0.0864 
     87 H87       -51.0440  -29.4656    7.3836 H         1 UNK         0.0720 
     88 H88       -50.8312  -31.0233    6.6358 H         1 UNK         0.0720 
     89 H89       -53.6420  -30.1324    7.0189 H         1 UNK         0.0814 
     90 H90       -54.4767  -29.3854    5.6806 H         1 UNK         0.0814 
     91 H91       -52.5934  -26.8749    5.4260 H         1 UNK         0.1469 
     92 H92       -53.7873  -24.5362    8.8017 H         1 UNK         0.1381 
     93 H93       -54.5832  -28.7509    8.7246 H         1 UNK         0.1206 
     94 H94       -55.8674  -26.0667   10.1983 H         1 UNK         0.0813 
     95 H95       -54.2977  -25.7343   10.8910 H         1 UNK         0.0813 
     96 H96       -52.7134  -28.5226   10.8040 H         1 UNK         0.0638 
     97 H97       -52.7845  -27.3747   12.1229 H         1 UNK         0.0638 
     98 H98       -53.5040  -30.3364   12.2962 H         1 UNK         0.0568 
     99 H99       -50.7730  -28.6742   11.5927 H         1 UNK         0.3450 
    100 H100      -49.6742  -29.7577   12.4192 H         1 UNK         0.3450 
    101 H101      -53.3153  -28.4252   14.5792 H         1 UNK         0.2987 
    102 H102      -56.0971  -28.5211   15.4767 H         1 UNK         0.0766 
    103 H103      -55.7050  -31.2330   16.8384 H         1 UNK         0.0798 
    104 H104      -56.7386  -29.9385   17.4442 H         1 UNK         0.0798 
    105 H105      -57.1005  -30.7106   15.9107 H         1 UNK         0.0798 
    106 H106      -54.5848  -27.6514   16.7789 H         1 UNK         0.3198 
    107 H107      -52.8736  -28.4696   19.3196 H         1 UNK         0.0843 
    108 H108      -50.8940  -29.6474   18.4544 H         1 UNK         0.0831 
    109 H109      -50.4799  -27.9607   18.7057 H         1 UNK         0.0831 
    110 H110      -50.7852  -28.5643   17.0765 H         1 UNK         0.0831 
    111 H111      -52.4171  -26.6070   17.0373 H         1 UNK         0.3133 
    112 H112      -54.7876  -24.3132   18.2066 H         1 UNK         0.0566 
    113 H113      -53.0063  -22.5865   18.3274 H         1 UNK         0.0814 
    114 H114      -52.9656  -23.5937   19.7639 H         1 UNK         0.0814 
    115 H115      -51.7702  -23.8339   18.4973 H         1 UNK         0.0814 
    116 H116      -52.7571  -24.0268   16.2289 H         1 UNK         0.3091 
    117 H117      -54.1399  -26.0698   13.6916 H         1 UNK         0.0702 
    118 H118      -54.1388  -23.9497   12.3996 H         1 UNK         0.0785 
    119 H119      -54.0506  -23.0085   13.8842 H         1 UNK         0.0785 
    120 H120      -55.4855  -23.9603   13.5218 H         1 UNK         0.0785 
    121 H121      -51.9280  -24.3140   13.6204 H         1 UNK         0.2998 
    122 H122      -49.7502  -25.3994   15.6482 H         1 UNK         0.0697 
    123 H123      -49.2918  -27.3711   13.3661 H         1 UNK         0.0825 
    124 H124      -49.4087  -27.8082   15.0640 H         1 UNK         0.0825 
    125 H125      -48.0766  -26.8099   14.5077 H         1 UNK         0.0825 
    126 H126      -48.9827  -24.9943   12.9172 H         1 UNK         0.3029 
    127 H127      -50.0013  -21.6212   12.6427 H         1 UNK         0.0897 
    128 H128      -47.5995  -21.3463   11.9750 H         1 UNK         0.0792 
    129 H129      -47.7910  -21.3913   13.7206 H         1 UNK         0.0792 
    130 H130      -47.1810  -22.8033   12.8762 H         1 UNK         0.0792 
    131 H131      -48.6488  -23.3142   10.8064 H         1 UNK         0.3086 
    132 H132      -51.5203  -24.9972    9.5182 H         1 UNK         0.0583 
    133 H133      -51.5580  -22.7459    8.4486 H         1 UNK         0.1020 
    134 H134      -49.8244  -22.7274    8.3623 H         1 UNK         0.1020 
    135 H135      -53.0521  -23.4387    6.7225 H         1 UNK         0.0694 
    136 H136      -52.6859  -24.3948    5.3135 H         1 UNK         0.0694 
    137 H137      -48.6268  -24.9570    9.1033 H         1 UNK         0.2989 
    138 H138      -48.0972  -27.6191   11.3446 H         1 UNK         0.1055 
    139 H139      -47.2373  -29.1142    9.7038 H         1 UNK         0.0806 
    140 H140      -47.7885  -28.1136    8.3701 H         1 UNK         0.0806 
    141 H141      -48.9571  -28.9894    9.3557 H         1 UNK         0.0806 
    142 H142      -46.4951  -26.3800    9.2476 H         1 UNK         0.3061 
    143 H143      -45.5296  -23.6109   11.2293 H         1 UNK         0.0734 
    144 H144      -44.0438  -25.3785   12.1927 H         1 UNK         0.0832 
    145 H145      -43.8245  -26.0815   10.5966 H         1 UNK         0.0832 
    146 H146      -43.2171  -24.4615   10.9454 H         1 UNK         0.0832 
    147 H147      -44.5021  -24.4958    8.7602 H         1 UNK         0.3156 
    148 H148      -46.3749  -22.3585    6.8861 H         1 UNK         0.0589 
    149 H149      -44.2552  -24.5743    6.7176 H         1 UNK         0.0808 
    150 H150      -44.4888  -23.2544    5.5830 H         1 UNK         0.0808 
    151 H151      -43.9551  -22.9081    7.2141 H         1 UNK         0.0808 
    152 H152      -47.5320  -23.6937    5.5685 H         1 UNK         0.3098 
    153 H153      -48.7932  -25.5439    4.9291 H         1 UNK         0.0720 
    154 H154      -47.6817  -26.3051    2.8264 H         1 UNK         0.0791 
    155 H155      -46.1553  -26.5050    3.6863 H         1 UNK         0.0791 
    156 H156      -46.8533  -24.9051    3.4805 H         1 UNK         0.0791 
    157 H157      -47.6403  -28.2018    4.6528 H         1 UNK         0.3028 
@<TRIPOS>BOND
     1    1    2 1    
     2    1   82 1    
     3    1   83 1    
     4    1   84 1    
     5    2    3 2    
     6    2    4 am   BACKBONE|DICT|INTERRES
     7    4    5 1    
     8    4   85 1    
     9    5    6 1    
    10    5   80 1    
    11    5   86 1    
    12    6    7 1    
    13    6   87 1    
    14    6   88 1    
    15    7    8 1    
    16    8    9 1    
    17    8   89 1    
    18    8   90 1    
    19    9   10 ar   
    20    9   14 ar   
    21   10   11 ar   
    22   10   91 1    
    23   11   12 ar   
    24   11   58 1    
    25   12   13 ar   
    26   12   92 1    
    27   13   14 ar   
    28   13   15 1    
    29   14   93 1    
    30   15   16 1    
    31   15   94 1    
    32   15   95 1    
    33   16   17 1    
    34   17   18 1    
    35   17   96 1    
    36   17   97 1    
    37   18   19 1    
    38   18   22 1    
    39   18   98 1    
    40   19   20 am   BACKBONE|DICT|INTERRES
    41   19   21 2    
    42   20   99 1    
    43   20  100 1    
    44   22   23 am   BACKBONE|DICT|INTERRES
    45   22  101 1    
    46   23   24 2    
    47   23   25 1    
    48   25   26 1    
    49   25   27 1    
    50   25  102 1    
    51   26  103 1    
    52   26  104 1    
    53   26  105 1    
    54   27   28 am   BACKBONE|DICT|INTERRES
    55   27  106 1    
    56   28   29 2    
    57   28   30 1    
    58   30   31 1    
    59   30   32 1    
    60   30  107 1    
    61   31  108 1    
    62   31  109 1    
    63   31  110 1    
    64   32   33 am   BACKBONE|DICT|INTERRES
    65   32  111 1    
    66   33   34 2    
    67   33   35 1    
    68   35   36 1    
    69   35   37 1    
    70   35  112 1    
    71   36  113 1    
    72   36  114 1    
    73   36  115 1    
    74   37   38 am   BACKBONE|DICT|INTERRES
    75   37  116 1    
    76   38   39 2    
    77   38   40 1    
    78   40   41 1    
    79   40   42 1    
    80   40  117 1    
    81   41  118 1    
    82   41  119 1    
    83   41  120 1    
    84   42   43 am   BACKBONE|DICT|INTERRES
    85   42  121 1    
    86   43   44 2    
    87   43   45 1    
    88   45   46 1    
    89   45   47 1    
    90   45  122 1    
    91   46  123 1    
    92   46  124 1    
    93   46  125 1    
    94   47   48 am   BACKBONE|DICT|INTERRES
    95   47  126 1    
    96   48   49 2    
    97   48   50 1    
    98   50   51 1    
    99   50   52 1    
   100   50  127 1    
   101   51  128 1    
   102   51  129 1    
   103   51  130 1    
   104   52   53 am   BACKBONE|DICT|INTERRES
   105   52  131 1    
   106   53   54 2    
   107   53   55 1    
   108   55   56 1    
   109   55   59 1    
   110   55  132 1    
   111   56   57 1    
   112   56  133 1    
   113   56  134 1    
   114   57   58 1    
   115   58  135 1    
   116   58  136 1    
   117   59   60 am   BACKBONE|DICT|INTERRES
   118   59  137 1    
   119   60   61 2    
   120   60   62 1    
   121   62   63 1    
   122   62   64 1    
   123   62  138 1    
   124   63  139 1    
   125   63  140 1    
   126   63  141 1    
   127   64   65 am   BACKBONE|DICT|INTERRES
   128   64  142 1    
   129   65   66 2    
   130   65   67 1    
   131   67   68 1    
   132   67   69 1    
   133   67  143 1    
   134   68  144 1    
   135   68  145 1    
   136   68  146 1    
   137   69   70 am   BACKBONE|DICT|INTERRES
   138   69  147 1    
   139   70   71 2    
   140   70   72 1    
   141   72   73 1    
   142   72   74 1    
   143   72  148 1    
   144   73  149 1    
   145   73  150 1    
   146   73  151 1    
   147   74   75 am   BACKBONE|DICT|INTERRES
   148   74  152 1    
   149   75   76 2    
   150   75   77 1    
   151   77   78 1    
   152   77   79 1    
   153   77  153 1    
   154   78  154 1    
   155   78  155 1    
   156   78  156 1    
   157   79   80 am   BACKBONE|DICT|INTERRES
   158   79  157 1    
   159   80   81 2    
@<TRIPOS>SUBSTRUCTURE
     1 UNK         1 GROUP             0       ****    0 ROOT    
