@<TRIPOS>MOLECULE
3R207
157   159    1
SMALL
USER_CHARGES


@<TRIPOS>ATOM
      1 CA        -50.3463  -32.8764    8.1329 C.3       0 UNK        -0.1975 
      2 C         -49.5584  -32.0124    7.1600 C.2       0 UNK         0.4852 
      3 O         -48.3485  -32.1984    7.0263 O.2       0 UNK        -0.5216 
      4 N         -50.2330  -31.0783    6.4723 N.am      1 UNK        -0.4461 
      5 CA        -49.6303  -30.1772    5.4832 C.3       1 UNK         0.0864 
      6 C6        -50.6909  -29.5663    4.5270 C.3       14 UNK        -0.0898 
      7 S7        -51.6352  -28.1243    5.1372 S.3       14 UNK        -0.2598 
      8 C8        -53.0262  -28.8761    6.0467 C.3       14 UNK         0.0286 
      9 C9        -52.8341  -28.7200    7.5483 C.ar      14 UNK        -0.0844 
     10 C10       -52.8389  -27.4405    8.1103 C.ar      14 UNK        -0.0881 
     11 C11       -52.6110  -27.2612    9.4756 C.ar      14 UNK        -0.0643 
     12 C12       -52.3850  -28.3764   10.2848 C.ar      14 UNK        -0.0930 
     13 C13       -52.4307  -29.6673    9.7482 C.ar      14 UNK        -0.0827 
     14 C14       -52.6572  -29.8326    8.3773 C.ar      14 UNK        -0.1249 
     15 C15       -52.2350  -30.8800   10.6504 C.3       14 UNK         0.0141 
     16 S16       -53.3037  -30.8395   12.1271 S.3       14 UNK        -0.2313 
     17 C17       -54.9566  -31.1573   11.4152 C.3       14 UNK        -0.0915 
     18 CA        -55.6945  -29.8996   10.8724 C.3       13 UNK         0.0968 
     19 C         -57.1529  -30.2617   10.4681 C.2       13 UNK         0.5732 
     20 N         -58.1736  -29.7929   11.1768 N.am      13 UNK        -0.7310 
     21 O         -57.3596  -30.9830    9.4951 O.2       13 UNK        -0.5035 
     22 N         -55.5668  -28.7478   11.7777 N.am      13 UNK        -0.4233 
     23 C         -55.8562  -27.4768   11.4720 C.2       13 UNK         0.4989 
     24 O         -56.3017  -27.1239   10.3795 O.2       13 UNK        -0.4996 
     25 CA        -55.5677  -26.4011   12.5407 C.3       12 UNK         0.0216 
     26 CB        -56.7680  -25.4512   12.7380 C.3       12 UNK        -0.1964 
     27 N         -55.0816  -26.9169   13.8305 N.am      12 UNK        -0.4276 
     28 C         -55.7467  -27.6564   14.7312 C.2       12 UNK         0.5020 
     29 O         -56.9008  -28.0555   14.5733 O.2       12 UNK        -0.5489 
     30 CA        -54.9858  -28.0611   16.0082 C.3       11 UNK         0.0294 
     31 CB        -54.6225  -29.5549   15.9564 C.3       11 UNK        -0.2019 
     32 N         -53.7626  -27.2904   16.2574 N.am      11 UNK        -0.4493 
     33 C         -53.6993  -25.9987   16.6023 C.2       11 UNK         0.4932 
     34 O         -54.6940  -25.2864   16.7374 O.2       11 UNK        -0.5029 
     35 CA        -52.3046  -25.3785   16.8223 C.3       10 UNK         0.0280 
     36 CB        -51.9282  -25.3956   18.3160 C.3       10 UNK        -0.1976 
     37 N         -51.2117  -25.9249   16.0008 N.am      10 UNK        -0.4242 
     38 C         -50.6729  -27.1550   16.0100 C.2       10 UNK         0.5072 
     39 O         -51.1152  -28.0973   16.6676 O.2       10 UNK        -0.5224 
     40 CA        -49.4295  -27.3746   15.1311 C.3       9 UNK         0.0343 
     41 CB        -49.8431  -27.6657   13.6784 C.3       9 UNK        -0.2003 
     42 N         -48.4931  -26.2459   15.1744 N.am      9 UNK        -0.4272 
     43 C         -47.8277  -25.8465   16.2713 C.2       9 UNK         0.4988 
     44 O         -47.8980  -26.4129   17.3624 O.2       9 UNK        -0.5108 
     45 CA        -46.9360  -24.6023   16.1364 C.3       8 UNK         0.0248 
     46 CB        -45.5460  -24.9818   15.5981 C.3       8 UNK        -0.2001 
     47 N         -47.5481  -23.5981   15.2657 N.am      8 UNK        -0.4140 
     48 C         -48.4316  -22.6762   15.6758 C.2       8 UNK         0.5028 
     49 O         -48.7568  -22.5147   16.8525 O.2       8 UNK        -0.5428 
     50 CA        -49.0740  -21.7844   14.5947 C.3       7 UNK         0.0264 
     51 CB        -48.2705  -20.4853   14.4220 C.3       7 UNK        -0.1988 
     52 N         -49.2111  -22.4441   13.2926 N.am      7 UNK        -0.4454 
     53 C         -49.9931  -23.5089   13.0605 C.2       7 UNK         0.5027 
     54 O         -50.7280  -24.0126   13.9112 O.2       7 UNK        -0.5083 
     55 CA        -49.8973  -24.1730   11.6708 C.3       6 UNK         0.0844 
     56 C56       -51.0219  -23.6651   10.7396 C.3       14 UNK        -0.0967 
     57 S57       -51.2960  -24.8355    9.3749 S.3       14 UNK        -0.2604 
     58 C58       -52.6163  -25.8663   10.0771 C.3       14 UNK         0.0134 
     59 N         -48.5625  -24.0818   11.0577 N.am      6 UNK        -0.4116 
     60 C         -47.4330  -24.5415   11.6206 C.2       5 UNK         0.5034 
     61 O         -47.4143  -25.0850   12.7255 O.2       5 UNK        -0.5045 
     62 CA        -46.1012  -24.3644   10.8697 C.3       5 UNK         0.0224 
     63 CB        -45.3383  -25.6967   10.7651 C.3       5 UNK        -0.1978 
     64 N         -46.2512  -23.7873    9.5320 N.am      5 UNK        -0.4737 
     65 C         -46.2929  -22.4741    9.2664 C.2       4 UNK         0.5027 
     66 O         -46.2273  -21.6044   10.1348 O.2       4 UNK        -0.5211 
     67 CA        -46.4469  -22.0559    7.7914 C.3       4 UNK         0.0297 
     68 CB        -45.0731  -21.7436    7.1772 C.3       4 UNK        -0.1993 
     69 N         -47.1245  -23.0640    6.9710 N.am      4 UNK        -0.4486 
     70 C         -48.4130  -23.4063    7.1014 C.2       3 UNK         0.4961 
     71 O         -49.1804  -22.8446    7.8815 O.2       3 UNK        -0.5105 
     72 CA        -48.9269  -24.5768    6.2372 C.3       3 UNK         0.0299 
     73 CB        -48.1806  -24.7198    4.8926 C.3       3 UNK        -0.1972 
     74 N         -48.9306  -25.8605    6.9519 N.am      3 UNK        -0.4305 
     75 C         -47.9011  -26.4465    7.5835 C.2       2 UNK         0.5006 
     76 O         -46.7788  -25.9498    7.6858 O.2       2 UNK        -0.5106 
     77 CA        -48.1490  -27.8406    8.1863 C.3       2 UNK         0.0296 
     78 CB        -48.7597  -27.7391    9.5936 C.3       2 UNK        -0.2002 
     79 N         -48.9834  -28.7136    7.3566 N.am      2 UNK        -0.4032 
     80 C         -48.6790  -29.1368    6.1180 C.2       1 UNK         0.5000 
     81 O         -47.6779  -28.7797    5.4939 O.2       1 UNK        -0.5238 
     82 H82       -50.0570  -33.9214    8.0241 H         1 UNK         0.0889 
     83 H83       -51.4198  -32.8112    7.9613 H         1 UNK         0.0889 
     84 H84       -50.1368  -32.5724    9.1577 H         1 UNK         0.0889 
     85 H85       -51.2240  -30.9649    6.6202 H         1 UNK         0.3028 
     86 H86       -48.9934  -30.8078    4.8579 H         1 UNK         0.0864 
     87 H87       -50.1836  -29.2326    3.6201 H         1 UNK         0.0720 
     88 H88       -51.3863  -30.3363    4.1891 H         1 UNK         0.0720 
     89 H89       -53.1508  -29.9227    5.7664 H         1 UNK         0.0814 
     90 H90       -53.9488  -28.3723    5.7550 H         1 UNK         0.0814 
     91 H91       -52.9982  -26.5770    7.4787 H         1 UNK         0.1469 
     92 H92       -52.2021  -28.2451   11.3421 H         1 UNK         0.1381 
     93 H93       -52.7041  -30.8271    7.9590 H         1 UNK         0.1206 
     94 H94       -52.4187  -31.8086   10.1090 H         1 UNK         0.0813 
     95 H95       -51.1936  -30.9083   10.9732 H         1 UNK         0.0813 
     96 H96       -54.8615  -31.9087   10.6294 H         1 UNK         0.0638 
     97 H97       -55.5492  -31.6235   12.2047 H         1 UNK         0.0638 
     98 H98       -55.2030  -29.6089    9.9431 H         1 UNK         0.0568 
     99 H99       -59.1148  -30.0309   10.9073 H         1 UNK         0.3450 
    100 H100      -58.0081  -29.2065   11.9801 H         1 UNK         0.3450 
    101 H101      -55.2136  -28.9532   12.6989 H         1 UNK         0.2987 
    102 H102      -54.7499  -25.8016   12.1411 H         1 UNK         0.0766 
    103 H103      -56.5449  -24.6775   13.4727 H         1 UNK         0.0798 
    104 H104      -57.6586  -25.9843   13.0718 H         1 UNK         0.0798 
    105 H105      -57.0254  -24.9461   11.8061 H         1 UNK         0.0798 
    106 H106      -54.1311  -26.6701   14.0678 H         1 UNK         0.3198 
    107 H107      -55.6623  -27.8989   16.8500 H         1 UNK         0.0843 
    108 H108      -55.5095  -30.1704   15.7987 H         1 UNK         0.0831 
    109 H109      -54.1649  -29.8843   16.8895 H         1 UNK         0.0831 
    110 H110      -53.9253  -29.7739   15.1465 H         1 UNK         0.0831 
    111 H111      -52.8820  -27.8018   16.2563 H         1 UNK         0.3133 
    112 H112      -52.3870  -24.3329   16.5207 H         1 UNK         0.0566 
    113 H113      -50.9854  -24.8768   18.4914 H         1 UNK         0.0814 
    114 H114      -52.6900  -24.8963   18.9163 H         1 UNK         0.0814 
    115 H115      -51.8280  -26.4116   18.6993 H         1 UNK         0.0814 
    116 H116      -50.8231  -25.2568   15.3379 H         1 UNK         0.3091 
    117 H117      -48.8998  -28.2494   15.5142 H         1 UNK         0.0702 
    118 H118      -48.9773  -27.7464   13.0204 H         1 UNK         0.0785 
    119 H119      -50.4992  -26.8917   13.2832 H         1 UNK         0.0785 
    120 H120      -50.3883  -28.6085   13.6146 H         1 UNK         0.0785 
    121 H121      -48.3056  -25.7675   14.2986 H         1 UNK         0.2998 
    122 H122      -46.8013  -24.1769   17.1334 H         1 UNK         0.0697 
    123 H123      -45.5989  -25.4425   14.6114 H         1 UNK         0.0825 
    124 H124      -45.0556  -25.6951   16.2618 H         1 UNK         0.0825 
    125 H125      -44.8972  -24.1088   15.5259 H         1 UNK         0.0825 
    126 H126      -47.3769  -23.7045   14.2736 H         1 UNK         0.3029 
    127 H127      -50.0760  -21.5237   14.9432 H         1 UNK         0.0897 
    128 H128      -48.7618  -19.8034   13.7276 H         1 UNK         0.0792 
    129 H129      -48.1706  -19.9594   15.3727 H         1 UNK         0.0792 
    130 H130      -47.2637  -20.6783   14.0491 H         1 UNK         0.0792 
    131 H131      -48.6397  -22.0907   12.5380 H         1 UNK         0.3086 
    132 H132      -50.0693  -25.2354   11.8435 H         1 UNK         0.0583 
    133 H133      -51.9643  -23.5303   11.2755 H         1 UNK         0.1020 
    134 H134      -50.7703  -22.6877   10.3237 H         1 UNK         0.1020 
    135 H135      -52.4931  -25.9249   11.1595 H         1 UNK         0.0694 
    136 H136      -53.5816  -25.3922    9.8942 H         1 UNK         0.0694 
    137 H137      -48.5161  -23.6623   10.1386 H         1 UNK         0.2989 
    138 H138      -45.4953  -23.6895   11.4785 H         1 UNK         0.1055 
    139 H139      -45.1562  -26.1259   11.7515 H         1 UNK         0.0806 
    140 H140      -44.3659  -25.5579   10.2925 H         1 UNK         0.0806 
    141 H141      -45.8862  -26.4381   10.1850 H         1 UNK         0.0806 
    142 H142      -46.3461  -24.4486    8.7631 H         1 UNK         0.3061 
    143 H143      -47.0468  -21.1435    7.7700 H         1 UNK         0.0734 
    144 H144      -44.5554  -20.9744    7.7521 H         1 UNK         0.0832 
    145 H145      -44.4292  -22.6239    7.1580 H         1 UNK         0.0832 
    146 H146      -45.1685  -21.3730    6.1564 H         1 UNK         0.0832 
    147 H147      -46.5508  -23.6055    6.3402 H         1 UNK         0.3156 
    148 H148      -49.9700  -24.3516    6.0097 H         1 UNK         0.0589 
    149 H149      -47.1516  -25.0573    5.0205 H         1 UNK         0.0808 
    150 H150      -48.6805  -25.4437    4.2485 H         1 UNK         0.0808 
    151 H151      -48.1566  -23.7728    4.3515 H         1 UNK         0.0808 
    152 H152      -49.8178  -26.3443    6.9656 H         1 UNK         0.3098 
    153 H153      -47.1749  -28.3252    8.2798 H         1 UNK         0.0720 
    154 H154      -48.1546  -27.1106   10.2456 H         1 UNK         0.0791 
    155 H155      -48.8326  -28.7180   10.0677 H         1 UNK         0.0791 
    156 H156      -49.7586  -27.3082    9.5669 H         1 UNK         0.0791 
    157 H157      -49.8377  -29.0546    7.7734 H         1 UNK         0.3028 
@<TRIPOS>BOND
     1    1    2 1    
     2    1   82 1    
     3    1   83 1    
     4    1   84 1    
     5    2    3 2    
     6    2    4 am   BACKBONE|DICT|INTERRES
     7    4    5 1    
     8    4   85 1    
     9    5    6 1    
    10    5   80 1    
    11    5   86 1    
    12    6    7 1    
    13    6   87 1    
    14    6   88 1    
    15    7    8 1    
    16    8    9 1    
    17    8   89 1    
    18    8   90 1    
    19    9   10 ar   
    20    9   14 ar   
    21   10   11 ar   
    22   10   91 1    
    23   11   12 ar   
    24   11   58 1    
    25   12   13 ar   
    26   12   92 1    
    27   13   14 ar   
    28   13   15 1    
    29   14   93 1    
    30   15   16 1    
    31   15   94 1    
    32   15   95 1    
    33   16   17 1    
    34   17   18 1    
    35   17   96 1    
    36   17   97 1    
    37   18   19 1    
    38   18   22 1    
    39   18   98 1    
    40   19   20 am   BACKBONE|DICT|INTERRES
    41   19   21 2    
    42   20   99 1    
    43   20  100 1    
    44   22   23 am   BACKBONE|DICT|INTERRES
    45   22  101 1    
    46   23   24 2    
    47   23   25 1    
    48   25   26 1    
    49   25   27 1    
    50   25  102 1    
    51   26  103 1    
    52   26  104 1    
    53   26  105 1    
    54   27   28 am   BACKBONE|DICT|INTERRES
    55   27  106 1    
    56   28   29 2    
    57   28   30 1    
    58   30   31 1    
    59   30   32 1    
    60   30  107 1    
    61   31  108 1    
    62   31  109 1    
    63   31  110 1    
    64   32   33 am   BACKBONE|DICT|INTERRES
    65   32  111 1    
    66   33   34 2    
    67   33   35 1    
    68   35   36 1    
    69   35   37 1    
    70   35  112 1    
    71   36  113 1    
    72   36  114 1    
    73   36  115 1    
    74   37   38 am   BACKBONE|DICT|INTERRES
    75   37  116 1    
    76   38   39 2    
    77   38   40 1    
    78   40   41 1    
    79   40   42 1    
    80   40  117 1    
    81   41  118 1    
    82   41  119 1    
    83   41  120 1    
    84   42   43 am   BACKBONE|DICT|INTERRES
    85   42  121 1    
    86   43   44 2    
    87   43   45 1    
    88   45   46 1    
    89   45   47 1    
    90   45  122 1    
    91   46  123 1    
    92   46  124 1    
    93   46  125 1    
    94   47   48 am   BACKBONE|DICT|INTERRES
    95   47  126 1    
    96   48   49 2    
    97   48   50 1    
    98   50   51 1    
    99   50   52 1    
   100   50  127 1    
   101   51  128 1    
   102   51  129 1    
   103   51  130 1    
   104   52   53 am   BACKBONE|DICT|INTERRES
   105   52  131 1    
   106   53   54 2    
   107   53   55 1    
   108   55   56 1    
   109   55   59 1    
   110   55  132 1    
   111   56   57 1    
   112   56  133 1    
   113   56  134 1    
   114   57   58 1    
   115   58  135 1    
   116   58  136 1    
   117   59   60 am   BACKBONE|DICT|INTERRES
   118   59  137 1    
   119   60   61 2    
   120   60   62 1    
   121   62   63 1    
   122   62   64 1    
   123   62  138 1    
   124   63  139 1    
   125   63  140 1    
   126   63  141 1    
   127   64   65 am   BACKBONE|DICT|INTERRES
   128   64  142 1    
   129   65   66 2    
   130   65   67 1    
   131   67   68 1    
   132   67   69 1    
   133   67  143 1    
   134   68  144 1    
   135   68  145 1    
   136   68  146 1    
   137   69   70 am   BACKBONE|DICT|INTERRES
   138   69  147 1    
   139   70   71 2    
   140   70   72 1    
   141   72   73 1    
   142   72   74 1    
   143   72  148 1    
   144   73  149 1    
   145   73  150 1    
   146   73  151 1    
   147   74   75 am   BACKBONE|DICT|INTERRES
   148   74  152 1    
   149   75   76 2    
   150   75   77 1    
   151   77   78 1    
   152   77   79 1    
   153   77  153 1    
   154   78  154 1    
   155   78  155 1    
   156   78  156 1    
   157   79   80 am   BACKBONE|DICT|INTERRES
   158   79  157 1    
   159   80   81 2    
@<TRIPOS>SUBSTRUCTURE
     1 UNK         1 GROUP             0       ****    0 ROOT    
