@<TRIPOS>MOLECULE
3R207
157   159    1
SMALL
USER_CHARGES


@<TRIPOS>ATOM
      1 CA        -50.4502  -28.0504    5.5092 C.3       0 UNK        -0.1975 
      2 C         -50.1545  -26.6865    6.1127 C.2       0 UNK         0.4852 
      3 O         -49.0519  -26.1632    5.9427 O.2       0 UNK        -0.5216 
      4 N         -51.1425  -26.1137    6.8110 N.am      1 UNK        -0.4461 
      5 CA        -51.1476  -24.7645    7.3870 C.3       1 UNK         0.0864 
      6 C6        -52.4617  -24.4265    8.1437 C.3       14 UNK        -0.0898 
      7 S7        -53.9814  -25.0076    7.3058 S.3       14 UNK        -0.2598 
      8 C8        -54.6500  -26.2095    8.5069 C.3       14 UNK         0.0286 
      9 C9        -53.9804  -27.5770    8.4192 C.ar      14 UNK        -0.0844 
     10 C10       -52.6867  -27.7633    8.9090 C.ar      14 UNK        -0.0881 
     11 C11       -52.0690  -29.0145    8.8667 C.ar      14 UNK        -0.0643 
     12 C12       -52.7706  -30.1028    8.3412 C.ar      14 UNK        -0.0930 
     13 C13       -54.0662  -29.9351    7.8398 C.ar      14 UNK        -0.0827 
     14 C14       -54.6626  -28.6694    7.8766 C.ar      14 UNK        -0.1249 
     15 C15       -54.8046  -31.1097    7.2134 C.3       14 UNK         0.0141 
     16 S16       -56.3388  -31.5293    8.0986 S.3       14 UNK        -0.2313 
     17 C17       -55.7113  -32.3550    9.5997 C.3       14 UNK        -0.0915 
     18 CA        -56.4627  -31.8695   10.8732 C.3       13 UNK         0.0968 
     19 C         -56.3037  -32.8246   12.0979 C.2       13 UNK         0.5732 
     20 N         -56.5322  -32.3562   13.3194 N.am      13 UNK        -0.7310 
     21 O         -56.0052  -34.0076   11.9480 O.2       13 UNK        -0.5035 
     22 N         -56.2177  -30.4431   11.1616 N.am      13 UNK        -0.4233 
     23 C         -55.0817  -29.9158   11.6404 C.2       13 UNK         0.4989 
     24 O         -54.0869  -30.5775   11.9386 O.2       13 UNK        -0.4996 
     25 CA        -55.0466  -28.3969   11.8672 C.3       12 UNK         0.0216 
     26 CB        -56.3402  -27.6463   11.4806 C.3       12 UNK        -0.1964 
     27 N         -54.7177  -28.1534   13.2694 N.am      12 UNK        -0.4276 
     28 C         -54.0176  -27.1124   13.7290 C.2       12 UNK         0.5020 
     29 O         -53.6106  -26.1914   13.0160 O.2       12 UNK        -0.5489 
     30 CA        -53.7055  -27.1304   15.2344 C.3       11 UNK         0.0294 
     31 CB        -52.7557  -28.2888   15.5937 C.3       11 UNK        -0.2019 
     32 N         -53.0640  -25.8810   15.6356 N.am      11 UNK        -0.4493 
     33 C         -53.6099  -24.9323   16.4053 C.2       11 UNK         0.4932 
     34 O         -54.7440  -25.0087   16.8821 O.2       11 UNK        -0.5029 
     35 CA        -52.7389  -23.6895   16.6897 C.3       10 UNK         0.0280 
     36 CB        -53.2147  -22.8847   17.9180 C.3       10 UNK        -0.1976 
     37 N         -51.3057  -23.9968   16.7847 N.am      10 UNK        -0.4242 
     38 C         -50.6992  -24.8175   17.6603 C.2       10 UNK         0.5072 
     39 O         -51.2806  -25.3653   18.5982 O.2       10 UNK        -0.5224 
     40 CA        -49.1982  -25.1061   17.4524 C.3       9 UNK         0.0343 
     41 CB        -48.9414  -26.6220   17.3711 C.3       9 UNK        -0.2003 
     42 N         -48.6809  -24.4869   16.2310 N.am      9 UNK        -0.4272 
     43 C         -47.9849  -23.3430   16.1730 C.2       9 UNK         0.4988 
     44 O         -47.6205  -22.7107   17.1645 O.2       9 UNK        -0.5108 
     45 CA        -47.6586  -22.7905   14.7708 C.3       8 UNK         0.0248 
     46 CB        -46.2372  -23.1967   14.3482 C.3       8 UNK        -0.2001 
     47 N         -48.6088  -23.2130   13.7366 N.am      8 UNK        -0.4140 
     48 C         -49.9098  -22.8883   13.7086 C.2       8 UNK         0.5028 
     49 O         -50.4470  -22.1503   14.5334 O.2       8 UNK        -0.5428 
     50 CA        -50.7737  -23.5564   12.6252 C.3       7 UNK         0.0264 
     51 CB        -50.8572  -22.6614   11.3801 C.3       7 UNK        -0.1988 
     52 N         -50.3133  -24.8979   12.2461 N.am      7 UNK        -0.4454 
     53 C         -50.2368  -25.9420   13.0908 C.2       7 UNK         0.5027 
     54 O         -50.5083  -25.8693   14.2900 O.2       7 UNK        -0.5083 
     55 CA        -49.7257  -27.2738   12.5078 C.3       6 UNK         0.0844 
     56 C56       -50.9100  -28.0647   11.9047 C.3       14 UNK        -0.0967 
     57 S57       -50.4503  -29.6182   11.0719 S.3       14 UNK        -0.2604 
     58 C58       -50.6215  -29.1674    9.3185 C.3       14 UNK         0.0134 
     59 N         -48.6122  -27.0213   11.5813 N.am      6 UNK        -0.4116 
     60 C         -47.3955  -26.6458   12.0049 C.2       5 UNK         0.5034 
     61 O         -47.0811  -26.6029   13.1955 O.2       5 UNK        -0.5045 
     62 CA        -46.3858  -26.1585   10.9517 C.3       5 UNK         0.0224 
     63 CB        -44.9202  -26.2821   11.4218 C.3       5 UNK        -0.1978 
     64 N         -46.5568  -26.7332    9.6142 N.am      5 UNK        -0.4737 
     65 C         -46.3511  -27.9981    9.2207 C.2       4 UNK         0.5027 
     66 O         -46.1157  -28.9292    9.9899 O.2       4 UNK        -0.5211 
     67 CA        -46.3838  -28.2626    7.7005 C.3       4 UNK         0.0297 
     68 CB        -47.5402  -29.1958    7.3192 C.3       4 UNK        -0.1993 
     69 N         -46.4768  -27.0258    6.9135 N.am      4 UNK        -0.4486 
     70 C         -45.4320  -26.2445    6.6045 C.2       3 UNK         0.4961 
     71 O         -44.2581  -26.5442    6.8223 O.2       3 UNK        -0.5105 
     72 CA        -45.7645  -24.8684    6.0076 C.3       3 UNK         0.0299 
     73 CB        -46.1240  -24.9809    4.5169 C.3       3 UNK        -0.1972 
     74 N         -46.8506  -24.2093    6.7424 N.am      3 UNK        -0.4305 
     75 C         -46.7092  -23.6493    7.9553 C.2       2 UNK         0.5006 
     76 O         -45.6403  -23.6174    8.5635 O.2       2 UNK        -0.5106 
     77 CA        -47.9486  -23.0298    8.6279 C.3       2 UNK         0.0296 
     78 CB        -47.8416  -21.4957    8.6410 C.3       2 UNK        -0.2002 
     79 N         -49.2032  -23.4131    7.9810 N.am      2 UNK        -0.4032 
     80 C         -49.9221  -24.5001    8.2875 C.2       1 UNK         0.5000 
     81 O         -49.6631  -25.2664    9.2246 O.2       1 UNK        -0.5238 
     82 H82       -51.2231  -27.9662    4.7459 H         1 UNK         0.0889 
     83 H83       -50.7932  -28.7492    6.2706 H         1 UNK         0.0889 
     84 H84       -49.5586  -28.4670    5.0415 H         1 UNK         0.0889 
     85 H85       -52.0169  -26.6111    6.9150 H         1 UNK         0.3028 
     86 H86       -51.0899  -24.0914    6.5291 H         1 UNK         0.0864 
     87 H87       -52.4473  -24.8034    9.1664 H         1 UNK         0.0720 
     88 H88       -52.5469  -23.3433    8.2483 H         1 UNK         0.0720 
     89 H89       -55.7212  -26.3091    8.3254 H         1 UNK         0.0814 
     90 H90       -54.5581  -25.8164    9.5207 H         1 UNK         0.0814 
     91 H91       -52.1419  -26.9223    9.3036 H         1 UNK         0.1469 
     92 H92       -52.2965  -31.0738    8.3007 H         1 UNK         0.1381 
     93 H93       -55.6634  -28.5411    7.4872 H         1 UNK         0.1206 
     94 H94       -55.0566  -30.8529    6.1837 H         1 UNK         0.0813 
     95 H95       -54.1680  -31.9942    7.1590 H         1 UNK         0.0813 
     96 H96       -54.6369  -32.1952    9.7023 H         1 UNK         0.0638 
     97 H97       -55.8479  -33.4264    9.4446 H         1 UNK         0.0638 
     98 H98       -57.5281  -31.9341   10.6496 H         1 UNK         0.0568 
     99 H99       -56.4397  -32.9758   14.1086 H         1 UNK         0.3450 
    100 H100      -56.8070  -31.3979   13.4583 H         1 UNK         0.3450 
    101 H101      -56.9878  -29.8225   10.9621 H         1 UNK         0.2987 
    102 H102      -54.2322  -28.0216   11.2462 H         1 UNK         0.0766 
    103 H103      -56.2175  -26.5707   11.6102 H         1 UNK         0.0798 
    104 H104      -57.1904  -27.9538   12.0904 H         1 UNK         0.0798 
    105 H105      -56.5959  -27.8085   10.4326 H         1 UNK         0.0798 
    106 H106      -54.9612  -28.8987   13.9077 H         1 UNK         0.3198 
    107 H107      -54.6472  -27.2680   15.7701 H         1 UNK         0.0843 
    108 H108      -51.7950  -28.1987   15.0866 H         1 UNK         0.0831 
    109 H109      -53.1785  -29.2575   15.3253 H         1 UNK         0.0831 
    110 H110      -52.5581  -28.3125   16.6657 H         1 UNK         0.0831 
    111 H111      -52.1493  -25.7165   15.2211 H         1 UNK         0.3133 
    112 H112      -52.8474  -23.0452   15.8162 H         1 UNK         0.0566 
    113 H113      -52.5900  -22.0069   18.0830 H         1 UNK         0.0814 
    114 H114      -54.2375  -22.5314   17.7819 H         1 UNK         0.0814 
    115 H115      -53.1979  -23.4854   18.8279 H         1 UNK         0.0814 
    116 H116      -50.7352  -23.5662   16.0661 H         1 UNK         0.3091 
    117 H117      -48.6697  -24.7173   18.3251 H         1 UNK         0.0702 
    118 H118      -47.8826  -26.8375   17.2272 H         1 UNK         0.0785 
    119 H119      -49.4914  -27.0807   16.5482 H         1 UNK         0.0785 
    120 H120      -49.2507  -27.1234   18.2891 H         1 UNK         0.0785 
    121 H121      -48.9641  -24.9339   15.3663 H         1 UNK         0.2998 
    122 H122      -47.6995  -21.7009   14.8318 H         1 UNK         0.0697 
    123 H123      -46.1310  -24.2796   14.2739 H         1 UNK         0.0825 
    124 H124      -45.5015  -22.8487   15.0746 H         1 UNK         0.0825 
    125 H125      -45.9674  -22.7642   13.3845 H         1 UNK         0.0825 
    126 H126      -48.2605  -23.8439   13.0312 H         1 UNK         0.3029 
    127 H127      -51.7807  -23.6645   13.0355 H         1 UNK         0.0897 
    128 H128      -51.2127  -21.6634   11.6405 H         1 UNK         0.0792 
    129 H129      -51.5534  -23.0666   10.6476 H         1 UNK         0.0792 
    130 H130      -49.8864  -22.5449   10.8998 H         1 UNK         0.0792 
    131 H131      -50.0753  -25.0414   11.2700 H         1 UNK         0.3086 
    132 H132      -49.3385  -27.8667   13.3398 H         1 UNK         0.0583 
    133 H133      -51.6018  -28.3433   12.6995 H         1 UNK         0.1020 
    134 H134      -51.4909  -27.4321   11.2420 H         1 UNK         0.1020 
    135 H135      -50.0725  -28.2433    9.1325 H         1 UNK         0.0694 
    136 H136      -50.1368  -29.9402    8.7208 H         1 UNK         0.0694 
    137 H137      -48.8204  -26.9908   10.5926 H         1 UNK         0.2989 
    138 H138      -46.5880  -25.0928   10.8406 H         1 UNK         0.1055 
    139 H139      -44.7496  -25.7123   12.3362 H         1 UNK         0.0806 
    140 H140      -44.2307  -25.8955   10.6709 H         1 UNK         0.0806 
    141 H141      -44.6471  -27.3171   11.6291 H         1 UNK         0.0806 
    142 H142      -46.7558  -26.0678    8.8817 H         1 UNK         0.3061 
    143 H143      -45.4512  -28.7727    7.4495 H         1 UNK         0.0734 
    144 H144      -47.4890  -29.4792    6.2680 H         1 UNK         0.0832 
    145 H145      -47.5164  -30.1160    7.9049 H         1 UNK         0.0832 
    146 H146      -48.5012  -28.7200    7.4919 H         1 UNK         0.0832 
    147 H147      -47.4082  -26.7123    6.6437 H         1 UNK         0.3156 
    148 H148      -44.8708  -24.2453    6.0865 H         1 UNK         0.0589 
    149 H149      -47.0120  -25.5915    4.3525 H         1 UNK         0.0808 
    150 H150      -46.3069  -23.9996    4.0788 H         1 UNK         0.0808 
    151 H151      -45.3084  -25.4382    3.9551 H         1 UNK         0.0808 
    152 H152      -47.7723  -24.2699    6.3299 H         1 UNK         0.3098 
    153 H153      -47.9584  -23.3737    9.6639 H         1 UNK         0.0720 
    154 H154      -48.6862  -21.0424    9.1603 H         1 UNK         0.0791 
    155 H155      -47.8073  -21.0832    7.6319 H         1 UNK         0.0791 
    156 H156      -46.9361  -21.1713    9.1561 H         1 UNK         0.0791 
    157 H157      -49.5043  -22.8302    7.2123 H         1 UNK         0.3028 
@<TRIPOS>BOND
     1    1    2 1    
     2    1   82 1    
     3    1   83 1    
     4    1   84 1    
     5    2    3 2    
     6    2    4 am   BACKBONE|DICT|INTERRES
     7    4    5 1    
     8    4   85 1    
     9    5    6 1    
    10    5   80 1    
    11    5   86 1    
    12    6    7 1    
    13    6   87 1    
    14    6   88 1    
    15    7    8 1    
    16    8    9 1    
    17    8   89 1    
    18    8   90 1    
    19    9   10 ar   
    20    9   14 ar   
    21   10   11 ar   
    22   10   91 1    
    23   11   12 ar   
    24   11   58 1    
    25   12   13 ar   
    26   12   92 1    
    27   13   14 ar   
    28   13   15 1    
    29   14   93 1    
    30   15   16 1    
    31   15   94 1    
    32   15   95 1    
    33   16   17 1    
    34   17   18 1    
    35   17   96 1    
    36   17   97 1    
    37   18   19 1    
    38   18   22 1    
    39   18   98 1    
    40   19   20 am   BACKBONE|DICT|INTERRES
    41   19   21 2    
    42   20   99 1    
    43   20  100 1    
    44   22   23 am   BACKBONE|DICT|INTERRES
    45   22  101 1    
    46   23   24 2    
    47   23   25 1    
    48   25   26 1    
    49   25   27 1    
    50   25  102 1    
    51   26  103 1    
    52   26  104 1    
    53   26  105 1    
    54   27   28 am   BACKBONE|DICT|INTERRES
    55   27  106 1    
    56   28   29 2    
    57   28   30 1    
    58   30   31 1    
    59   30   32 1    
    60   30  107 1    
    61   31  108 1    
    62   31  109 1    
    63   31  110 1    
    64   32   33 am   BACKBONE|DICT|INTERRES
    65   32  111 1    
    66   33   34 2    
    67   33   35 1    
    68   35   36 1    
    69   35   37 1    
    70   35  112 1    
    71   36  113 1    
    72   36  114 1    
    73   36  115 1    
    74   37   38 am   BACKBONE|DICT|INTERRES
    75   37  116 1    
    76   38   39 2    
    77   38   40 1    
    78   40   41 1    
    79   40   42 1    
    80   40  117 1    
    81   41  118 1    
    82   41  119 1    
    83   41  120 1    
    84   42   43 am   BACKBONE|DICT|INTERRES
    85   42  121 1    
    86   43   44 2    
    87   43   45 1    
    88   45   46 1    
    89   45   47 1    
    90   45  122 1    
    91   46  123 1    
    92   46  124 1    
    93   46  125 1    
    94   47   48 am   BACKBONE|DICT|INTERRES
    95   47  126 1    
    96   48   49 2    
    97   48   50 1    
    98   50   51 1    
    99   50   52 1    
   100   50  127 1    
   101   51  128 1    
   102   51  129 1    
   103   51  130 1    
   104   52   53 am   BACKBONE|DICT|INTERRES
   105   52  131 1    
   106   53   54 2    
   107   53   55 1    
   108   55   56 1    
   109   55   59 1    
   110   55  132 1    
   111   56   57 1    
   112   56  133 1    
   113   56  134 1    
   114   57   58 1    
   115   58  135 1    
   116   58  136 1    
   117   59   60 am   BACKBONE|DICT|INTERRES
   118   59  137 1    
   119   60   61 2    
   120   60   62 1    
   121   62   63 1    
   122   62   64 1    
   123   62  138 1    
   124   63  139 1    
   125   63  140 1    
   126   63  141 1    
   127   64   65 am   BACKBONE|DICT|INTERRES
   128   64  142 1    
   129   65   66 2    
   130   65   67 1    
   131   67   68 1    
   132   67   69 1    
   133   67  143 1    
   134   68  144 1    
   135   68  145 1    
   136   68  146 1    
   137   69   70 am   BACKBONE|DICT|INTERRES
   138   69  147 1    
   139   70   71 2    
   140   70   72 1    
   141   72   73 1    
   142   72   74 1    
   143   72  148 1    
   144   73  149 1    
   145   73  150 1    
   146   73  151 1    
   147   74   75 am   BACKBONE|DICT|INTERRES
   148   74  152 1    
   149   75   76 2    
   150   75   77 1    
   151   77   78 1    
   152   77   79 1    
   153   77  153 1    
   154   78  154 1    
   155   78  155 1    
   156   78  156 1    
   157   79   80 am   BACKBONE|DICT|INTERRES
   158   79  157 1    
   159   80   81 2    
@<TRIPOS>SUBSTRUCTURE
     1 UNK         1 GROUP             0       ****    0 ROOT    
