@<TRIPOS>MOLECULE
3R207
157   159    1
SMALL
USER_CHARGES


@<TRIPOS>ATOM
      1 CA        -55.0303  -25.0031    2.6951 C.3       0 UNK        -0.1975 
      2 C         -54.0512  -24.9993    3.8601 C.2       0 UNK         0.4852 
      3 O         -53.5483  -23.9379    4.2324 O.2       0 UNK        -0.5216 
      4 N         -53.7839  -26.1757    4.4422 N.am      1 UNK        -0.4461 
      5 CA        -52.8191  -26.3696    5.5285 C.3       1 UNK         0.0864 
      6 C6        -53.0485  -27.7272    6.2360 C.3       14 UNK        -0.0898 
      7 S7        -52.3397  -27.7669    7.9147 S.3       14 UNK        -0.2598 
      8 C8        -51.2082  -29.1927    7.8020 C.3       14 UNK         0.0286 
      9 C9        -50.7167  -29.6594    9.1686 C.ar      14 UNK        -0.0844 
     10 C10       -49.3588  -29.9163    9.3899 C.ar      14 UNK        -0.0881 
     11 C11       -48.9164  -30.3971   10.6284 C.ar      14 UNK        -0.0643 
     12 C12       -49.8438  -30.6117   11.6540 C.ar      14 UNK        -0.0930 
     13 C13       -51.2016  -30.3499   11.4485 C.ar      14 UNK        -0.0827 
     14 C14       -51.6283  -29.8810   10.2044 C.ar      14 UNK        -0.1249 
     15 C15       -52.2106  -30.5383   12.5709 C.3       14 UNK         0.0141 
     16 S16       -53.5209  -31.7221   12.1320 S.3       14 UNK        -0.2313 
     17 C17       -54.8425  -31.2274   13.2889 C.3       14 UNK        -0.0915 
     18 CA        -55.8855  -30.2928   12.6153 C.3       13 UNK         0.0968 
     19 C         -57.1774  -30.1634   13.4667 C.2       13 UNK         0.5732 
     20 N         -57.9421  -31.2407   13.5891 N.am      13 UNK        -0.7310 
     21 O         -57.5047  -29.1145   14.0178 O.2       13 UNK        -0.5035 
     22 N         -55.2986  -28.9781   12.3166 N.am      13 UNK        -0.4233 
     23 C         -55.2450  -28.4093   11.1054 C.2       13 UNK         0.4989 
     24 O         -55.7117  -28.9317   10.0914 O.2       13 UNK        -0.4996 
     25 CA        -54.5149  -27.0530   10.9777 C.3       12 UNK         0.0216 
     26 CB        -55.1130  -26.1564    9.8721 C.3       12 UNK        -0.1964 
     27 N         -54.3700  -26.3066   12.2325 N.am      12 UNK        -0.4276 
     28 C         -55.3398  -25.8238   13.0196 C.2       12 UNK         0.5020 
     29 O         -56.5420  -25.9060   12.7603 O.2       12 UNK        -0.5489 
     30 CA        -54.8728  -25.1502   14.3280 C.3       11 UNK         0.0294 
     31 CB        -56.0346  -24.9072   15.3139 C.3       11 UNK        -0.2019 
     32 N         -53.7794  -25.8568   15.0143 N.am      11 UNK        -0.4493 
     33 C         -53.7401  -27.1481   15.3821 C.2       11 UNK         0.4932 
     34 O         -54.6052  -27.9696   15.0791 O.2       11 UNK        -0.5029 
     35 CA        -52.5453  -27.6141   16.2364 C.3       10 UNK         0.0280 
     36 CB        -52.0364  -29.0017   15.8167 C.3       10 UNK        -0.1976 
     37 N         -51.4221  -26.6741   16.2200 N.am      10 UNK        -0.4242 
     38 C         -51.2092  -25.7310   17.1470 C.2       10 UNK         0.5072 
     39 O         -51.9569  -25.5261   18.1041 O.2       10 UNK        -0.5224 
     40 CA        -49.9543  -24.8611   16.9789 C.3       9 UNK         0.0343 
     41 CB        -48.7168  -25.5989   17.5146 C.3       9 UNK        -0.2003 
     42 N         -49.7175  -24.4325   15.5977 N.am      9 UNK        -0.4272 
     43 C         -50.5197  -23.6061   14.9100 C.2       9 UNK         0.4988 
     44 O         -51.5754  -23.1506   15.3517 O.2       9 UNK        -0.5108 
     45 CA        -50.0789  -23.2306   13.4845 C.3       8 UNK         0.0248 
     46 CB        -48.8876  -22.2591   13.5111 C.3       8 UNK        -0.2001 
     47 N         -49.7459  -24.3962   12.6664 N.am      8 UNK        -0.4140 
     48 C         -50.6172  -25.3560   12.3242 C.2       8 UNK         0.5028 
     49 O         -51.8088  -25.3509   12.6294 O.2       8 UNK        -0.5428 
     50 CA        -50.0530  -26.5482   11.5425 C.3       7 UNK         0.0264 
     51 CB        -49.8509  -26.1795   10.0650 C.3       7 UNK        -0.1988 
     52 N         -48.7957  -27.0328   12.1084 N.am      7 UNK        -0.4454 
     53 C         -48.6442  -27.5216   13.3479 C.2       7 UNK         0.5027 
     54 O         -49.5559  -27.6215   14.1693 O.2       7 UNK        -0.5083 
     55 CA        -47.2096  -27.9034   13.7601 C.3       6 UNK         0.0844 
     56 C56       -46.7785  -29.2810   13.1950 C.3       14 UNK        -0.0967 
     57 S57       -46.4628  -29.3001   11.3907 S.3       14 UNK        -0.2604 
     58 C58       -47.4444  -30.7318   10.8362 C.3       14 UNK         0.0134 
     59 N         -46.2503  -26.8415   13.4447 N.am      6 UNK        -0.4116 
     60 C         -46.2779  -25.6020   13.9556 C.2       5 UNK         0.5034 
     61 O         -47.0886  -25.2198   14.7973 O.2       5 UNK        -0.5045 
     62 CA        -45.2548  -24.6005   13.3991 C.3       5 UNK         0.0224 
     63 CB        -43.9273  -24.6991   14.1671 C.3       5 UNK        -0.1978 
     64 N         -45.0090  -24.7648   11.9632 N.am      5 UNK        -0.4737 
     65 C         -45.9361  -24.5965   11.0119 C.2       4 UNK         0.5027 
     66 O         -47.1131  -24.3041   11.2391 O.2       4 UNK        -0.5211 
     67 CA        -45.4733  -24.8458    9.5752 C.3       4 UNK         0.0297 
     68 CB        -45.6520  -26.3272    9.2012 C.3       4 UNK        -0.1993 
     69 N         -46.2646  -24.0294    8.6615 N.am      4 UNK        -0.4486 
     70 C         -45.7778  -23.3004    7.6527 C.2       3 UNK         0.4961 
     71 O         -44.5783  -23.2112    7.3835 O.2       3 UNK        -0.5105 
     72 CA        -46.8223  -22.6112    6.7573 C.3       3 UNK         0.0299 
     73 CB        -46.1964  -21.5948    5.7837 C.3       3 UNK        -0.1972 
     74 N         -47.5426  -23.6287    5.9905 N.am      3 UNK        -0.4305 
     75 C         -48.5960  -24.3162    6.4447 C.2       2 UNK         0.5006 
     76 O         -49.1489  -24.0945    7.5252 O.2       2 UNK        -0.5106 
     77 CA        -49.0750  -25.4802    5.5750 C.3       2 UNK         0.0296 
     78 CB        -48.2691  -26.7561    5.8846 C.3       2 UNK        -0.2002 
     79 N         -50.4857  -25.7100    5.8568 N.am      2 UNK        -0.4032 
     80 C         -51.3722  -26.2382    5.0084 C.2       1 UNK         0.5000 
     81 O         -51.0872  -26.6360    3.8744 O.2       1 UNK        -0.5238 
     82 H82       -55.8823  -24.3615    2.9188 H         1 UNK         0.0889 
     83 H83       -55.4063  -26.0034    2.4813 H         1 UNK         0.0889 
     84 H84       -54.5447  -24.6243    1.7962 H         1 UNK         0.0889 
     85 H85       -54.2006  -27.0173    4.0707 H         1 UNK         0.3028 
     86 H86       -52.9957  -25.5713    6.2537 H         1 UNK         0.0864 
     87 H87       -52.6712  -28.5568    5.6346 H         1 UNK         0.0720 
     88 H88       -54.1182  -27.9088    6.3536 H         1 UNK         0.0720 
     89 H89       -50.3708  -28.9253    7.1557 H         1 UNK         0.0814 
     90 H90       -51.7233  -30.0265    7.3233 H         1 UNK         0.0814 
     91 H91       -48.6443  -29.7599    8.5934 H         1 UNK         0.1469 
     92 H92       -49.5098  -30.9856   12.6113 H         1 UNK         0.1381 
     93 H93       -52.6805  -29.6932   10.0404 H         1 UNK         0.1206 
     94 H94       -52.6508  -29.5670   12.7966 H         1 UNK         0.0813 
     95 H95       -51.7215  -30.8877   13.4807 H         1 UNK         0.0813 
     96 H96       -54.4115  -30.7576   14.1747 H         1 UNK         0.0638 
     97 H97       -55.3128  -32.1488   13.6361 H         1 UNK         0.0638 
     98 H98       -56.2015  -30.7673   11.6846 H         1 UNK         0.0568 
     99 H99       -58.7856  -31.1803   14.1375 H         1 UNK         0.3450 
    100 H100      -57.6966  -32.1100   13.1416 H         1 UNK         0.3450 
    101 H101      -54.9986  -28.4515   13.1308 H         1 UNK         0.2987 
    102 H102      -53.4964  -27.3014   10.6767 H         1 UNK         0.0766 
    103 H103      -54.5482  -25.2303    9.7660 H         1 UNK         0.0798 
    104 H104      -56.1516  -25.8973   10.0787 H         1 UNK         0.0798 
    105 H105      -55.0901  -26.6573    8.9035 H         1 UNK         0.0798 
    106 H106      -53.4077  -26.1002   12.5100 H         1 UNK         0.3198 
    107 H107      -54.4713  -24.1773   14.0396 H         1 UNK         0.0843 
    108 H108      -56.5054  -25.8438   15.6159 H         1 UNK         0.0831 
    109 H109      -56.8081  -24.2836   14.8638 H         1 UNK         0.0831 
    110 H110      -55.6923  -24.3970   16.2141 H         1 UNK         0.0831 
    111 H111      -52.9837  -25.2816   15.2590 H         1 UNK         0.3133 
    112 H112      -52.9240  -27.7113   17.2557 H         1 UNK         0.0566 
    113 H113      -51.2451  -29.3495   16.4808 H         1 UNK         0.0814 
    114 H114      -52.8313  -29.7477   15.8442 H         1 UNK         0.0814 
    115 H115      -51.6338  -28.9791   14.8073 H         1 UNK         0.0814 
    116 H116      -50.7483  -26.7928   15.4660 H         1 UNK         0.3091 
    117 H117      -50.0958  -23.9613   17.5814 H         1 UNK         0.0702 
    118 H118      -47.8361  -24.9565   17.4996 H         1 UNK         0.0785 
    119 H119      -48.4914  -26.4882   16.9242 H         1 UNK         0.0785 
    120 H120      -48.8666  -25.9191   18.5465 H         1 UNK         0.0785 
    121 H121      -48.8504  -24.7513   15.1699 H         1 UNK         0.2998 
    122 H122      -50.9169  -22.7227   13.0027 H         1 UNK         0.0697 
    123 H123      -48.0047  -22.7114   13.9632 H         1 UNK         0.0825 
    124 H124      -49.1269  -21.3638   14.0864 H         1 UNK         0.0825 
    125 H125      -48.6173  -21.9368   12.5052 H         1 UNK         0.0825 
    126 H126      -48.7902  -24.4677   12.3284 H         1 UNK         0.3029 
    127 H127      -50.7788  -27.3620   11.5998 H         1 UNK         0.0897 
    128 H128      -49.1201  -25.3816    9.9392 H         1 UNK         0.0792 
    129 H129      -50.7843  -25.8316    9.6216 H         1 UNK         0.0792 
    130 H130      -49.5134  -27.0338    9.4802 H         1 UNK         0.0792 
    131 H131      -47.9817  -26.9867   11.5141 H         1 UNK         0.3086 
    132 H132      -47.2189  -27.9962   14.8485 H         1 UNK         0.0583 
    133 H133      -45.8578  -29.5957   13.6888 H         1 UNK         0.1020 
    134 H134      -47.5136  -30.0421   13.4594 H         1 UNK         0.1020 
    135 H135      -47.0216  -31.0930    9.8975 H         1 UNK         0.0694 
    136 H136      -47.3338  -31.5535   11.5455 H         1 UNK         0.0694 
    137 H137      -45.5560  -27.0602   12.7458 H         1 UNK         0.2989 
    138 H138      -45.6648  -23.5998   13.5525 H         1 UNK         0.1055 
    139 H139      -44.0860  -24.5621   15.2379 H         1 UNK         0.0806 
    140 H140      -43.2247  -23.9299   13.8460 H         1 UNK         0.0806 
    141 H141      -43.4492  -25.6700   14.0304 H         1 UNK         0.0806 
    142 H142      -44.0679  -25.0102   11.6887 H         1 UNK         0.3061 
    143 H143      -44.4161  -24.5814    9.5030 H         1 UNK         0.0734 
    144 H144      -46.6920  -26.6453    9.2881 H         1 UNK         0.0832 
    145 H145      -45.3317  -26.5174    8.1768 H         1 UNK         0.0832 
    146 H146      -45.0563  -26.9712    9.8491 H         1 UNK         0.0832 
    147 H147      -47.2634  -24.0172    8.8384 H         1 UNK         0.3156 
    148 H148      -47.5171  -22.0700    7.4036 H         1 UNK         0.0589 
    149 H149      -45.4967  -22.0680    5.0935 H         1 UNK         0.0808 
    150 H150      -46.9613  -21.0916    5.1919 H         1 UNK         0.0808 
    151 H151      -45.6482  -20.8233    6.3261 H         1 UNK         0.0808 
    152 H152      -47.1256  -23.9038    5.1123 H         1 UNK         0.3098 
    153 H153      -48.9511  -25.2069    4.5247 H         1 UNK         0.0720 
    154 H154      -48.5953  -27.5920    5.2655 H         1 UNK         0.0791 
    155 H155      -48.3742  -27.0531    6.9293 H         1 UNK         0.0791 
    156 H156      -47.2057  -26.6072    5.6930 H         1 UNK         0.0791 
    157 H157      -50.7846  -25.3782    6.7660 H         1 UNK         0.3028 
@<TRIPOS>BOND
     1    1    2 1    
     2    1   82 1    
     3    1   83 1    
     4    1   84 1    
     5    2    3 2    
     6    2    4 am   BACKBONE|DICT|INTERRES
     7    4    5 1    
     8    4   85 1    
     9    5    6 1    
    10    5   80 1    
    11    5   86 1    
    12    6    7 1    
    13    6   87 1    
    14    6   88 1    
    15    7    8 1    
    16    8    9 1    
    17    8   89 1    
    18    8   90 1    
    19    9   10 ar   
    20    9   14 ar   
    21   10   11 ar   
    22   10   91 1    
    23   11   12 ar   
    24   11   58 1    
    25   12   13 ar   
    26   12   92 1    
    27   13   14 ar   
    28   13   15 1    
    29   14   93 1    
    30   15   16 1    
    31   15   94 1    
    32   15   95 1    
    33   16   17 1    
    34   17   18 1    
    35   17   96 1    
    36   17   97 1    
    37   18   19 1    
    38   18   22 1    
    39   18   98 1    
    40   19   20 am   BACKBONE|DICT|INTERRES
    41   19   21 2    
    42   20   99 1    
    43   20  100 1    
    44   22   23 am   BACKBONE|DICT|INTERRES
    45   22  101 1    
    46   23   24 2    
    47   23   25 1    
    48   25   26 1    
    49   25   27 1    
    50   25  102 1    
    51   26  103 1    
    52   26  104 1    
    53   26  105 1    
    54   27   28 am   BACKBONE|DICT|INTERRES
    55   27  106 1    
    56   28   29 2    
    57   28   30 1    
    58   30   31 1    
    59   30   32 1    
    60   30  107 1    
    61   31  108 1    
    62   31  109 1    
    63   31  110 1    
    64   32   33 am   BACKBONE|DICT|INTERRES
    65   32  111 1    
    66   33   34 2    
    67   33   35 1    
    68   35   36 1    
    69   35   37 1    
    70   35  112 1    
    71   36  113 1    
    72   36  114 1    
    73   36  115 1    
    74   37   38 am   BACKBONE|DICT|INTERRES
    75   37  116 1    
    76   38   39 2    
    77   38   40 1    
    78   40   41 1    
    79   40   42 1    
    80   40  117 1    
    81   41  118 1    
    82   41  119 1    
    83   41  120 1    
    84   42   43 am   BACKBONE|DICT|INTERRES
    85   42  121 1    
    86   43   44 2    
    87   43   45 1    
    88   45   46 1    
    89   45   47 1    
    90   45  122 1    
    91   46  123 1    
    92   46  124 1    
    93   46  125 1    
    94   47   48 am   BACKBONE|DICT|INTERRES
    95   47  126 1    
    96   48   49 2    
    97   48   50 1    
    98   50   51 1    
    99   50   52 1    
   100   50  127 1    
   101   51  128 1    
   102   51  129 1    
   103   51  130 1    
   104   52   53 am   BACKBONE|DICT|INTERRES
   105   52  131 1    
   106   53   54 2    
   107   53   55 1    
   108   55   56 1    
   109   55   59 1    
   110   55  132 1    
   111   56   57 1    
   112   56  133 1    
   113   56  134 1    
   114   57   58 1    
   115   58  135 1    
   116   58  136 1    
   117   59   60 am   BACKBONE|DICT|INTERRES
   118   59  137 1    
   119   60   61 2    
   120   60   62 1    
   121   62   63 1    
   122   62   64 1    
   123   62  138 1    
   124   63  139 1    
   125   63  140 1    
   126   63  141 1    
   127   64   65 am   BACKBONE|DICT|INTERRES
   128   64  142 1    
   129   65   66 2    
   130   65   67 1    
   131   67   68 1    
   132   67   69 1    
   133   67  143 1    
   134   68  144 1    
   135   68  145 1    
   136   68  146 1    
   137   69   70 am   BACKBONE|DICT|INTERRES
   138   69  147 1    
   139   70   71 2    
   140   70   72 1    
   141   72   73 1    
   142   72   74 1    
   143   72  148 1    
   144   73  149 1    
   145   73  150 1    
   146   73  151 1    
   147   74   75 am   BACKBONE|DICT|INTERRES
   148   74  152 1    
   149   75   76 2    
   150   75   77 1    
   151   77   78 1    
   152   77   79 1    
   153   77  153 1    
   154   78  154 1    
   155   78  155 1    
   156   78  156 1    
   157   79   80 am   BACKBONE|DICT|INTERRES
   158   79  157 1    
   159   80   81 2    
@<TRIPOS>SUBSTRUCTURE
     1 UNK         1 GROUP             0       ****    0 ROOT    
