@<TRIPOS>MOLECULE
3R207
157   159    1
SMALL
USER_CHARGES


@<TRIPOS>ATOM
      1 CA        -48.7564  -32.7345    7.1614 C.3       0 UNK        -0.1975 
      2 C         -48.1121  -31.9104    6.0563 C.2       0 UNK         0.4852 
      3 O         -46.8954  -31.9702    5.8777 O.2       0 UNK        -0.5216 
      4 N         -48.9216  -31.1418    5.3137 N.am      1 UNK        -0.4461 
      5 CA        -48.4906  -30.2639    4.2171 C.3       1 UNK         0.0864 
      6 C6        -49.6988  -29.7939    3.3609 C.3       14 UNK        -0.0898 
      7 S7        -50.8156  -28.6076    4.1956 S.3       14 UNK        -0.2598 
      8 C8        -52.1105  -29.6828    4.8861 C.3       14 UNK         0.0286 
      9 C9        -52.4550  -29.2425    6.3000 C.ar      14 UNK        -0.0844 
     10 C10       -51.8326  -29.8406    7.4011 C.ar      14 UNK        -0.0881 
     11 C11       -52.1283  -29.4203    8.7008 C.ar      14 UNK        -0.0643 
     12 C12       -53.0538  -28.3913    8.8927 C.ar      14 UNK        -0.0930 
     13 C13       -53.6729  -27.7767    7.8005 C.ar      14 UNK        -0.0827 
     14 C14       -53.3810  -28.2159    6.5067 C.ar      14 UNK        -0.1249 
     15 C15       -54.6215  -26.6117    8.0267 C.3       14 UNK         0.0141 
     16 S16       -56.2185  -27.1820    8.6793 S.3       14 UNK        -0.2313 
     17 C17       -56.7870  -25.6895    9.5646 C.3       14 UNK        -0.0915 
     18 CA        -56.0798  -25.4777   10.9331 C.3       13 UNK         0.0968 
     19 C         -56.6774  -24.2603   11.6816 C.2       13 UNK         0.5732 
     20 N         -56.1989  -23.0579   11.3920 N.am      13 UNK        -0.7310 
     21 O         -57.5920  -24.3887   12.4944 O.2       13 UNK        -0.5035 
     22 N         -56.1368  -26.6860   11.7662 N.am      13 UNK        -0.4233 
     23 C         -55.0735  -27.3017   12.2890 C.2       13 UNK         0.4989 
     24 O         -53.9103  -26.9156   12.1529 O.2       13 UNK        -0.4996 
     25 CA        -55.3590  -28.6143   13.0390 C.3       12 UNK         0.0216 
     26 CB        -55.4256  -29.7876   12.0463 C.3       12 UNK        -0.1964 
     27 N         -54.3336  -28.8998   14.0442 N.am      12 UNK        -0.4276 
     28 C         -54.1576  -28.1946   15.1684 C.2       12 UNK         0.5020 
     29 O         -54.9265  -27.2990   15.5282 O.2       12 UNK        -0.5489 
     30 CA        -52.9363  -28.5492   16.0401 C.3       11 UNK         0.0294 
     31 CB        -51.8723  -29.4027   15.3163 C.3       11 UNK        -0.2019 
     32 N         -52.3079  -27.3162   16.5074 N.am      11 UNK        -0.4493 
     33 C         -52.5692  -26.7053   17.6706 C.2       11 UNK         0.4932 
     34 O         -53.3001  -27.1754   18.5454 O.2       11 UNK        -0.5029 
     35 CA        -51.8955  -25.3352   17.8819 C.3       10 UNK         0.0280 
     36 CB        -51.9767  -24.8290   19.3383 C.3       10 UNK        -0.1976 
     37 N         -50.5164  -25.3040   17.3840 N.am      10 UNK        -0.4242 
     38 C         -49.4772  -26.0390   17.8124 C.2       10 UNK         0.5072 
     39 O         -49.5348  -26.8174   18.7657 O.2       10 UNK        -0.5224 
     40 CA        -48.1442  -25.9142   17.0474 C.3       9 UNK         0.0343 
     41 CB        -47.8106  -27.2399   16.3415 C.3       9 UNK        -0.2003 
     42 N         -48.1244  -24.8342   16.0575 N.am      9 UNK        -0.4272 
     43 C         -48.0443  -23.5274   16.3424 C.2       9 UNK         0.4988 
     44 O         -47.9006  -23.0827   17.4816 O.2       9 UNK        -0.5108 
     45 CA        -48.1866  -22.5484   15.1630 C.3       8 UNK         0.0248 
     46 CB        -46.8228  -22.3085   14.4971 C.3       8 UNK        -0.2001 
     47 N         -49.1668  -22.9778   14.1562 N.am      8 UNK        -0.4140 
     48 C         -50.4764  -23.1529   14.3956 C.2       8 UNK         0.5028 
     49 O         -51.0003  -22.9601   15.4927 O.2       8 UNK        -0.5428 
     50 CA        -51.3456  -23.6765   13.2393 C.3       7 UNK         0.0264 
     51 CB        -51.6464  -22.5648   12.2221 C.3       7 UNK        -0.1988 
     52 N         -50.7503  -24.8268   12.5588 N.am      7 UNK        -0.4454 
     53 C         -50.5073  -26.0109   13.1414 C.2       7 UNK         0.5027 
     54 O         -50.7997  -26.2722   14.3100 O.2       7 UNK        -0.5083 
     55 CA        -49.7594  -27.0624   12.2943 C.3       6 UNK         0.0844 
     56 C56       -50.7335  -27.7661   11.3210 C.3       14 UNK        -0.0967 
     57 S57       -49.9725  -29.1655   10.4337 S.3       14 UNK        -0.2604 
     58 C58       -51.4507  -30.0819    9.8933 C.3       14 UNK         0.0134 
     59 N         -48.5967  -26.4790   11.6142 N.am      6 UNK        -0.4116 
     60 C         -47.5659  -25.8845   12.2344 C.2       5 UNK         0.5034 
     61 O         -47.4366  -25.8273   13.4557 O.2       5 UNK        -0.5045 
     62 CA        -46.5342  -25.1738   11.3487 C.3       5 UNK         0.0224 
     63 CB        -45.4899  -26.1637   10.8086 C.3       5 UNK        -0.1978 
     64 N         -47.1789  -24.4553   10.2479 N.am      5 UNK        -0.4737 
     65 C         -47.8923  -23.3310   10.4067 C.2       4 UNK         0.5027 
     66 O         -48.0362  -22.7633   11.4885 O.2       4 UNK        -0.5211 
     67 CA        -48.5925  -22.7611    9.1619 C.3       4 UNK         0.0297 
     68 CB        -47.6360  -21.8519    8.3749 C.3       4 UNK        -0.1993 
     69 N         -49.1213  -23.8015    8.2776 N.am      4 UNK        -0.4486 
     70 C         -50.1139  -24.6409    8.6047 C.2       3 UNK         0.4961 
     71 O         -50.7216  -24.6001    9.6742 O.2       3 UNK        -0.5105 
     72 CA        -50.4554  -25.7374    7.5805 C.3       3 UNK         0.0299 
     73 CB        -51.4417  -25.1936    6.5350 C.3       3 UNK        -0.1972 
     74 N         -49.2940  -26.3194    6.8947 N.am      3 UNK        -0.4305 
     75 C         -48.2131  -26.8423    7.4920 C.2       2 UNK         0.5006 
     76 O         -48.0365  -26.8430    8.7100 O.2       2 UNK        -0.5106 
     77 CA        -47.1811  -27.4956    6.5661 C.3       2 UNK         0.0296 
     78 CB        -45.8987  -27.9382    7.2972 C.3       2 UNK        -0.2002 
     79 N         -47.8172  -28.6476    5.9410 N.am      2 UNK        -0.4032 
     80 C         -47.6187  -29.0751    4.6879 C.2       1 UNK         0.5000 
     81 O         -46.8076  -28.5697    3.9091 O.2       1 UNK        -0.5238 
     82 H82       -48.5318  -32.2977    8.1344 H         1 UNK         0.0889 
     83 H83       -48.3671  -33.7523    7.1469 H         1 UNK         0.0889 
     84 H84       -49.8391  -32.7899    7.0516 H         1 UNK         0.0889 
     85 H85       -49.9141  -31.1566    5.4875 H         1 UNK         0.3028 
     86 H86       -47.8523  -30.8677    3.5680 H         1 UNK         0.0864 
     87 H87       -50.2735  -30.6536    3.0126 H         1 UNK         0.0720 
     88 H88       -49.3325  -29.3106    2.4532 H         1 UNK         0.0720 
     89 H89       -51.7953  -30.7265    4.8832 H         1 UNK         0.0814 
     90 H90       -52.9948  -29.6322    4.2489 H         1 UNK         0.0814 
     91 H91       -51.1144  -30.6326    7.2534 H         1 UNK         0.1469 
     92 H92       -53.2848  -28.0552    9.8931 H         1 UNK         0.1381 
     93 H93       -53.8521  -27.7405    5.6571 H         1 UNK         0.1206 
     94 H94       -54.7892  -26.0570    7.1023 H         1 UNK         0.0813 
     95 H95       -54.1526  -25.9145    8.7215 H         1 UNK         0.0813 
     96 H96       -57.8652  -25.7863    9.7053 H         1 UNK         0.0638 
     97 H97       -56.6414  -24.8225    8.9175 H         1 UNK         0.0638 
     98 H98       -55.0365  -25.2315   10.7300 H         1 UNK         0.0568 
     99 H99       -56.5867  -22.2537   11.8596 H         1 UNK         0.3450 
    100 H100      -55.4612  -22.9360   10.7165 H         1 UNK         0.3450 
    101 H101      -57.0631  -27.0393   11.9558 H         1 UNK         0.2987 
    102 H102      -56.3218  -28.5265   13.5473 H         1 UNK         0.0766 
    103 H103      -55.6575  -30.7252   12.5519 H         1 UNK         0.0798 
    104 H104      -54.4853  -29.9172   11.5096 H         1 UNK         0.0798 
    105 H105      -56.2028  -29.6243   11.2981 H         1 UNK         0.0798 
    106 H106      -53.6488  -29.6016   13.8074 H         1 UNK         0.3198 
    107 H107      -53.3046  -29.1238   16.8925 H         1 UNK         0.0843 
    108 H108      -51.5231  -28.9300   14.3976 H         1 UNK         0.0831 
    109 H109      -52.2568  -30.3913   15.0629 H         1 UNK         0.0831 
    110 H110      -51.0010  -29.5598   15.9527 H         1 UNK         0.0831 
    111 H111      -51.7254  -26.8353   15.8233 H         1 UNK         0.3133 
    112 H112      -52.4515  -24.6309   17.2617 H         1 UNK         0.0566 
    113 H113      -51.5012  -23.8540   19.4455 H         1 UNK         0.0814 
    114 H114      -53.0146  -24.7191   19.6549 H         1 UNK         0.0814 
    115 H115      -51.4968  -25.5160   20.0358 H         1 UNK         0.0814 
    116 H116      -50.3676  -24.6902   16.5906 H         1 UNK         0.3091 
    117 H117      -47.3648  -25.7154   17.7858 H         1 UNK         0.0702 
    118 H118      -46.8387  -27.1939   15.8500 H         1 UNK         0.0785 
    119 H119      -48.5565  -27.4900   15.5858 H         1 UNK         0.0785 
    120 H120      -47.7747  -28.0670   17.0516 H         1 UNK         0.0785 
    121 H121      -48.1594  -25.1192   15.0816 H         1 UNK         0.2998 
    122 H122      -48.5359  -21.5970   15.5692 H         1 UNK         0.0697 
    123 H123      -46.4291  -23.2201   14.0474 H         1 UNK         0.0825 
    124 H124      -46.0884  -21.9595   15.2243 H         1 UNK         0.0825 
    125 H125      -46.8898  -21.5509   13.7161 H         1 UNK         0.0825 
    126 H126      -48.8172  -23.1103   13.2099 H         1 UNK         0.3029 
    127 H127      -52.2950  -24.0085   13.6658 H         1 UNK         0.0897 
    128 H128      -52.3282  -22.9142   11.4464 H         1 UNK         0.0792 
    129 H129      -52.1172  -21.7088   12.7072 H         1 UNK         0.0792 
    130 H130      -50.7405  -22.2069   11.7326 H         1 UNK         0.0792 
    131 H131      -50.5375  -24.7134   11.5700 H         1 UNK         0.3086 
    132 H132      -49.3765  -27.8146   12.9873 H         1 UNK         0.0583 
    133 H133      -51.5951  -28.1458   11.8728 H         1 UNK         0.1020 
    134 H134      -51.1270  -27.0594   10.5896 H         1 UNK         0.1020 
    135 H135      -51.1511  -31.0981    9.6325 H         1 UNK         0.0694 
    136 H136      -52.1520  -30.1803   10.7227 H         1 UNK         0.0694 
    137 H137      -48.5881  -26.5278   10.5994 H         1 UNK         0.2989 
    138 H138      -46.0111  -24.4423   11.9684 H         1 UNK         0.1055 
    139 H139      -44.9330  -26.6195   11.6283 H         1 UNK         0.0806 
    140 H140      -44.7662  -25.6672   10.1622 H         1 UNK         0.0806 
    141 H141      -45.9473  -26.9751   10.2431 H         1 UNK         0.0806 
    142 H142      -47.1949  -24.9223    9.3507 H         1 UNK         0.3061 
    143 H143      -49.4337  -22.1551    9.5052 H         1 UNK         0.0734 
    144 H144      -48.1417  -21.3744    7.5354 H         1 UNK         0.0832 
    145 H145      -47.2462  -21.0556    9.0109 H         1 UNK         0.0832 
    146 H146      -46.7803  -22.4037    7.9839 H         1 UNK         0.0832 
    147 H147      -48.6799  -23.9102    7.3763 H         1 UNK         0.3156 
    148 H148      -50.9419  -26.5500    8.1223 H         1 UNK         0.0589 
    149 H149      -51.0043  -24.3867    5.9459 H         1 UNK         0.0808 
    150 H150      -52.3387  -24.7990    7.0138 H         1 UNK         0.0808 
    151 H151      -51.7608  -25.9745    5.8452 H         1 UNK         0.0808 
    152 H152      -49.3626  -26.3926    5.8894 H         1 UNK         0.3098 
    153 H153      -46.9129  -26.7587    5.8061 H         1 UNK         0.0720 
    154 H154      -45.4042  -27.0872    7.7665 H         1 UNK         0.0791 
    155 H155      -45.1849  -28.3875    6.6066 H         1 UNK         0.0791 
    156 H156      -46.1118  -28.6687    8.0789 H         1 UNK         0.0791 
    157 H157      -48.5254  -29.1098    6.4941 H         1 UNK         0.3028 
@<TRIPOS>BOND
     1    1    2 1    
     2    1   82 1    
     3    1   83 1    
     4    1   84 1    
     5    2    3 2    
     6    2    4 am   BACKBONE|DICT|INTERRES
     7    4    5 1    
     8    4   85 1    
     9    5    6 1    
    10    5   80 1    
    11    5   86 1    
    12    6    7 1    
    13    6   87 1    
    14    6   88 1    
    15    7    8 1    
    16    8    9 1    
    17    8   89 1    
    18    8   90 1    
    19    9   10 ar   
    20    9   14 ar   
    21   10   11 ar   
    22   10   91 1    
    23   11   12 ar   
    24   11   58 1    
    25   12   13 ar   
    26   12   92 1    
    27   13   14 ar   
    28   13   15 1    
    29   14   93 1    
    30   15   16 1    
    31   15   94 1    
    32   15   95 1    
    33   16   17 1    
    34   17   18 1    
    35   17   96 1    
    36   17   97 1    
    37   18   19 1    
    38   18   22 1    
    39   18   98 1    
    40   19   20 am   BACKBONE|DICT|INTERRES
    41   19   21 2    
    42   20   99 1    
    43   20  100 1    
    44   22   23 am   BACKBONE|DICT|INTERRES
    45   22  101 1    
    46   23   24 2    
    47   23   25 1    
    48   25   26 1    
    49   25   27 1    
    50   25  102 1    
    51   26  103 1    
    52   26  104 1    
    53   26  105 1    
    54   27   28 am   BACKBONE|DICT|INTERRES
    55   27  106 1    
    56   28   29 2    
    57   28   30 1    
    58   30   31 1    
    59   30   32 1    
    60   30  107 1    
    61   31  108 1    
    62   31  109 1    
    63   31  110 1    
    64   32   33 am   BACKBONE|DICT|INTERRES
    65   32  111 1    
    66   33   34 2    
    67   33   35 1    
    68   35   36 1    
    69   35   37 1    
    70   35  112 1    
    71   36  113 1    
    72   36  114 1    
    73   36  115 1    
    74   37   38 am   BACKBONE|DICT|INTERRES
    75   37  116 1    
    76   38   39 2    
    77   38   40 1    
    78   40   41 1    
    79   40   42 1    
    80   40  117 1    
    81   41  118 1    
    82   41  119 1    
    83   41  120 1    
    84   42   43 am   BACKBONE|DICT|INTERRES
    85   42  121 1    
    86   43   44 2    
    87   43   45 1    
    88   45   46 1    
    89   45   47 1    
    90   45  122 1    
    91   46  123 1    
    92   46  124 1    
    93   46  125 1    
    94   47   48 am   BACKBONE|DICT|INTERRES
    95   47  126 1    
    96   48   49 2    
    97   48   50 1    
    98   50   51 1    
    99   50   52 1    
   100   50  127 1    
   101   51  128 1    
   102   51  129 1    
   103   51  130 1    
   104   52   53 am   BACKBONE|DICT|INTERRES
   105   52  131 1    
   106   53   54 2    
   107   53   55 1    
   108   55   56 1    
   109   55   59 1    
   110   55  132 1    
   111   56   57 1    
   112   56  133 1    
   113   56  134 1    
   114   57   58 1    
   115   58  135 1    
   116   58  136 1    
   117   59   60 am   BACKBONE|DICT|INTERRES
   118   59  137 1    
   119   60   61 2    
   120   60   62 1    
   121   62   63 1    
   122   62   64 1    
   123   62  138 1    
   124   63  139 1    
   125   63  140 1    
   126   63  141 1    
   127   64   65 am   BACKBONE|DICT|INTERRES
   128   64  142 1    
   129   65   66 2    
   130   65   67 1    
   131   67   68 1    
   132   67   69 1    
   133   67  143 1    
   134   68  144 1    
   135   68  145 1    
   136   68  146 1    
   137   69   70 am   BACKBONE|DICT|INTERRES
   138   69  147 1    
   139   70   71 2    
   140   70   72 1    
   141   72   73 1    
   142   72   74 1    
   143   72  148 1    
   144   73  149 1    
   145   73  150 1    
   146   73  151 1    
   147   74   75 am   BACKBONE|DICT|INTERRES
   148   74  152 1    
   149   75   76 2    
   150   75   77 1    
   151   77   78 1    
   152   77   79 1    
   153   77  153 1    
   154   78  154 1    
   155   78  155 1    
   156   78  156 1    
   157   79   80 am   BACKBONE|DICT|INTERRES
   158   79  157 1    
   159   80   81 2    
@<TRIPOS>SUBSTRUCTURE
     1 UNK         1 GROUP             0       ****    0 ROOT    
