@<TRIPOS>MOLECULE
3R207
157   159    1
SMALL
USER_CHARGES


@<TRIPOS>ATOM
      1 CA        -48.8674  -21.8551    7.8416 C.3       0 UNK        -0.1975 
      2 C         -49.7302  -23.1094    7.8124 C.2       0 UNK         0.4852 
      3 O         -50.3185  -23.4616    8.8335 O.2       0 UNK        -0.5216 
      4 N         -49.7953  -23.7716    6.6492 N.am      1 UNK        -0.4461 
      5 CA        -50.6122  -24.9569    6.3590 C.3       1 UNK         0.0864 
      6 C6        -51.0304  -24.9661    4.8486 C.3       14 UNK        -0.0898 
      7 S7        -52.8223  -25.1201    4.5620 S.3       14 UNK        -0.2598 
      8 C8        -53.1393  -26.9077    4.7852 C.3       14 UNK         0.0286 
      9 C9        -53.5546  -27.3210    6.1994 C.ar      14 UNK        -0.0844 
     10 C10       -54.0854  -26.4057    7.1194 C.ar      14 UNK        -0.0881 
     11 C11       -54.4779  -26.8169    8.3942 C.ar      14 UNK        -0.0643 
     12 C12       -54.3748  -28.1646    8.7400 C.ar      14 UNK        -0.0930 
     13 C13       -53.8295  -29.0887    7.8488 C.ar      14 UNK        -0.0827 
     14 C14       -53.4321  -28.6641    6.5765 C.ar      14 UNK        -0.1249 
     15 C15       -53.6434  -30.5306    8.2932 C.3       14 UNK         0.0141 
     16 S16       -52.1248  -30.6860    9.2867 S.3       14 UNK        -0.2313 
     17 C17       -52.5814  -31.9420   10.5308 C.3       14 UNK        -0.0915 
     18 CA        -52.8436  -31.3496   11.9439 C.3       13 UNK         0.0968 
     19 C         -51.5549  -30.7859   12.6191 C.2       13 UNK         0.5732 
     20 N         -51.5553  -29.5759   13.1675 N.am      13 UNK        -0.7310 
     21 O         -50.5334  -31.4675   12.6563 O.2       13 UNK        -0.5035 
     22 N         -53.9617  -30.3981   11.9150 N.am      13 UNK        -0.4233 
     23 C         -54.8510  -30.2238   12.8959 C.2       13 UNK         0.4989 
     24 O         -54.9288  -30.9311   13.9029 O.2       13 UNK        -0.4996 
     25 CA        -55.8246  -29.0467   12.7152 C.3       12 UNK         0.0216 
     26 CB        -57.2373  -29.5514   12.3800 C.3       12 UNK        -0.1964 
     27 N         -55.8768  -28.1823   13.8962 N.am      12 UNK        -0.4276 
     28 C         -54.8236  -27.5430   14.4214 C.2       12 UNK         0.5020 
     29 O         -53.6732  -27.6209   13.9780 O.2       12 UNK        -0.5489 
     30 CA        -55.0991  -26.6859   15.6610 C.3       11 UNK         0.0294 
     31 CB        -55.1689  -27.5656   16.9246 C.3       11 UNK        -0.2019 
     32 N         -54.0166  -25.7179   15.7799 N.am      11 UNK        -0.4493 
     33 C         -53.9890  -24.6308   16.5589 C.2       11 UNK         0.4932 
     34 O         -54.9377  -24.2635   17.2546 O.2       11 UNK        -0.5029 
     35 CA        -52.6695  -23.8314   16.5608 C.3       10 UNK         0.0280 
     36 CB        -52.5159  -22.9024   17.7837 C.3       10 UNK        -0.1976 
     37 N         -51.5007  -24.7042   16.3968 N.am      10 UNK        -0.4242 
     38 C         -51.0854  -25.6755   17.2255 C.2       10 UNK         0.5072 
     39 O         -51.5574  -25.8856   18.3437 O.2       10 UNK        -0.5224 
     40 CA        -49.9768  -26.6035   16.7023 C.3       9 UNK         0.0343 
     41 CB        -50.6017  -27.8341   16.0279 C.3       9 UNK        -0.2003 
     42 N         -49.0666  -25.9440   15.7624 N.am      9 UNK        -0.4272 
     43 C         -48.1347  -25.0531   16.1314 C.2       9 UNK         0.4988 
     44 O         -47.9240  -24.7255   17.3001 O.2       9 UNK        -0.5108 
     45 CA        -47.2925  -24.4176   15.0141 C.3       8 UNK         0.0248 
     46 CB        -46.1949  -25.3871   14.5469 C.3       8 UNK        -0.2001 
     47 N         -48.0937  -23.9791   13.8689 N.am      8 UNK        -0.4140 
     48 C         -48.9955  -22.9868   13.9059 C.2       8 UNK         0.5028 
     49 O         -49.2344  -22.3134   14.9088 O.2       8 UNK        -0.5428 
     50 CA        -49.7770  -22.6980   12.6116 C.3       7 UNK         0.0264 
     51 CB        -48.9475  -21.8233   11.6584 C.3       7 UNK        -0.1988 
     52 N         -50.2189  -23.9058   11.9105 N.am      7 UNK        -0.4454 
     53 C         -51.0479  -24.8275   12.4234 C.2       7 UNK         0.5027 
     54 O         -51.5536  -24.7462   13.5434 O.2       7 UNK        -0.5083 
     55 CA        -51.2992  -26.0799   11.5624 C.3       6 UNK         0.0844 
     56 C56       -52.2953  -25.8091   10.4094 C.3       14 UNK        -0.0967 
     57 S57       -54.0311  -25.8603   10.9787 S.3       14 UNK        -0.2604 
     58 C58       -54.9649  -25.7940    9.4119 C.3       14 UNK         0.0134 
     59 N         -50.0359  -26.6607   11.0954 N.am      6 UNK        -0.4116 
     60 C         -49.1226  -27.2043   11.9166 C.2       5 UNK         0.5034 
     61 O         -49.2606  -27.2981   13.1370 O.2       5 UNK        -0.5045 
     62 CA        -47.8114  -27.6981   11.2883 C.3       5 UNK         0.0224 
     63 CB        -47.9691  -29.1474   10.8063 C.3       5 UNK        -0.1978 
     64 N         -47.3261  -26.8412   10.2008 N.am      5 UNK        -0.4737 
     65 C         -46.9694  -25.5576   10.3662 C.2       4 UNK         0.5027 
     66 O         -47.0160  -24.9873   11.4553 O.2       4 UNK        -0.5211 
     67 CA        -46.5414  -24.7413    9.1341 C.3       4 UNK         0.0297 
     68 CB        -45.3920  -23.7578    9.4405 C.3       4 UNK        -0.1993 
     69 N         -46.2779  -25.5335    7.9306 N.am      4 UNK        -0.4486 
     70 C         -45.2560  -26.3671    7.6914 C.2       3 UNK         0.4961 
     71 O         -44.3190  -26.5610    8.4670 O.2       3 UNK        -0.5105 
     72 CA        -45.3248  -27.1208    6.3454 C.3       3 UNK         0.0299 
     73 CB        -44.3705  -28.3330    6.2859 C.3       3 UNK        -0.1972 
     74 N         -46.6974  -27.5145    5.9849 N.am      3 UNK        -0.4305 
     75 C         -47.5150  -28.2940    6.7107 C.2       2 UNK         0.5006 
     76 O         -47.1937  -28.8086    7.7809 O.2       2 UNK        -0.5106 
     77 CA        -48.9410  -28.4779    6.1626 C.3       2 UNK         0.0296 
     78 CB        -49.7940  -29.4275    7.0245 C.3       2 UNK        -0.2002 
     79 N         -49.6353  -27.1992    5.9571 N.am      2 UNK        -0.4032 
     80 C         -49.8999  -26.2416    6.8635 C.2       1 UNK         0.5000 
     81 O         -49.5887  -26.3330    8.0545 O.2       1 UNK        -0.5238 
     82 H82       -49.4947  -20.9775    7.9949 H         1 UNK         0.0889 
     83 H83       -48.3130  -21.7177    6.9135 H         1 UNK         0.0889 
     84 H84       -48.1490  -21.9021    8.6588 H         1 UNK         0.0889 
     85 H85       -49.2576  -23.4223    5.8691 H         1 UNK         0.3028 
     86 H86       -51.5174  -24.8753    6.9647 H         1 UNK         0.0864 
     87 H87       -50.7741  -24.0082    4.3923 H         1 UNK         0.0720 
     88 H88       -50.5022  -25.6826    4.2210 H         1 UNK         0.0720 
     89 H89       -53.9453  -27.1918    4.1075 H         1 UNK         0.0814 
     90 H90       -52.2634  -27.4749    4.4681 H         1 UNK         0.0814 
     91 H91       -54.1921  -25.3632    6.8572 H         1 UNK         0.1469 
     92 H92       -54.6777  -28.4828    9.7248 H         1 UNK         0.1381 
     93 H93       -53.0214  -29.3816    5.8794 H         1 UNK         0.1206 
     94 H94       -54.5132  -30.8463    8.8711 H         1 UNK         0.0813 
     95 H95       -53.5831  -31.1989    7.4330 H         1 UNK         0.0813 
     96 H96       -53.4615  -32.4888   10.1898 H         1 UNK         0.0638 
     97 H97       -51.7817  -32.6835   10.5720 H         1 UNK         0.0638 
     98 H98       -53.1369  -32.1905   12.5746 H         1 UNK         0.0568 
     99 H99       -50.7003  -29.2202   13.5647 H         1 UNK         0.3450 
    100 H100      -52.3966  -29.0123   13.2213 H         1 UNK         0.3450 
    101 H101      -53.9384  -29.7463   11.1469 H         1 UNK         0.2987 
    102 H102      -55.4809  -28.4256   11.8870 H         1 UNK         0.0766 
    103 H103      -57.9199  -28.7241   12.1841 H         1 UNK         0.0798 
    104 H104      -57.6553  -30.1489   13.1914 H         1 UNK         0.0798 
    105 H105      -57.2258  -30.1778   11.4869 H         1 UNK         0.0798 
    106 H106      -56.7747  -28.0914   14.3488 H         1 UNK         0.3198 
    107 H107      -56.0406  -26.1506   15.5217 H         1 UNK         0.0843 
    108 H108      -54.2281  -28.0903   17.0973 H         1 UNK         0.0831 
    109 H109      -55.9523  -28.3194   16.8386 H         1 UNK         0.0831 
    110 H110      -55.3886  -26.9746   17.8137 H         1 UNK         0.0831 
    111 H111      -53.2250  -25.9244   15.1782 H         1 UNK         0.3133 
    112 H112      -52.6967  -23.2001   15.6715 H         1 UNK         0.0566 
    113 H113      -51.5690  -22.3632   17.7536 H         1 UNK         0.0814 
    114 H114      -53.3122  -22.1578   17.8091 H         1 UNK         0.0814 
    115 H115      -52.5597  -23.4543   18.7229 H         1 UNK         0.0814 
    116 H116      -51.0876  -24.6724   15.4691 H         1 UNK         0.3091 
    117 H117      -49.3964  -26.9460   17.5617 H         1 UNK         0.0702 
    118 H118      -51.2699  -28.3610   16.7104 H         1 UNK         0.0785 
    119 H119      -51.1882  -27.5513   15.1530 H         1 UNK         0.0785 
    120 H120      -49.8379  -28.5426   15.7073 H         1 UNK         0.0785 
    121 H121      -49.1530  -26.2038   14.7833 H         1 UNK         0.2998 
    122 H122      -46.8042  -23.5342   15.4308 H         1 UNK         0.0697 
    123 H123      -46.6162  -26.2797   14.0836 H         1 UNK         0.0825 
    124 H124      -45.5775  -25.7132   15.3849 H         1 UNK         0.0825 
    125 H125      -45.5326  -24.9153   13.8208 H         1 UNK         0.0825 
    126 H126      -47.9002  -24.4343   12.9780 H         1 UNK         0.3029 
    127 H127      -50.6727  -22.1395   12.8918 H         1 UNK         0.0897 
    128 H128      -49.5415  -21.5033   10.8024 H         1 UNK         0.0792 
    129 H129      -48.0712  -22.3530   11.2830 H         1 UNK         0.0792 
    130 H130      -48.5950  -20.9217   12.1612 H         1 UNK         0.0792 
    131 H131      -49.8928  -24.0267   10.9588 H         1 UNK         0.3086 
    132 H132      -51.7462  -26.8321   12.2157 H         1 UNK         0.0583 
    133 H133      -52.1084  -24.8561    9.9151 H         1 UNK         0.1020 
    134 H134      -52.1617  -26.5722    9.6418 H         1 UNK         0.1020 
    135 H135      -56.0207  -25.9713    9.6201 H         1 UNK         0.0694 
    136 H136      -54.8924  -24.7820    9.0107 H         1 UNK         0.0694 
    137 H137      -49.8305  -26.5946   10.1026 H         1 UNK         0.2989 
    138 H138      -47.0525  -27.6868   12.0732 H         1 UNK         0.1055 
    139 H139      -48.2918  -29.7973   11.6212 H         1 UNK         0.0806 
    140 H140      -47.0279  -29.5457   10.4273 H         1 UNK         0.0806 
    141 H141      -48.7137  -29.2301   10.0143 H         1 UNK         0.0806 
    142 H142      -47.2913  -27.2537    9.2747 H         1 UNK         0.3061 
    143 H143      -47.4137  -24.1416    8.8930 H         1 UNK         0.0734 
    144 H144      -45.1267  -23.1689    8.5627 H         1 UNK         0.0832 
    145 H145      -45.6768  -23.0554   10.2249 H         1 UNK         0.0832 
    146 H146      -44.4961  -24.2750    9.7843 H         1 UNK         0.0832 
    147 H147      -47.0048  -25.4965    7.2309 H         1 UNK         0.3156 
    148 H148      -44.9991  -26.4100    5.5844 H         1 UNK         0.0589 
    149 H149      -44.5960  -29.0652    7.0620 H         1 UNK         0.0808 
    150 H150      -44.4287  -28.8375    5.3215 H         1 UNK         0.0808 
    151 H151      -43.3344  -28.0221    6.4255 H         1 UNK         0.0808 
    152 H152      -47.0498  -27.1332    5.1174 H         1 UNK         0.3098 
    153 H153      -48.8320  -28.9407    5.1806 H         1 UNK         0.0720 
    154 H154      -50.7443  -29.6500    6.5430 H         1 UNK         0.0791 
    155 H155      -50.0081  -28.9997    8.0038 H         1 UNK         0.0791 
    156 H156      -49.2875  -30.3794    7.1880 H         1 UNK         0.0791 
    157 H157      -49.9211  -27.0224    5.0052 H         1 UNK         0.3028 
@<TRIPOS>BOND
     1    1    2 1    
     2    1   82 1    
     3    1   83 1    
     4    1   84 1    
     5    2    3 2    
     6    2    4 am   BACKBONE|DICT|INTERRES
     7    4    5 1    
     8    4   85 1    
     9    5    6 1    
    10    5   80 1    
    11    5   86 1    
    12    6    7 1    
    13    6   87 1    
    14    6   88 1    
    15    7    8 1    
    16    8    9 1    
    17    8   89 1    
    18    8   90 1    
    19    9   10 ar   
    20    9   14 ar   
    21   10   11 ar   
    22   10   91 1    
    23   11   12 ar   
    24   11   58 1    
    25   12   13 ar   
    26   12   92 1    
    27   13   14 ar   
    28   13   15 1    
    29   14   93 1    
    30   15   16 1    
    31   15   94 1    
    32   15   95 1    
    33   16   17 1    
    34   17   18 1    
    35   17   96 1    
    36   17   97 1    
    37   18   19 1    
    38   18   22 1    
    39   18   98 1    
    40   19   20 am   BACKBONE|DICT|INTERRES
    41   19   21 2    
    42   20   99 1    
    43   20  100 1    
    44   22   23 am   BACKBONE|DICT|INTERRES
    45   22  101 1    
    46   23   24 2    
    47   23   25 1    
    48   25   26 1    
    49   25   27 1    
    50   25  102 1    
    51   26  103 1    
    52   26  104 1    
    53   26  105 1    
    54   27   28 am   BACKBONE|DICT|INTERRES
    55   27  106 1    
    56   28   29 2    
    57   28   30 1    
    58   30   31 1    
    59   30   32 1    
    60   30  107 1    
    61   31  108 1    
    62   31  109 1    
    63   31  110 1    
    64   32   33 am   BACKBONE|DICT|INTERRES
    65   32  111 1    
    66   33   34 2    
    67   33   35 1    
    68   35   36 1    
    69   35   37 1    
    70   35  112 1    
    71   36  113 1    
    72   36  114 1    
    73   36  115 1    
    74   37   38 am   BACKBONE|DICT|INTERRES
    75   37  116 1    
    76   38   39 2    
    77   38   40 1    
    78   40   41 1    
    79   40   42 1    
    80   40  117 1    
    81   41  118 1    
    82   41  119 1    
    83   41  120 1    
    84   42   43 am   BACKBONE|DICT|INTERRES
    85   42  121 1    
    86   43   44 2    
    87   43   45 1    
    88   45   46 1    
    89   45   47 1    
    90   45  122 1    
    91   46  123 1    
    92   46  124 1    
    93   46  125 1    
    94   47   48 am   BACKBONE|DICT|INTERRES
    95   47  126 1    
    96   48   49 2    
    97   48   50 1    
    98   50   51 1    
    99   50   52 1    
   100   50  127 1    
   101   51  128 1    
   102   51  129 1    
   103   51  130 1    
   104   52   53 am   BACKBONE|DICT|INTERRES
   105   52  131 1    
   106   53   54 2    
   107   53   55 1    
   108   55   56 1    
   109   55   59 1    
   110   55  132 1    
   111   56   57 1    
   112   56  133 1    
   113   56  134 1    
   114   57   58 1    
   115   58  135 1    
   116   58  136 1    
   117   59   60 am   BACKBONE|DICT|INTERRES
   118   59  137 1    
   119   60   61 2    
   120   60   62 1    
   121   62   63 1    
   122   62   64 1    
   123   62  138 1    
   124   63  139 1    
   125   63  140 1    
   126   63  141 1    
   127   64   65 am   BACKBONE|DICT|INTERRES
   128   64  142 1    
   129   65   66 2    
   130   65   67 1    
   131   67   68 1    
   132   67   69 1    
   133   67  143 1    
   134   68  144 1    
   135   68  145 1    
   136   68  146 1    
   137   69   70 am   BACKBONE|DICT|INTERRES
   138   69  147 1    
   139   70   71 2    
   140   70   72 1    
   141   72   73 1    
   142   72   74 1    
   143   72  148 1    
   144   73  149 1    
   145   73  150 1    
   146   73  151 1    
   147   74   75 am   BACKBONE|DICT|INTERRES
   148   74  152 1    
   149   75   76 2    
   150   75   77 1    
   151   77   78 1    
   152   77   79 1    
   153   77  153 1    
   154   78  154 1    
   155   78  155 1    
   156   78  156 1    
   157   79   80 am   BACKBONE|DICT|INTERRES
   158   79  157 1    
   159   80   81 2    
@<TRIPOS>SUBSTRUCTURE
     1 UNK         1 GROUP             0       ****    0 ROOT    
