@<TRIPOS>MOLECULE
3R207
157   159    1
SMALL
USER_CHARGES


@<TRIPOS>ATOM
      1 CA        -47.0260  -32.4720    5.2939 C.3       0 UNK        -0.1975 
      2 C         -47.0190  -31.2809    4.3472 C.2       0 UNK         0.4852 
      3 O         -45.9633  -30.9178    3.8280 O.2       0 UNK        -0.5216 
      4 N         -48.1910  -30.6705    4.1210 N.am      1 UNK        -0.4461 
      5 CA        -48.3808  -29.4998    3.2527 C.3       1 UNK         0.0864 
      6 C6        -49.8797  -29.2951    2.8930 C.3       14 UNK        -0.0898 
      7 S7        -50.9179  -28.6259    4.2431 S.3       14 UNK        -0.2598 
      8 C8        -51.5670  -30.1317    5.0263 C.3       14 UNK         0.0286 
      9 C9        -51.8903  -29.8612    6.4862 C.ar      14 UNK        -0.0844 
     10 C10       -50.8751  -29.8928    7.4478 C.ar      14 UNK        -0.0881 
     11 C11       -51.1464  -29.6182    8.7925 C.ar      14 UNK        -0.0643 
     12 C12       -52.4662  -29.3278    9.1663 C.ar      14 UNK        -0.0930 
     13 C13       -53.4871  -29.2804    8.2119 C.ar      14 UNK        -0.0827 
     14 C14       -53.1952  -29.5508    6.8735 C.ar      14 UNK        -0.1249 
     15 C15       -54.8995  -28.9052    8.6273 C.3       14 UNK         0.0141 
     16 S16       -55.0375  -27.1049    8.8372 S.3       14 UNK        -0.2313 
     17 C17       -56.7902  -26.9152    9.3177 C.3       14 UNK        -0.0915 
     18 CA        -57.0419  -26.9362   10.8523 C.3       13 UNK         0.0968 
     19 C         -57.1684  -28.3879   11.4037 C.2       13 UNK         0.5732 
     20 N         -56.3060  -28.8524   12.3001 N.am      13 UNK        -0.7310 
     21 O         -58.0813  -29.1100   11.0098 O.2       13 UNK        -0.5035 
     22 N         -56.0867  -26.0776   11.5659 N.am      13 UNK        -0.4233 
     23 C         -56.2505  -25.5969   12.8010 C.2       13 UNK         0.4989 
     24 O         -57.2870  -25.7045   13.4599 O.2       13 UNK        -0.4996 
     25 CA        -55.0255  -24.8991   13.4155 C.3       12 UNK         0.0216 
     26 CB        -55.3326  -23.4311   13.7561 C.3       12 UNK        -0.1964 
     27 N         -54.5590  -25.5937   14.6174 N.am      12 UNK        -0.4276 
     28 C         -54.1495  -26.8702   14.6650 C.2       12 UNK         0.5020 
     29 O         -54.1085  -27.6064   13.6773 O.2       12 UNK        -0.5489 
     30 CA        -53.6818  -27.3897   16.0348 C.3       11 UNK         0.0294 
     31 CB        -52.9153  -28.7219   15.9289 C.3       11 UNK        -0.2019 
     32 N         -52.8109  -26.3920   16.6522 N.am      11 UNK        -0.4493 
     33 C         -53.0589  -25.7183   17.7813 C.2       11 UNK         0.4932 
     34 O         -54.0571  -25.9045   18.4788 O.2       11 UNK        -0.5029 
     35 CA        -52.0486  -24.6207   18.1696 C.3       10 UNK         0.0280 
     36 CB        -52.0573  -24.2928   19.6784 C.3       10 UNK        -0.1976 
     37 N         -50.6887  -24.8763   17.6789 N.am      10 UNK        -0.4242 
     38 C         -49.8457  -25.8491   18.0641 C.2       10 UNK         0.5072 
     39 O         -50.1112  -26.6710   18.9427 O.2       10 UNK        -0.5224 
     40 CA        -48.4749  -25.9441   17.3584 C.3       9 UNK         0.0343 
     41 CB        -48.2613  -27.3451   16.7582 C.3       9 UNK        -0.2003 
     42 N         -48.2800  -24.9441   16.3050 N.am      9 UNK        -0.4272 
     43 C         -47.9563  -23.6596   16.5078 C.2       9 UNK         0.4988 
     44 O         -47.7008  -23.1855   17.6149 O.2       9 UNK        -0.5108 
     45 CA        -47.9613  -22.7355   15.2757 C.3       8 UNK         0.0248 
     46 CB        -46.5728  -22.7120   14.6175 C.3       8 UNK        -0.2001 
     47 N         -48.9784  -23.0916   14.2777 N.am      8 UNK        -0.4140 
     48 C         -50.3019  -23.0865   14.5005 C.2       8 UNK         0.5028 
     49 O         -50.8113  -22.7410   15.5666 O.2       8 UNK        -0.5428 
     50 CA        -51.2109  -23.6249   13.3808 C.3       7 UNK         0.0264 
     51 CB        -51.4281  -22.5730   12.2835 C.3       7 UNK        -0.1988 
     52 N         -50.7186  -24.8747   12.7933 N.am      7 UNK        -0.4454 
     53 C         -50.5483  -26.0108   13.4868 C.2       7 UNK         0.5027 
     54 O         -50.8275  -26.1221   14.6802 O.2       7 UNK        -0.5083 
     55 CA        -49.9052  -27.2047   12.7557 C.3       6 UNK         0.0844 
     56 C56       -50.9479  -27.9906   11.9268 C.3       14 UNK        -0.0967 
     57 S57       -50.3870  -29.6862   11.5479 S.3       14 UNK        -0.2604 
     58 C58       -49.9691  -29.5910    9.7734 C.3       14 UNK         0.0134 
     59 N         -48.7565  -26.7705   11.9574 N.am      6 UNK        -0.4116 
     60 C         -47.6182  -26.2847   12.4730 C.2       5 UNK         0.5034 
     61 O         -47.3785  -26.2257   13.6785 O.2       5 UNK        -0.5045 
     62 CA        -46.5984  -25.7167   11.4748 C.3       5 UNK         0.0224 
     63 CB        -45.7255  -26.8372   10.8878 C.3       5 UNK        -0.1978 
     64 N         -47.2479  -24.9649   10.3964 N.am      5 UNK        -0.4737 
     65 C         -47.8433  -23.7748   10.5756 C.2       4 UNK         0.5027 
     66 O         -47.8666  -23.1870   11.6550 O.2       4 UNK        -0.5211 
     67 CA        -48.5681  -23.1422    9.3733 C.3       4 UNK         0.0297 
     68 CB        -47.6083  -22.2318    8.5920 C.3       4 UNK        -0.1993 
     69 N         -49.1597  -24.1213    8.4614 N.am      4 UNK        -0.4486 
     70 C         -50.0788  -25.0376    8.7967 C.2       3 UNK         0.4961 
     71 O         -50.6014  -25.1070    9.9099 O.2       3 UNK        -0.5105 
     72 CA        -50.4196  -26.0971    7.7326 C.3       3 UNK         0.0299 
     73 CB        -51.7053  -25.7213    6.9818 C.3       3 UNK        -0.1972 
     74 N         -49.3415  -26.3655    6.7674 N.am      3 UNK        -0.4305 
     75 C         -48.1000  -26.7650    7.0833 C.2       2 UNK         0.5006 
     76 O         -47.7213  -26.9553    8.2396 O.2       2 UNK        -0.5106 
     77 CA        -47.1372  -26.9944    5.9116 C.3       2 UNK         0.0296 
     78 CB        -45.6871  -27.2496    6.3667 C.3       2 UNK        -0.2002 
     79 N         -47.6171  -28.1406    5.1506 N.am      2 UNK        -0.4032 
     80 C         -47.7322  -28.2131    3.8181 C.2       1 UNK         0.5000 
     81 O         -47.3726  -27.3223    3.0457 O.2       1 UNK        -0.5238 
     82 H82       -48.0228  -32.6818    5.6812 H         1 UNK         0.0889 
     83 H83       -46.3666  -32.2817    6.1404 H         1 UNK         0.0889 
     84 H84       -46.6689  -33.3627    4.7777 H         1 UNK         0.0889 
     85 H85       -49.0259  -31.0341    4.5542 H         1 UNK         0.3028 
     86 H86       -47.8564  -29.7167    2.3192 H         1 UNK         0.0864 
     87 H87       -50.3145  -30.2272    2.5283 H         1 UNK         0.0720 
     88 H88       -49.9548  -28.5982    2.0563 H         1 UNK         0.0720 
     89 H89       -50.8460  -30.9457    4.9588 H         1 UNK         0.0814 
     90 H90       -52.4551  -30.4643    4.4866 H         1 UNK         0.0814 
     91 H91       -49.8608  -30.1090    7.1434 H         1 UNK         0.1469 
     92 H92       -52.7145  -29.1069   10.1934 H         1 UNK         0.1381 
     93 H93       -53.9799  -29.5036    6.1307 H         1 UNK         0.1206 
     94 H94       -55.6231  -29.2435    7.8841 H         1 UNK         0.0813 
     95 H95       -55.1501  -29.4099    9.5607 H         1 UNK         0.0813 
     96 H96       -57.3998  -27.6560    8.7967 H         1 UNK         0.0638 
     97 H97       -57.1169  -25.9514    8.9248 H         1 UNK         0.0638 
     98 H98       -58.0293  -26.4979   11.0093 H         1 UNK         0.0568 
     99 H99       -56.4186  -29.7932   12.6398 H         1 UNK         0.3450 
    100 H100      -55.5415  -28.2827   12.6539 H         1 UNK         0.3450 
    101 H101      -55.1928  -25.9706   11.1089 H         1 UNK         0.2987 
    102 H102      -54.2072  -24.9149   12.6920 H         1 UNK         0.0766 
    103 H103      -55.6582  -22.8864   12.8688 H         1 UNK         0.0798 
    104 H104      -54.4539  -22.9167   14.1451 H         1 UNK         0.0798 
    105 H105      -56.1269  -23.3464   14.4991 H         1 UNK         0.0798 
    106 H106      -54.5866  -25.0741   15.4821 H         1 UNK         0.3198 
    107 H107      -54.5766  -27.5544   16.6383 H         1 UNK         0.0843 
    108 H108      -52.5850  -29.0670   16.9086 H         1 UNK         0.0831 
    109 H109      -52.0344  -28.6294   15.2921 H         1 UNK         0.0831 
    110 H110      -53.5457  -29.5041   15.5040 H         1 UNK         0.0831 
    111 H111      -51.9813  -26.1583   16.1066 H         1 UNK         0.3133 
    112 H112      -52.3801  -23.7228   17.6466 H         1 UNK         0.0566 
    113 H113      -51.3351  -23.5128   19.9193 H         1 UNK         0.0814 
    114 H114      -51.8244  -25.1671   20.2867 H         1 UNK         0.0814 
    115 H115      -53.0373  -23.9330   19.9939 H         1 UNK         0.0814 
    116 H116      -50.3926  -24.2599   16.9292 H         1 UNK         0.3091 
    117 H117      -47.7124  -25.7892   18.1244 H         1 UNK         0.0702 
    118 H118      -47.2840  -27.4285   16.2824 H         1 UNK         0.0785 
    119 H119      -49.0183  -27.5838   16.0112 H         1 UNK         0.0785 
    120 H120      -48.3114  -28.1153   17.5289 H         1 UNK         0.0785 
    121 H121      -48.4251  -25.2622   15.3537 H         1 UNK         0.2998 
    122 H122      -48.1879  -21.7265   15.6259 H         1 UNK         0.0697 
    123 H123      -46.3019  -23.6882   14.2142 H         1 UNK         0.0825 
    124 H124      -45.8029  -22.4299   15.3368 H         1 UNK         0.0825 
    125 H125      -46.5330  -21.9903   13.8014 H         1 UNK         0.0825 
    126 H126      -48.6372  -23.3287   13.3479 H         1 UNK         0.3029 
    127 H127      -52.1799  -23.8449   13.8318 H         1 UNK         0.0897 
    128 H128      -50.4886  -22.2733   11.8207 H         1 UNK         0.0792 
    129 H129      -51.8886  -21.6738   12.6948 H         1 UNK         0.0792 
    130 H130      -52.0866  -22.9460   11.4987 H         1 UNK         0.0792 
    131 H131      -50.5171  -24.8727   11.7956 H         1 UNK         0.3086 
    132 H132      -49.5270  -27.8712   13.5342 H         1 UNK         0.0583 
    133 H133      -51.8793  -28.0964   12.4848 H         1 UNK         0.1020 
    134 H134      -51.2070  -27.4545   11.0126 H         1 UNK         0.1020 
    135 H135      -49.3770  -28.6927    9.5969 H         1 UNK         0.0694 
    136 H136      -49.3127  -30.4341    9.5531 H         1 UNK         0.0694 
    137 H137      -48.8781  -26.7476   10.9556 H         1 UNK         0.2989 
    138 H138      -45.9467  -25.0310   12.0212 H         1 UNK         0.1055 
    139 H139      -45.1677  -27.3458   11.6752 H         1 UNK         0.0806 
    140 H140      -46.3212  -27.5929   10.3747 H         1 UNK         0.0806 
    141 H141      -44.9984  -26.4445   10.1768 H         1 UNK         0.0806 
    142 H142      -47.3179  -25.4292    9.4960 H         1 UNK         0.3061 
    143 H143      -49.3805  -22.5265    9.7624 H         1 UNK         0.0734 
    144 H144      -46.7845  -22.7948    8.1514 H         1 UNK         0.0832 
    145 H145      -48.1241  -21.7040    7.7896 H         1 UNK         0.0832 
    146 H146      -47.1719  -21.4750    9.2457 H         1 UNK         0.0832 
    147 H147      -48.7944  -24.1443    7.5210 H         1 UNK         0.3156 
    148 H148      -50.6101  -27.0237    8.2709 H         1 UNK         0.0589 
    149 H149      -52.0370  -26.5352    6.3364 H         1 UNK         0.0808 
    150 H150      -52.5188  -25.5194    7.6803 H         1 UNK         0.0808 
    151 H151      -51.5720  -24.8310    6.3666 H         1 UNK         0.0808 
    152 H152      -49.5802  -26.2683    5.7903 H         1 UNK         0.3098 
    153 H153      -47.1536  -26.0920    5.2969 H         1 UNK         0.0720 
    154 H154      -45.6086  -28.1449    6.9849 H         1 UNK         0.0791 
    155 H155      -45.3082  -26.4120    6.9539 H         1 UNK         0.0791 
    156 H156      -45.0222  -27.3753    5.5121 H         1 UNK         0.0791 
    157 H157      -47.9640  -28.9163    5.6956 H         1 UNK         0.3028 
@<TRIPOS>BOND
     1    1    2 1    
     2    1   82 1    
     3    1   83 1    
     4    1   84 1    
     5    2    3 2    
     6    2    4 am   BACKBONE|DICT|INTERRES
     7    4    5 1    
     8    4   85 1    
     9    5    6 1    
    10    5   80 1    
    11    5   86 1    
    12    6    7 1    
    13    6   87 1    
    14    6   88 1    
    15    7    8 1    
    16    8    9 1    
    17    8   89 1    
    18    8   90 1    
    19    9   10 ar   
    20    9   14 ar   
    21   10   11 ar   
    22   10   91 1    
    23   11   12 ar   
    24   11   58 1    
    25   12   13 ar   
    26   12   92 1    
    27   13   14 ar   
    28   13   15 1    
    29   14   93 1    
    30   15   16 1    
    31   15   94 1    
    32   15   95 1    
    33   16   17 1    
    34   17   18 1    
    35   17   96 1    
    36   17   97 1    
    37   18   19 1    
    38   18   22 1    
    39   18   98 1    
    40   19   20 am   BACKBONE|DICT|INTERRES
    41   19   21 2    
    42   20   99 1    
    43   20  100 1    
    44   22   23 am   BACKBONE|DICT|INTERRES
    45   22  101 1    
    46   23   24 2    
    47   23   25 1    
    48   25   26 1    
    49   25   27 1    
    50   25  102 1    
    51   26  103 1    
    52   26  104 1    
    53   26  105 1    
    54   27   28 am   BACKBONE|DICT|INTERRES
    55   27  106 1    
    56   28   29 2    
    57   28   30 1    
    58   30   31 1    
    59   30   32 1    
    60   30  107 1    
    61   31  108 1    
    62   31  109 1    
    63   31  110 1    
    64   32   33 am   BACKBONE|DICT|INTERRES
    65   32  111 1    
    66   33   34 2    
    67   33   35 1    
    68   35   36 1    
    69   35   37 1    
    70   35  112 1    
    71   36  113 1    
    72   36  114 1    
    73   36  115 1    
    74   37   38 am   BACKBONE|DICT|INTERRES
    75   37  116 1    
    76   38   39 2    
    77   38   40 1    
    78   40   41 1    
    79   40   42 1    
    80   40  117 1    
    81   41  118 1    
    82   41  119 1    
    83   41  120 1    
    84   42   43 am   BACKBONE|DICT|INTERRES
    85   42  121 1    
    86   43   44 2    
    87   43   45 1    
    88   45   46 1    
    89   45   47 1    
    90   45  122 1    
    91   46  123 1    
    92   46  124 1    
    93   46  125 1    
    94   47   48 am   BACKBONE|DICT|INTERRES
    95   47  126 1    
    96   48   49 2    
    97   48   50 1    
    98   50   51 1    
    99   50   52 1    
   100   50  127 1    
   101   51  128 1    
   102   51  129 1    
   103   51  130 1    
   104   52   53 am   BACKBONE|DICT|INTERRES
   105   52  131 1    
   106   53   54 2    
   107   53   55 1    
   108   55   56 1    
   109   55   59 1    
   110   55  132 1    
   111   56   57 1    
   112   56  133 1    
   113   56  134 1    
   114   57   58 1    
   115   58  135 1    
   116   58  136 1    
   117   59   60 am   BACKBONE|DICT|INTERRES
   118   59  137 1    
   119   60   61 2    
   120   60   62 1    
   121   62   63 1    
   122   62   64 1    
   123   62  138 1    
   124   63  139 1    
   125   63  140 1    
   126   63  141 1    
   127   64   65 am   BACKBONE|DICT|INTERRES
   128   64  142 1    
   129   65   66 2    
   130   65   67 1    
   131   67   68 1    
   132   67   69 1    
   133   67  143 1    
   134   68  144 1    
   135   68  145 1    
   136   68  146 1    
   137   69   70 am   BACKBONE|DICT|INTERRES
   138   69  147 1    
   139   70   71 2    
   140   70   72 1    
   141   72   73 1    
   142   72   74 1    
   143   72  148 1    
   144   73  149 1    
   145   73  150 1    
   146   73  151 1    
   147   74   75 am   BACKBONE|DICT|INTERRES
   148   74  152 1    
   149   75   76 2    
   150   75   77 1    
   151   77   78 1    
   152   77   79 1    
   153   77  153 1    
   154   78  154 1    
   155   78  155 1    
   156   78  156 1    
   157   79   80 am   BACKBONE|DICT|INTERRES
   158   79  157 1    
   159   80   81 2    
@<TRIPOS>SUBSTRUCTURE
     1 UNK         1 GROUP             0       ****    0 ROOT    
