@<TRIPOS>MOLECULE
3R207
157   159    1
SMALL
USER_CHARGES


@<TRIPOS>ATOM
      1 CA        -45.9610  -29.7772    6.7170 C.3       0 UNK        -0.1975 
      2 C         -46.6290  -28.6885    5.8917 C.2       0 UNK         0.4852 
      3 O         -46.0260  -28.1738    4.9480 O.2       0 UNK        -0.5216 
      4 N         -47.8755  -28.3439    6.2380 N.am      1 UNK        -0.4461 
      5 CA        -48.6347  -27.2459    5.6280 C.3       1 UNK         0.0864 
      6 C6        -50.1574  -27.3915    5.8745 C.3       14 UNK        -0.0898 
      7 S7        -50.8428  -28.7887    4.9244 S.3       14 UNK        -0.2598 
      8 C8        -52.4182  -29.0945    5.7980 C.3       14 UNK         0.0286 
      9 C9        -52.2973  -29.7019    7.1973 C.ar      14 UNK        -0.0844 
     10 C10       -51.1290  -30.3253    7.6535 C.ar      14 UNK        -0.0881 
     11 C11       -51.0540  -30.8504    8.9460 C.ar      14 UNK        -0.0643 
     12 C12       -52.1773  -30.7932    9.7786 C.ar      14 UNK        -0.0930 
     13 C13       -53.3620  -30.2046    9.3266 C.ar      14 UNK        -0.0827 
     14 C14       -53.4096  -29.6532    8.0430 C.ar      14 UNK        -0.1249 
     15 C15       -54.6068  -30.1907   10.2013 C.3       14 UNK         0.0141 
     16 S16       -54.7686  -28.6308   11.1235 S.3       14 UNK        -0.2313 
     17 C17       -56.5235  -28.7019   11.6263 C.3       14 UNK        -0.0915 
     18 CA        -56.7689  -29.1145   13.1022 C.3       13 UNK         0.0968 
     19 C         -56.4042  -30.6009   13.3848 C.2       13 UNK         0.5732 
     20 N         -57.1510  -31.5369   12.8142 N.am      13 UNK        -0.7310 
     21 O         -55.4483  -30.9184   14.0888 O.2       13 UNK        -0.5035 
     22 N         -56.1744  -28.1505   14.0395 N.am      13 UNK        -0.4233 
     23 C         -56.4836  -28.0626   15.3405 C.2       13 UNK         0.4989 
     24 O         -57.3183  -28.7793   15.8952 O.2       13 UNK        -0.4996 
     25 CA        -55.7793  -26.9748   16.1694 C.3       12 UNK         0.0216 
     26 CB        -54.6714  -27.5664   17.0568 C.3       12 UNK        -0.1964 
     27 N         -55.2192  -25.8931   15.3575 N.am      12 UNK        -0.4276 
     28 C         -55.9167  -24.8424   14.9022 C.2       12 UNK         0.5020 
     29 O         -57.1330  -24.7144   15.0555 O.2       12 UNK        -0.5489 
     30 CA        -55.1107  -23.7470   14.1718 C.3       11 UNK         0.0294 
     31 CB        -55.8393  -22.3875   14.1244 C.3       11 UNK        -0.2019 
     32 N         -53.7531  -23.6012   14.7115 N.am      11 UNK        -0.4493 
     33 C         -53.3934  -23.2771   15.9646 C.2       11 UNK         0.4932 
     34 O         -54.1790  -22.8866   16.8283 O.2       11 UNK        -0.5029 
     35 CA        -51.9122  -23.4695   16.3405 C.3       10 UNK         0.0280 
     36 CB        -51.7716  -24.5910   17.3846 C.3       10 UNK        -0.1976 
     37 N         -51.0866  -23.8151   15.1816 N.am      10 UNK        -0.4242 
     38 C         -50.3899  -22.9393   14.4452 C.2       10 UNK         0.5072 
     39 O         -50.3024  -21.7383   14.7026 O.2       10 UNK        -0.5224 
     40 CA        -49.6855  -23.4972   13.1960 C.3       9 UNK         0.0343 
     41 CB        -48.2649  -23.9648   13.5525 C.3       9 UNK        -0.2003 
     42 N         -50.4203  -24.5999   12.5660 N.am      9 UNK        -0.4272 
     43 C         -51.6184  -24.4712   11.9712 C.2       9 UNK         0.4988 
     44 O         -52.1977  -23.3945   11.8405 O.2       9 UNK        -0.5108 
     45 CA        -52.3222  -25.7487   11.4749 C.3       8 UNK         0.0248 
     46 CB        -52.0436  -25.9644    9.9772 C.3       8 UNK        -0.2001 
     47 N         -51.9481  -26.9598   12.2047 N.am      8 UNK        -0.4140 
     48 C         -52.0605  -27.1672   13.5242 C.2       8 UNK         0.5028 
     49 O         -52.6034  -26.3777   14.2992 O.2       8 UNK        -0.5428 
     50 CA        -51.4006  -28.4446   14.0797 C.3       7 UNK         0.0264 
     51 CB        -52.4453  -29.5636   14.2048 C.3       7 UNK        -0.1988 
     52 N         -50.2747  -28.9488   13.2794 N.am      7 UNK        -0.4454 
     53 C         -49.1987  -28.2511   12.8833 C.2       7 UNK         0.5027 
     54 O         -48.9915  -27.0746   13.1883 O.2       7 UNK        -0.5083 
     55 CA        -48.2923  -28.9657   11.8632 C.3       6 UNK         0.0844 
     56 C56       -48.9751  -28.9486   10.4722 C.3       14 UNK        -0.0967 
     57 S57       -48.3599  -30.2781    9.3911 S.3       14 UNK        -0.2604 
     58 C58       -49.7494  -31.4632    9.4429 C.3       14 UNK         0.0134 
     59 N         -46.9709  -28.3492   11.7801 N.am      6 UNK        -0.4116 
     60 C         -46.0386  -28.2879   12.7330 C.2       5 UNK         0.5034 
     61 O         -46.1277  -28.8580   13.8212 O.2       5 UNK        -0.5045 
     62 CA        -44.7869  -27.4427   12.4183 C.3       5 UNK         0.0224 
     63 CB        -43.7933  -28.2383   11.5484 C.3       5 UNK        -0.1978 
     64 N         -45.0538  -26.1104   11.8398 N.am      5 UNK        -0.4737 
     65 C         -45.6246  -25.7974   10.6667 C.2       4 UNK         0.5027 
     66 O         -46.0384  -26.6288    9.8571 O.2       4 UNK        -0.5211 
     67 CA        -45.7496  -24.3058   10.3401 C.3       4 UNK         0.0297 
     68 CB        -44.6027  -23.8514    9.4227 C.3       4 UNK        -0.1993 
     69 N         -47.0252  -24.0743    9.6662 N.am      4 UNK        -0.4486 
     70 C         -47.8550  -23.0529    9.9204 C.2       3 UNK         0.4961 
     71 O         -47.6048  -22.1578   10.7292 O.2       3 UNK        -0.5105 
     72 CA        -49.1820  -23.0256    9.1304 C.3       3 UNK         0.0299 
     73 CB        -49.9674  -21.7076    9.2952 C.3       3 UNK        -0.1972 
     74 N         -48.9928  -23.3537    7.7138 N.am      3 UNK        -0.4305 
     75 C         -48.1856  -22.7346    6.8385 C.2       2 UNK         0.5006 
     76 O         -47.6356  -21.6552    7.0636 O.2       2 UNK        -0.5106 
     77 CA        -47.9234  -23.4356    5.4854 C.3       2 UNK         0.0296 
     78 CB        -46.4245  -23.3836    5.1186 C.3       2 UNK        -0.2002 
     79 N         -48.4118  -24.8210    5.3530 N.am      2 UNK        -0.4032 
     80 C         -48.1124  -25.8809    6.1225 C.2       1 UNK         0.5000 
     81 O         -47.4929  -25.8019    7.1864 O.2       1 UNK        -0.5238 
     82 H82       -45.6832  -29.3890    7.6972 H         1 UNK         0.0889 
     83 H83       -45.0587  -30.1386    6.2245 H         1 UNK         0.0889 
     84 H84       -46.6310  -30.6252    6.8564 H         1 UNK         0.0889 
     85 H85       -48.2967  -28.7742    7.0486 H         1 UNK         0.3028 
     86 H86       -48.4595  -27.2764    4.5498 H         1 UNK         0.0864 
     87 H87       -50.6996  -26.4965    5.5637 H         1 UNK         0.0720 
     88 H88       -50.3665  -27.5239    6.9380 H         1 UNK         0.0720 
     89 H89       -53.0201  -29.7680    5.1868 H         1 UNK         0.0814 
     90 H90       -52.9691  -28.1542    5.8531 H         1 UNK         0.0814 
     91 H91       -50.2587  -30.3943    7.0174 H         1 UNK         0.1469 
     92 H92       -52.1343  -31.2118   10.7747 H         1 UNK         0.1381 
     93 H93       -54.3250  -29.1920    7.6972 H         1 UNK         0.1206 
     94 H94       -55.4851  -30.3407    9.5718 H         1 UNK         0.0813 
     95 H95       -54.5883  -31.0248   10.9045 H         1 UNK         0.0813 
     96 H96       -56.9435  -27.7086   11.4611 H         1 UNK         0.0638 
     97 H97       -57.0762  -29.3555   10.9500 H         1 UNK         0.0638 
     98 H98       -57.8469  -29.0488   13.2628 H         1 UNK         0.0568 
     99 H99       -56.9277  -32.5055   12.9802 H         1 UNK         0.3450 
    100 H100      -57.9398  -31.2977   12.2344 H         1 UNK         0.3450 
    101 H101      -55.4605  -27.5462   13.6635 H         1 UNK         0.2987 
    102 H102      -56.5363  -26.5516   16.8335 H         1 UNK         0.0766 
    103 H103      -54.3253  -26.8344   17.7868 H         1 UNK         0.0798 
    104 H104      -53.8067  -27.8843   16.4772 H         1 UNK         0.0798 
    105 H105      -55.0313  -28.4319   17.6150 H         1 UNK         0.0798 
    106 H106      -54.2270  -25.9508   15.1327 H         1 UNK         0.3198 
    107 H107      -54.9933  -24.0936   13.1440 H         1 UNK         0.0843 
    108 H108      -56.0566  -22.0080   15.1231 H         1 UNK         0.0831 
    109 H109      -56.7900  -22.4726   13.5968 H         1 UNK         0.0831 
    110 H110      -55.2455  -21.6381   13.6012 H         1 UNK         0.0831 
    111 H111      -53.0145  -23.8990   14.0898 H         1 UNK         0.3133 
    112 H112      -51.5603  -22.5381   16.7886 H         1 UNK         0.0566 
    113 H113      -50.7342  -24.7150   17.6956 H         1 UNK         0.0814 
    114 H114      -52.3523  -24.3688   18.2809 H         1 UNK         0.0814 
    115 H115      -52.1226  -25.5489   16.9983 H         1 UNK         0.0814 
    116 H116      -51.1225  -24.7818   14.8818 H         1 UNK         0.3091 
    117 H117      -49.6115  -22.6862   12.4699 H         1 UNK         0.0702 
    118 H118      -47.7596  -24.3975   12.6900 H         1 UNK         0.0785 
    119 H119      -48.2717  -24.7162   14.3431 H         1 UNK         0.0785 
    120 H120      -47.6571  -23.1285   13.9001 H         1 UNK         0.0785 
    121 H121      -50.0057  -25.5237   12.6624 H         1 UNK         0.2998 
    122 H122      -53.3962  -25.6062   11.6098 H         1 UNK         0.0697 
    123 H123      -50.9863  -26.1495    9.7834 H         1 UNK         0.0825 
    124 H124      -52.3341  -25.0882    9.3957 H         1 UNK         0.0825 
    125 H125      -52.6087  -26.8111    9.5854 H         1 UNK         0.0825 
    126 H126      -51.5307  -27.6948   11.6566 H         1 UNK         0.3029 
    127 H127      -51.0214  -28.2031   15.0746 H         1 UNK         0.0897 
    128 H128      -53.3301  -29.2281   14.7438 H         1 UNK         0.0792 
    129 H129      -52.7857  -29.9112   13.2285 H         1 UNK         0.0792 
    130 H130      -52.0478  -30.4221   14.7462 H         1 UNK         0.0792 
    131 H131      -50.3491  -29.9114   12.9825 H         1 UNK         0.3086 
    132 H132      -48.1638  -29.9960   12.2017 H         1 UNK         0.0583 
    133 H133      -50.0583  -29.0378   10.5484 H         1 UNK         0.1020 
    134 H134      -48.8086  -27.9922    9.9711 H         1 UNK         0.1020 
    135 H135      -49.5022  -32.3253    8.8221 H         1 UNK         0.0694 
    136 H136      -49.8567  -31.8370   10.4623 H         1 UNK         0.0694 
    137 H137      -46.7721  -27.8248   10.9296 H         1 UNK         0.2989 
    138 H138      -44.2996  -27.2548   13.3768 H         1 UNK         0.1055 
    139 H139      -43.5315  -29.1847   12.0235 H         1 UNK         0.0806 
    140 H140      -42.8665  -27.6844   11.3986 H         1 UNK         0.0806 
    141 H141      -44.2049  -28.4734   10.5663 H         1 UNK         0.0806 
    142 H142      -44.7731  -25.3399   12.4318 H         1 UNK         0.3061 
    143 H143      -45.7057  -23.7404   11.2735 H         1 UNK         0.0734 
    144 H144      -44.6772  -22.7879    9.1946 H         1 UNK         0.0832 
    145 H145      -43.6333  -24.0174    9.8943 H         1 UNK         0.0832 
    146 H146      -44.6065  -24.3967    8.4776 H         1 UNK         0.0832 
    147 H147      -47.2766  -24.7807    8.9770 H         1 UNK         0.3156 
    148 H148      -49.7953  -23.8246    9.5478 H         1 UNK         0.0589 
    149 H149      -49.3939  -20.8469    8.9503 H         1 UNK         0.0808 
    150 H150      -50.9046  -21.7326    8.7396 H         1 UNK         0.0808 
    151 H151      -50.2195  -21.5324   10.3418 H         1 UNK         0.0808 
    152 H152      -49.3726  -24.2419    7.4213 H         1 UNK         0.3098 
    153 H153      -48.4671  -22.8523    4.7408 H         1 UNK         0.0720 
    154 H154      -46.0624  -22.3558    5.0693 H         1 UNK         0.0791 
    155 H155      -46.2374  -23.8351    4.1443 H         1 UNK         0.0791 
    156 H156      -45.8135  -23.9087    5.8541 H         1 UNK         0.0791 
    157 H157      -48.9739  -24.9888    4.5293 H         1 UNK         0.3028 
@<TRIPOS>BOND
     1    1    2 1    
     2    1   82 1    
     3    1   83 1    
     4    1   84 1    
     5    2    3 2    
     6    2    4 am   BACKBONE|DICT|INTERRES
     7    4    5 1    
     8    4   85 1    
     9    5    6 1    
    10    5   80 1    
    11    5   86 1    
    12    6    7 1    
    13    6   87 1    
    14    6   88 1    
    15    7    8 1    
    16    8    9 1    
    17    8   89 1    
    18    8   90 1    
    19    9   10 ar   
    20    9   14 ar   
    21   10   11 ar   
    22   10   91 1    
    23   11   12 ar   
    24   11   58 1    
    25   12   13 ar   
    26   12   92 1    
    27   13   14 ar   
    28   13   15 1    
    29   14   93 1    
    30   15   16 1    
    31   15   94 1    
    32   15   95 1    
    33   16   17 1    
    34   17   18 1    
    35   17   96 1    
    36   17   97 1    
    37   18   19 1    
    38   18   22 1    
    39   18   98 1    
    40   19   20 am   BACKBONE|DICT|INTERRES
    41   19   21 2    
    42   20   99 1    
    43   20  100 1    
    44   22   23 am   BACKBONE|DICT|INTERRES
    45   22  101 1    
    46   23   24 2    
    47   23   25 1    
    48   25   26 1    
    49   25   27 1    
    50   25  102 1    
    51   26  103 1    
    52   26  104 1    
    53   26  105 1    
    54   27   28 am   BACKBONE|DICT|INTERRES
    55   27  106 1    
    56   28   29 2    
    57   28   30 1    
    58   30   31 1    
    59   30   32 1    
    60   30  107 1    
    61   31  108 1    
    62   31  109 1    
    63   31  110 1    
    64   32   33 am   BACKBONE|DICT|INTERRES
    65   32  111 1    
    66   33   34 2    
    67   33   35 1    
    68   35   36 1    
    69   35   37 1    
    70   35  112 1    
    71   36  113 1    
    72   36  114 1    
    73   36  115 1    
    74   37   38 am   BACKBONE|DICT|INTERRES
    75   37  116 1    
    76   38   39 2    
    77   38   40 1    
    78   40   41 1    
    79   40   42 1    
    80   40  117 1    
    81   41  118 1    
    82   41  119 1    
    83   41  120 1    
    84   42   43 am   BACKBONE|DICT|INTERRES
    85   42  121 1    
    86   43   44 2    
    87   43   45 1    
    88   45   46 1    
    89   45   47 1    
    90   45  122 1    
    91   46  123 1    
    92   46  124 1    
    93   46  125 1    
    94   47   48 am   BACKBONE|DICT|INTERRES
    95   47  126 1    
    96   48   49 2    
    97   48   50 1    
    98   50   51 1    
    99   50   52 1    
   100   50  127 1    
   101   51  128 1    
   102   51  129 1    
   103   51  130 1    
   104   52   53 am   BACKBONE|DICT|INTERRES
   105   52  131 1    
   106   53   54 2    
   107   53   55 1    
   108   55   56 1    
   109   55   59 1    
   110   55  132 1    
   111   56   57 1    
   112   56  133 1    
   113   56  134 1    
   114   57   58 1    
   115   58  135 1    
   116   58  136 1    
   117   59   60 am   BACKBONE|DICT|INTERRES
   118   59  137 1    
   119   60   61 2    
   120   60   62 1    
   121   62   63 1    
   122   62   64 1    
   123   62  138 1    
   124   63  139 1    
   125   63  140 1    
   126   63  141 1    
   127   64   65 am   BACKBONE|DICT|INTERRES
   128   64  142 1    
   129   65   66 2    
   130   65   67 1    
   131   67   68 1    
   132   67   69 1    
   133   67  143 1    
   134   68  144 1    
   135   68  145 1    
   136   68  146 1    
   137   69   70 am   BACKBONE|DICT|INTERRES
   138   69  147 1    
   139   70   71 2    
   140   70   72 1    
   141   72   73 1    
   142   72   74 1    
   143   72  148 1    
   144   73  149 1    
   145   73  150 1    
   146   73  151 1    
   147   74   75 am   BACKBONE|DICT|INTERRES
   148   74  152 1    
   149   75   76 2    
   150   75   77 1    
   151   77   78 1    
   152   77   79 1    
   153   77  153 1    
   154   78  154 1    
   155   78  155 1    
   156   78  156 1    
   157   79   80 am   BACKBONE|DICT|INTERRES
   158   79  157 1    
   159   80   81 2    
@<TRIPOS>SUBSTRUCTURE
     1 UNK         1 GROUP             0       ****    0 ROOT    
