@<TRIPOS>MOLECULE
3R207
157   159    1
SMALL
USER_CHARGES


@<TRIPOS>ATOM
      1 CA        -46.7953  -27.6607    3.7208 C.3       0 UNK        -0.1975 
      2 C         -47.0727  -28.3330    5.0627 C.2       0 UNK         0.4852 
      3 O         -46.3193  -29.2199    5.4583 O.2       0 UNK        -0.5216 
      4 N         -48.1314  -27.9570    5.7922 N.am      1 UNK        -0.4461 
      5 CA        -49.0820  -26.8801    5.4862 C.3       1 UNK         0.0864 
      6 C6        -50.4544  -27.1216    6.1600 C.3       14 UNK        -0.0898 
      7 S7        -51.2919  -28.6082    5.5136 S.3       14 UNK        -0.2598 
      8 C8        -52.4307  -29.0250    6.8859 C.3       14 UNK         0.0286 
      9 C9        -51.7871  -29.5618    8.1691 C.ar      14 UNK        -0.0844 
     10 C10       -50.4167  -29.8250    8.2797 C.ar      14 UNK        -0.0881 
     11 C11       -49.8657  -30.2902    9.4748 C.ar      14 UNK        -0.0643 
     12 C12       -50.7010  -30.5391   10.5673 C.ar      14 UNK        -0.0930 
     13 C13       -52.0785  -30.3197   10.4652 C.ar      14 UNK        -0.0827 
     14 C14       -52.6094  -29.8171    9.2720 C.ar      14 UNK        -0.1249 
     15 C15       -53.0005  -30.6678   11.6253 C.3       14 UNK         0.0141 
     16 S16       -52.9969  -29.3898   12.9179 S.3       14 UNK        -0.2313 
     17 C17       -54.3559  -29.9860   13.9776 C.3       14 UNK        -0.0915 
     18 CA        -55.6487  -29.1458   13.7922 C.3       13 UNK         0.0968 
     19 C         -56.8961  -29.8571   14.4002 C.2       13 UNK         0.5732 
     20 N         -57.7389  -29.2045   15.1928 N.am      13 UNK        -0.7310 
     21 O         -57.1183  -31.0363   14.1348 O.2       13 UNK        -0.5035 
     22 N         -55.4497  -27.7663   14.2586 N.am      13 UNK        -0.4233 
     23 C         -56.1324  -26.6959   13.8427 C.2       13 UNK         0.4989 
     24 O         -56.9755  -26.7248   12.9430 O.2       13 UNK        -0.4996 
     25 CA        -55.8602  -25.3915   14.6214 C.3       12 UNK         0.0216 
     26 CB        -56.6622  -24.1893   14.0813 C.3       12 UNK        -0.1964 
     27 N         -56.0788  -25.5458   16.0682 N.am      12 UNK        -0.4276 
     28 C         -57.1821  -25.9995   16.6835 C.2       12 UNK         0.5020 
     29 O         -58.2030  -26.3516   16.0907 O.2       12 UNK        -0.5489 
     30 CA        -57.1041  -26.1440   18.2152 C.3       11 UNK         0.0294 
     31 CB        -58.4128  -26.6744   18.8315 C.3       11 UNK        -0.2019 
     32 N         -56.0119  -27.0494   18.5735 N.am      11 UNK        -0.4493 
     33 C         -54.7447  -26.6727   18.7770 C.2       11 UNK         0.4932 
     34 O         -54.3886  -25.4930   18.7991 O.2       11 UNK        -0.5029 
     35 CA        -53.6866  -27.7839   18.9453 C.3       10 UNK         0.0280 
     36 CB        -54.2048  -29.2067   18.6261 C.3       10 UNK        -0.1976 
     37 N         -52.4789  -27.4929   18.1617 N.am      10 UNK        -0.4242 
     38 C         -52.4188  -27.2812   16.8384 C.2       10 UNK         0.5072 
     39 O         -53.3866  -27.3709   16.0796 O.2       10 UNK        -0.5224 
     40 CA        -51.0306  -26.9416   16.2707 C.3       9 UNK         0.0343 
     41 CB        -50.2822  -28.2310   15.8986 C.3       9 UNK        -0.2003 
     42 N         -51.1031  -26.0647   15.0974 N.am      9 UNK        -0.4272 
     43 C         -51.5385  -24.7939   15.1260 C.2       9 UNK         0.4988 
     44 O         -51.8984  -24.2272   16.1591 O.2       9 UNK        -0.5108 
     45 CA        -51.5524  -23.9864   13.8123 C.3       8 UNK         0.0248 
     46 CB        -50.5482  -22.8232   13.8839 C.3       8 UNK        -0.2001 
     47 N         -51.2585  -24.7910   12.6261 N.am      8 UNK        -0.4140 
     48 C         -52.1536  -25.5628   11.9917 C.2       8 UNK         0.5028 
     49 O         -53.3457  -25.6004   12.2923 O.2       8 UNK        -0.5428 
     50 CA        -51.6530  -26.4330   10.8203 C.3       7 UNK         0.0264 
     51 CB        -52.1180  -25.8381    9.4815 C.3       7 UNK        -0.1988 
     52 N         -50.1998  -26.6346   10.7818 N.am      7 UNK        -0.4454 
     53 C         -49.4729  -27.2224   11.7453 C.2       7 UNK         0.5027 
     54 O         -49.9628  -27.7162   12.7589 O.2       7 UNK        -0.5083 
     55 CA        -47.9360  -27.1667   11.6203 C.3       6 UNK         0.0844 
     56 C56       -47.3158  -28.5400   11.2640 C.3       14 UNK        -0.0967 
     57 S57       -47.4198  -28.9915    9.4968 S.3       14 UNK        -0.2604 
     58 C58       -48.3691  -30.5455    9.5517 C.3       14 UNK         0.0134 
     59 N         -47.4511  -26.0827   10.7585 N.am      6 UNK        -0.4116 
     60 C         -47.6063  -24.7721   10.9968 C.2       5 UNK         0.5034 
     61 O         -48.2176  -24.3338   11.9722 O.2       5 UNK        -0.5045 
     62 CA        -47.0447  -23.7869    9.9542 C.3       5 UNK         0.0224 
     63 CB        -46.3866  -22.5510   10.6021 C.3       5 UNK        -0.1978 
     64 N         -46.1657  -24.4112    8.9568 N.am      5 UNK        -0.4737 
     65 C         -44.9325  -24.9136    9.1209 C.2       4 UNK         0.5027 
     66 O         -44.3166  -24.9049   10.1859 O.2       4 UNK        -0.5211 
     67 CA        -44.2862  -25.5599    7.8847 C.3       4 UNK         0.0297 
     68 CB        -44.5975  -27.0644    7.8477 C.3       4 UNK        -0.1993 
     69 N         -44.7583  -24.9445    6.6419 N.am      4 UNK        -0.4486 
     70 C         -44.1432  -23.9350    6.0105 C.2       3 UNK         0.4961 
     71 O         -43.0681  -23.4540    6.3699 O.2       3 UNK        -0.5105 
     72 CA        -44.8385  -23.3601    4.7610 C.3       3 UNK         0.0299 
     73 CB        -44.3369  -24.0729    3.4944 C.3       3 UNK        -0.1972 
     74 N         -46.3010  -23.4417    4.8167 N.am      3 UNK        -0.4305 
     75 C         -47.0727  -22.7377    5.6580 C.2       2 UNK         0.5006 
     76 O         -46.6406  -21.8870    6.4354 O.2       2 UNK        -0.5106 
     77 CA        -48.5814  -23.0515    5.6566 C.3       2 UNK         0.0296 
     78 CB        -49.3278  -22.0839    4.7238 C.3       2 UNK        -0.2002 
     79 N         -48.9313  -24.4351    5.3023 N.am      2 UNK        -0.4032 
     80 C         -48.5038  -25.5297    5.9480 C.2       1 UNK         0.5000 
     81 O         -47.6922  -25.4977    6.8764 O.2       1 UNK        -0.5238 
     82 H82       -47.5931  -27.8757    3.0104 H         1 UNK         0.0889 
     83 H83       -45.8635  -28.0322    3.2945 H         1 UNK         0.0889 
     84 H84       -46.6988  -26.5822    3.8301 H         1 UNK         0.0889 
     85 H85       -48.2456  -28.3767    6.7025 H         1 UNK         0.3028 
     86 H86       -49.2413  -26.8326    4.4075 H         1 UNK         0.0864 
     87 H87       -51.1260  -26.2752    6.0023 H         1 UNK         0.0720 
     88 H88       -50.3251  -27.2156    7.2386 H         1 UNK         0.0720 
     89 H89       -53.1320  -29.7758    6.5193 H         1 UNK         0.0814 
     90 H90       -53.0264  -28.1426    7.1233 H         1 UNK         0.0814 
     91 H91       -49.7565  -29.6678    7.4412 H         1 UNK         0.1469 
     92 H92       -50.2853  -30.9142   11.4924 H         1 UNK         0.1381 
     93 H93       -53.6734  -29.6380    9.1958 H         1 UNK         0.1206 
     94 H94       -52.6963  -31.6203   12.0620 H         1 UNK         0.0813 
     95 H95       -54.0205  -30.8080   11.2640 H         1 UNK         0.0813 
     96 H96       -54.0248  -29.9504   15.0169 H         1 UNK         0.0638 
     97 H97       -54.5304  -31.0402   13.7554 H         1 UNK         0.0638 
     98 H98       -55.8528  -29.1016   12.7209 H         1 UNK         0.0568 
     99 H99       -58.5374  -29.6971   15.5587 H         1 UNK         0.3450 
    100 H100      -57.6425  -28.2117   15.3670 H         1 UNK         0.3450 
    101 H101      -54.7389  -27.6417   14.9800 H         1 UNK         0.2987 
    102 H102      -54.7999  -25.1692   14.4932 H         1 UNK         0.0766 
    103 H103      -56.4088  -23.2725   14.6134 H         1 UNK         0.0798 
    104 H104      -57.7376  -24.3456   14.1734 H         1 UNK         0.0798 
    105 H105      -56.4450  -24.0219   13.0256 H         1 UNK         0.0798 
    106 H106      -55.2739  -25.3520   16.6529 H         1 UNK         0.3198 
    107 H107      -56.9211  -25.1500   18.6296 H         1 UNK         0.0843 
    108 H108      -58.6680  -27.6651   18.4532 H         1 UNK         0.0831 
    109 H109      -59.2485  -26.0123   18.6006 H         1 UNK         0.0831 
    110 H110      -58.3424  -26.7377   19.9175 H         1 UNK         0.0831 
    111 H111      -56.2156  -28.0379   18.5339 H         1 UNK         0.3133 
    112 H112      -53.3873  -27.7652   19.9941 H         1 UNK         0.0566 
    113 H113      -53.4105  -29.9447   18.7393 H         1 UNK         0.0814 
    114 H114      -55.0051  -29.5019   19.3057 H         1 UNK         0.0814 
    115 H115      -54.5825  -29.2892   17.6059 H         1 UNK         0.0814 
    116 H116      -51.6324  -27.3727   18.7003 H         1 UNK         0.3091 
    117 H117      -50.4585  -26.4176   17.0391 H         1 UNK         0.0702 
    118 H118      -49.2837  -28.0162   15.5173 H         1 UNK         0.0785 
    119 H119      -50.8175  -28.7968   15.1346 H         1 UNK         0.0785 
    120 H120      -50.1659  -28.8836   16.7648 H         1 UNK         0.0785 
    121 H121      -50.8570  -26.4863   14.2084 H         1 UNK         0.2998 
    122 H122      -52.5523  -23.5599   13.7068 H         1 UNK         0.0697 
    123 H123      -49.5298  -23.1793   14.0440 H         1 UNK         0.0825 
    124 H124      -50.7888  -22.1485   14.7066 H         1 UNK         0.0825 
    125 H125      -50.5566  -22.2316   12.9683 H         1 UNK         0.0825 
    126 H126      -50.2935  -24.7974   12.3153 H         1 UNK         0.3029 
    127 H127      -52.1163  -27.4136   10.9360 H         1 UNK         0.0897 
    128 H128      -53.1894  -25.6323    9.4951 H         1 UNK         0.0792 
    129 H129      -51.9440  -26.5328    8.6635 H         1 UNK         0.0792 
    130 H130      -51.6080  -24.9018    9.2522 H         1 UNK         0.0792 
    131 H131      -49.7099  -26.2617    9.9830 H         1 UNK         0.3086 
    132 H132      -47.5822  -26.9254   12.6253 H         1 UNK         0.0583 
    133 H133      -46.2566  -28.5258   11.5254 H         1 UNK         0.1020 
    134 H134      -47.7486  -29.3267   11.8852 H         1 UNK         0.1020 
    135 H135      -48.0739  -31.1598    8.6998 H         1 UNK         0.0694 
    136 H136      -48.1082  -31.1212   10.4409 H         1 UNK         0.0694 
    137 H137      -46.9632  -26.3650    9.9209 H         1 UNK         0.2989 
    138 H138      -47.9121  -23.4330    9.3947 H         1 UNK         0.1055 
    139 H139      -47.1043  -22.0011   11.2122 H         1 UNK         0.0806 
    140 H140      -46.0110  -21.8614    9.8459 H         1 UNK         0.0806 
    141 H141      -45.5555  -22.8248   11.2521 H         1 UNK         0.0806 
    142 H142      -46.6104  -24.5795    8.0572 H         1 UNK         0.3061 
    143 H143      -43.2041  -25.4402    7.9728 H         1 UNK         0.0734 
    144 H144      -44.0849  -27.5553    7.0203 H         1 UNK         0.0832 
    145 H145      -44.2746  -27.5561    8.7665 H         1 UNK         0.0832 
    146 H146      -45.6651  -27.2541    7.7342 H         1 UNK         0.0832 
    147 H147      -45.6681  -25.2423    6.3131 H         1 UNK         0.3156 
    148 H148      -44.5643  -22.3054    4.6876 H         1 UNK         0.0589 
    149 H149      -44.5809  -25.1358    3.5019 H         1 UNK         0.0808 
    150 H150      -44.7663  -23.6339    2.5936 H         1 UNK         0.0808 
    151 H151      -43.2526  -23.9904    3.4062 H         1 UNK         0.0808 
    152 H152      -46.7488  -24.0874    4.1841 H         1 UNK         0.3098 
    153 H153      -48.9396  -22.8827    6.6744 H         1 UNK         0.0720 
    154 H154      -50.4079  -22.2101    4.8009 H         1 UNK         0.0791 
    155 H155      -49.0450  -22.2289    3.6803 H         1 UNK         0.0791 
    156 H156      -49.1076  -21.0462    4.9795 H         1 UNK         0.0791 
    157 H157      -49.5976  -24.5444    4.5505 H         1 UNK         0.3028 
@<TRIPOS>BOND
     1    1    2 1    
     2    1   82 1    
     3    1   83 1    
     4    1   84 1    
     5    2    3 2    
     6    2    4 am   BACKBONE|DICT|INTERRES
     7    4    5 1    
     8    4   85 1    
     9    5    6 1    
    10    5   80 1    
    11    5   86 1    
    12    6    7 1    
    13    6   87 1    
    14    6   88 1    
    15    7    8 1    
    16    8    9 1    
    17    8   89 1    
    18    8   90 1    
    19    9   10 ar   
    20    9   14 ar   
    21   10   11 ar   
    22   10   91 1    
    23   11   12 ar   
    24   11   58 1    
    25   12   13 ar   
    26   12   92 1    
    27   13   14 ar   
    28   13   15 1    
    29   14   93 1    
    30   15   16 1    
    31   15   94 1    
    32   15   95 1    
    33   16   17 1    
    34   17   18 1    
    35   17   96 1    
    36   17   97 1    
    37   18   19 1    
    38   18   22 1    
    39   18   98 1    
    40   19   20 am   BACKBONE|DICT|INTERRES
    41   19   21 2    
    42   20   99 1    
    43   20  100 1    
    44   22   23 am   BACKBONE|DICT|INTERRES
    45   22  101 1    
    46   23   24 2    
    47   23   25 1    
    48   25   26 1    
    49   25   27 1    
    50   25  102 1    
    51   26  103 1    
    52   26  104 1    
    53   26  105 1    
    54   27   28 am   BACKBONE|DICT|INTERRES
    55   27  106 1    
    56   28   29 2    
    57   28   30 1    
    58   30   31 1    
    59   30   32 1    
    60   30  107 1    
    61   31  108 1    
    62   31  109 1    
    63   31  110 1    
    64   32   33 am   BACKBONE|DICT|INTERRES
    65   32  111 1    
    66   33   34 2    
    67   33   35 1    
    68   35   36 1    
    69   35   37 1    
    70   35  112 1    
    71   36  113 1    
    72   36  114 1    
    73   36  115 1    
    74   37   38 am   BACKBONE|DICT|INTERRES
    75   37  116 1    
    76   38   39 2    
    77   38   40 1    
    78   40   41 1    
    79   40   42 1    
    80   40  117 1    
    81   41  118 1    
    82   41  119 1    
    83   41  120 1    
    84   42   43 am   BACKBONE|DICT|INTERRES
    85   42  121 1    
    86   43   44 2    
    87   43   45 1    
    88   45   46 1    
    89   45   47 1    
    90   45  122 1    
    91   46  123 1    
    92   46  124 1    
    93   46  125 1    
    94   47   48 am   BACKBONE|DICT|INTERRES
    95   47  126 1    
    96   48   49 2    
    97   48   50 1    
    98   50   51 1    
    99   50   52 1    
   100   50  127 1    
   101   51  128 1    
   102   51  129 1    
   103   51  130 1    
   104   52   53 am   BACKBONE|DICT|INTERRES
   105   52  131 1    
   106   53   54 2    
   107   53   55 1    
   108   55   56 1    
   109   55   59 1    
   110   55  132 1    
   111   56   57 1    
   112   56  133 1    
   113   56  134 1    
   114   57   58 1    
   115   58  135 1    
   116   58  136 1    
   117   59   60 am   BACKBONE|DICT|INTERRES
   118   59  137 1    
   119   60   61 2    
   120   60   62 1    
   121   62   63 1    
   122   62   64 1    
   123   62  138 1    
   124   63  139 1    
   125   63  140 1    
   126   63  141 1    
   127   64   65 am   BACKBONE|DICT|INTERRES
   128   64  142 1    
   129   65   66 2    
   130   65   67 1    
   131   67   68 1    
   132   67   69 1    
   133   67  143 1    
   134   68  144 1    
   135   68  145 1    
   136   68  146 1    
   137   69   70 am   BACKBONE|DICT|INTERRES
   138   69  147 1    
   139   70   71 2    
   140   70   72 1    
   141   72   73 1    
   142   72   74 1    
   143   72  148 1    
   144   73  149 1    
   145   73  150 1    
   146   73  151 1    
   147   74   75 am   BACKBONE|DICT|INTERRES
   148   74  152 1    
   149   75   76 2    
   150   75   77 1    
   151   77   78 1    
   152   77   79 1    
   153   77  153 1    
   154   78  154 1    
   155   78  155 1    
   156   78  156 1    
   157   79   80 am   BACKBONE|DICT|INTERRES
   158   79  157 1    
   159   80   81 2    
@<TRIPOS>SUBSTRUCTURE
     1 UNK         1 GROUP             0       ****    0 ROOT    
