@<TRIPOS>MOLECULE
3R207
157   159    1
SMALL
USER_CHARGES


@<TRIPOS>ATOM
      1 CA        -50.7567  -30.7658   10.5845 C.3       0 UNK        -0.1975 
      2 C         -49.7603  -30.4889    9.4688 C.2       0 UNK         0.4852 
      3 O         -48.7618  -31.2008    9.3510 O.2       0 UNK        -0.5216 
      4 N         -50.0281  -29.4693    8.6435 N.am      1 UNK        -0.4461 
      5 CA        -49.1394  -28.9885    7.5817 C.3       1 UNK         0.0864 
      6 C6        -49.8838  -28.0873    6.5557 C.3       14 UNK        -0.0898 
      7 S7        -50.9653  -26.8166    7.3065 S.3       14 UNK        -0.2598 
      8 C8        -52.6232  -27.3325    6.7660 C.3       14 UNK         0.0286 
      9 C9        -53.7059  -26.7981    7.6951 C.ar      14 UNK        -0.0844 
     10 C10       -53.9739  -25.4254    7.7687 C.ar      14 UNK        -0.0881 
     11 C11       -54.9829  -24.9434    8.6108 C.ar      14 UNK        -0.0643 
     12 C12       -55.7283  -25.8456    9.3759 C.ar      14 UNK        -0.0930 
     13 C13       -55.4707  -27.2173    9.3108 C.ar      14 UNK        -0.0827 
     14 C14       -54.4575  -27.6869    8.4705 C.ar      14 UNK        -0.1249 
     15 C15       -56.2954  -28.1926   10.1364 C.3       14 UNK         0.0141 
     16 S16       -55.7775  -28.1828   11.8785 S.3       14 UNK        -0.2313 
     17 C17       -56.6668  -29.6389   12.5261 C.3       14 UNK        -0.0915 
     18 CA        -55.7684  -30.8774   12.7990 C.3       13 UNK         0.0968 
     19 C         -55.1911  -31.5072   11.4992 C.2       13 UNK         0.5732 
     20 N         -56.0397  -32.1136   10.6796 N.am      13 UNK        -0.7310 
     21 O         -53.9977  -31.4378   11.2127 O.2       13 UNK        -0.5035 
     22 N         -54.7469  -30.5997   13.8191 N.am      13 UNK        -0.4233 
     23 C         -54.1175  -31.5407   14.5384 C.2       13 UNK         0.4989 
     24 O         -54.3663  -32.7447   14.4593 O.2       13 UNK        -0.4996 
     25 CA        -53.0579  -31.0667   15.5464 C.3       12 UNK         0.0216 
     26 CB        -51.6821  -30.9369   14.8701 C.3       12 UNK        -0.1964 
     27 N         -53.4449  -29.7889   16.1515 N.am      12 UNK        -0.4276 
     28 C         -54.1166  -29.6677   17.3053 C.2       12 UNK         0.5020 
     29 O         -54.3770  -30.6267   18.0343 O.2       12 UNK        -0.5489 
     30 CA        -54.6366  -28.2740   17.7204 C.3       11 UNK         0.0294 
     31 CB        -54.1718  -27.8847   19.1402 C.3       11 UNK        -0.2019 
     32 N         -54.3871  -27.1982   16.7500 N.am      11 UNK        -0.4493 
     33 C         -53.2261  -26.6017   16.4467 C.2       11 UNK         0.4932 
     34 O         -52.1485  -26.8428   16.9925 O.2       11 UNK        -0.5029 
     35 CA        -53.2865  -25.5860   15.2905 C.3       10 UNK         0.0280 
     36 CB        -52.8494  -24.1912   15.7684 C.3       10 UNK        -0.1976 
     37 N         -52.4675  -25.9827   14.1412 N.am      10 UNK        -0.4242 
     38 C         -52.4569  -27.1870   13.5492 C.2       10 UNK         0.5072 
     39 O         -53.1886  -28.1194   13.8835 O.2       10 UNK        -0.5224 
     40 CA        -51.4643  -27.4065   12.3943 C.3       9 UNK         0.0343 
     41 CB        -52.1634  -27.2085   11.0446 C.3       9 UNK        -0.2003 
     42 N         -50.2765  -26.5528   12.4614 N.am      9 UNK        -0.4272 
     43 C         -49.3193  -26.6574   13.3950 C.2       9 UNK         0.4988 
     44 O         -49.3235  -27.5020   14.2907 O.2       9 UNK        -0.5108 
     45 CA        -48.1614  -25.6516   13.3228 C.3       8 UNK         0.0248 
     46 CB        -47.0564  -26.1683   12.3859 C.3       8 UNK        -0.2001 
     47 N         -48.6247  -24.3313   12.8856 N.am      8 UNK        -0.4140 
     48 C         -49.0950  -23.3878   13.7150 C.2       8 UNK         0.5028 
     49 O         -49.0744  -23.4877   14.9421 O.2       8 UNK        -0.5428 
     50 CA        -49.7066  -22.1188   13.0886 C.3       7 UNK         0.0264 
     51 CB        -48.6598  -20.9978   12.9987 C.3       7 UNK        -0.1988 
     52 N         -50.3026  -22.3374   11.7674 N.am      7 UNK        -0.4454 
     53 C         -51.4170  -23.0556   11.5535 C.2       7 UNK         0.5027 
     54 O         -52.0612  -23.5810   12.4605 O.2       7 UNK        -0.5083 
     55 CA        -51.8505  -23.2846   10.0848 C.3       6 UNK         0.0844 
     56 C56       -52.9066  -22.2532    9.6155 C.3       14 UNK        -0.0967 
     57 S57       -54.5981  -22.6652   10.1616 S.3       14 UNK        -0.2604 
     58 C58       -55.3038  -23.4563    8.6780 C.3       14 UNK         0.0134 
     59 N         -50.7324  -23.3578    9.1395 N.am      6 UNK        -0.4116 
     60 C         -49.6742  -24.1731    9.2340 C.2       5 UNK         0.5034 
     61 O         -49.4765  -24.9197   10.1930 O.2       5 UNK        -0.5045 
     62 CA        -48.6527  -24.1364    8.0830 C.3       5 UNK         0.0224 
     63 CB        -49.0328  -23.1989    6.9145 C.3       5 UNK        -0.1978 
     64 N         -47.3008  -23.8342    8.5524 N.am      5 UNK        -0.4737 
     65 C         -46.8990  -22.7812    9.2798 C.2       4 UNK         0.5027 
     66 O         -47.6582  -21.8977    9.6811 O.2       4 UNK        -0.5211 
     67 CA        -45.3993  -22.6930    9.6275 C.3       4 UNK         0.0297 
     68 CB        -45.1822  -22.7630   11.1471 C.3       4 UNK        -0.1993 
     69 N         -44.5969  -23.7353    8.9760 N.am      4 UNK        -0.4486 
     70 C         -44.1389  -23.6582    7.7189 C.2       3 UNK         0.4961 
     71 O         -44.2825  -22.6714    6.9965 O.2       3 UNK        -0.5105 
     72 CA        -43.4092  -24.8939    7.1623 C.3       3 UNK         0.0299 
     73 CB        -41.8987  -24.7870    7.4282 C.3       3 UNK        -0.1972 
     74 N         -43.9024  -26.1812    7.6696 N.am      3 UNK        -0.4305 
     75 C         -45.1383  -26.6680    7.4820 C.2       2 UNK         0.5006 
     76 O         -46.0393  -26.0364    6.9273 O.2       2 UNK        -0.5106 
     77 CA        -45.3740  -28.1132    7.9629 C.3       2 UNK         0.0296 
     78 CB        -45.0583  -28.2900    9.4661 C.3       2 UNK        -0.2002 
     79 N         -46.7108  -28.6270    7.6218 N.am      2 UNK        -0.4032 
     80 C         -47.8887  -28.3029    8.1794 C.2       1 UNK         0.5000 
     81 O         -48.0176  -27.5212    9.1225 O.2       1 UNK        -0.5238 
     82 H82       -51.1064  -31.7964   10.5309 H         1 UNK         0.0889 
     83 H83       -51.6289  -30.1157   10.5234 H         1 UNK         0.0889 
     84 H84       -50.2856  -30.6166   11.5556 H         1 UNK         0.0889 
     85 H85       -50.8356  -28.8858    8.8076 H         1 UNK         0.3028 
     86 H86       -48.7948  -29.8704    7.0368 H         1 UNK         0.0864 
     87 H87       -49.1742  -27.5868    5.8939 H         1 UNK         0.0720 
     88 H88       -50.4857  -28.7182    5.9004 H         1 UNK         0.0720 
     89 H89       -52.6699  -28.4218    6.7229 H         1 UNK         0.0814 
     90 H90       -52.7995  -26.9750    5.7507 H         1 UNK         0.0814 
     91 H91       -53.3959  -24.7356    7.1693 H         1 UNK         0.1469 
     92 H92       -56.5104  -25.4787   10.0267 H         1 UNK         0.1381 
     93 H93       -54.2563  -28.7484    8.4204 H         1 UNK         0.1206 
     94 H94       -56.1997  -29.2018    9.7333 H         1 UNK         0.0813 
     95 H95       -57.3528  -27.9322   10.0713 H         1 UNK         0.0813 
     96 H96       -57.1496  -29.3359   13.4562 H         1 UNK         0.0638 
     97 H97       -57.4839  -29.8983   11.8510 H         1 UNK         0.0638 
     98 H98       -56.4226  -31.6396   13.2271 H         1 UNK         0.0568 
     99 H99       -57.0212  -32.1823   10.8977 H         1 UNK         0.3450 
    100 H100      -55.6857  -32.5236    9.8300 H         1 UNK         0.3450 
    101 H101      -54.4073  -29.6433   13.8581 H         1 UNK         0.2987 
    102 H102      -52.9708  -31.8291   16.3234 H         1 UNK         0.0766 
    103 H103      -50.9305  -30.5623   15.5652 H         1 UNK         0.0798 
    104 H104      -51.7074  -30.2665   14.0118 H         1 UNK         0.0798 
    105 H105      -51.3372  -31.9064   14.5086 H         1 UNK         0.0798 
    106 H106      -53.3000  -28.9637   15.5744 H         1 UNK         0.3198 
    107 H107      -55.7225  -28.3744   17.7585 H         1 UNK         0.0843 
    108 H108      -53.0851  -27.8484   19.2189 H         1 UNK         0.0831 
    109 H109      -54.5208  -28.6102   19.8760 H         1 UNK         0.0831 
    110 H110      -54.5645  -26.9119   19.4356 H         1 UNK         0.0831 
    111 H111      -55.1960  -26.9310   16.2045 H         1 UNK         0.3133 
    112 H112      -54.3163  -25.5135   14.9354 H         1 UNK         0.0566 
    113 H113      -53.0016  -23.4392   14.9942 H         1 UNK         0.0814 
    114 H114      -53.4245  -23.8770   16.6404 H         1 UNK         0.0814 
    115 H115      -51.7948  -24.1747   16.0481 H         1 UNK         0.0814 
    116 H116      -51.8973  -25.2535   13.7292 H         1 UNK         0.3091 
    117 H117      -51.1213  -28.4405   12.4489 H         1 UNK         0.0702 
    118 H118      -52.9009  -27.9941   10.8800 H         1 UNK         0.0785 
    119 H119      -52.6968  -26.2596   11.0008 H         1 UNK         0.0785 
    120 H120      -51.4580  -27.2401   10.2154 H         1 UNK         0.0785 
    121 H121      -50.1413  -25.8888   11.7036 H         1 UNK         0.2998 
    122 H122      -47.7342  -25.5760   14.3252 H         1 UNK         0.0697 
    123 H123      -47.3389  -26.0874   11.3357 H         1 UNK         0.0825 
    124 H124      -46.8345  -27.2187   12.5804 H         1 UNK         0.0825 
    125 H125      -46.1276  -25.6210   12.5339 H         1 UNK         0.0825 
    126 H126      -48.7411  -24.2085   11.8845 H         1 UNK         0.3029 
    127 H127      -50.5010  -21.7830   13.7591 H         1 UNK         0.0897 
    128 H128      -47.8493  -21.2574   12.3186 H         1 UNK         0.0792 
    129 H129      -48.2156  -20.7985   13.9750 H         1 UNK         0.0792 
    130 H130      -49.1047  -20.0659   12.6496 H         1 UNK         0.0792 
    131 H131      -49.7913  -21.9781   10.9710 H         1 UNK         0.3086 
    132 H132      -52.3097  -24.2724   10.0445 H         1 UNK         0.0583 
    133 H133      -52.6580  -21.2483    9.9630 H         1 UNK         0.1020 
    134 H134      -52.9150  -22.1826    8.5270 H         1 UNK         0.1020 
    135 H135      -56.3871  -23.3290    8.7048 H         1 UNK         0.0694 
    136 H136      -54.9687  -22.9431    7.7756 H         1 UNK         0.0694 
    137 H137      -50.7869  -22.7567    8.3313 H         1 UNK         0.2989 
    138 H138      -48.6080  -25.1535    7.6921 H         1 UNK         0.1055 
    139 H139      -49.9971  -23.4724    6.4835 H         1 UNK         0.0806 
    140 H140      -48.2997  -23.2697    6.1107 H         1 UNK         0.0806 
    141 H141      -49.0799  -22.1533    7.2214 H         1 UNK         0.0806 
    142 H142      -46.6046  -24.5138    8.2684 H         1 UNK         0.3061 
    143 H143      -45.0496  -21.7155    9.2881 H         1 UNK         0.0734 
    144 H144      -44.1233  -22.7198   11.4026 H         1 UNK         0.0832 
    145 H145      -45.6659  -21.9243   11.6478 H         1 UNK         0.0832 
    146 H146      -45.5961  -23.6753   11.5709 H         1 UNK         0.0832 
    147 H147      -44.4301  -24.5832    9.4986 H         1 UNK         0.3156 
    148 H148      -43.5606  -24.8949    6.0807 H         1 UNK         0.0589 
    149 H149      -41.6720  -24.8184    8.4947 H         1 UNK         0.0808 
    150 H150      -41.3507  -25.5950    6.9430 H         1 UNK         0.0808 
    151 H151      -41.4990  -23.8496    7.0383 H         1 UNK         0.0808 
    152 H152      -43.2203  -26.7695    8.1268 H         1 UNK         0.3098 
    153 H153      -44.6756  -28.7386    7.4047 H         1 UNK         0.0720 
    154 H154      -45.3172  -29.2917    9.8098 H         1 UNK         0.0791 
    155 H155      -45.6025  -27.5758   10.0842 H         1 UNK         0.0791 
    156 H156      -43.9968  -28.1487    9.6704 H         1 UNK         0.0791 
    157 H157      -46.7265  -29.2624    6.8365 H         1 UNK         0.3028 
@<TRIPOS>BOND
     1    1    2 1    
     2    1   82 1    
     3    1   83 1    
     4    1   84 1    
     5    2    3 2    
     6    2    4 am   BACKBONE|DICT|INTERRES
     7    4    5 1    
     8    4   85 1    
     9    5    6 1    
    10    5   80 1    
    11    5   86 1    
    12    6    7 1    
    13    6   87 1    
    14    6   88 1    
    15    7    8 1    
    16    8    9 1    
    17    8   89 1    
    18    8   90 1    
    19    9   10 ar   
    20    9   14 ar   
    21   10   11 ar   
    22   10   91 1    
    23   11   12 ar   
    24   11   58 1    
    25   12   13 ar   
    26   12   92 1    
    27   13   14 ar   
    28   13   15 1    
    29   14   93 1    
    30   15   16 1    
    31   15   94 1    
    32   15   95 1    
    33   16   17 1    
    34   17   18 1    
    35   17   96 1    
    36   17   97 1    
    37   18   19 1    
    38   18   22 1    
    39   18   98 1    
    40   19   20 am   BACKBONE|DICT|INTERRES
    41   19   21 2    
    42   20   99 1    
    43   20  100 1    
    44   22   23 am   BACKBONE|DICT|INTERRES
    45   22  101 1    
    46   23   24 2    
    47   23   25 1    
    48   25   26 1    
    49   25   27 1    
    50   25  102 1    
    51   26  103 1    
    52   26  104 1    
    53   26  105 1    
    54   27   28 am   BACKBONE|DICT|INTERRES
    55   27  106 1    
    56   28   29 2    
    57   28   30 1    
    58   30   31 1    
    59   30   32 1    
    60   30  107 1    
    61   31  108 1    
    62   31  109 1    
    63   31  110 1    
    64   32   33 am   BACKBONE|DICT|INTERRES
    65   32  111 1    
    66   33   34 2    
    67   33   35 1    
    68   35   36 1    
    69   35   37 1    
    70   35  112 1    
    71   36  113 1    
    72   36  114 1    
    73   36  115 1    
    74   37   38 am   BACKBONE|DICT|INTERRES
    75   37  116 1    
    76   38   39 2    
    77   38   40 1    
    78   40   41 1    
    79   40   42 1    
    80   40  117 1    
    81   41  118 1    
    82   41  119 1    
    83   41  120 1    
    84   42   43 am   BACKBONE|DICT|INTERRES
    85   42  121 1    
    86   43   44 2    
    87   43   45 1    
    88   45   46 1    
    89   45   47 1    
    90   45  122 1    
    91   46  123 1    
    92   46  124 1    
    93   46  125 1    
    94   47   48 am   BACKBONE|DICT|INTERRES
    95   47  126 1    
    96   48   49 2    
    97   48   50 1    
    98   50   51 1    
    99   50   52 1    
   100   50  127 1    
   101   51  128 1    
   102   51  129 1    
   103   51  130 1    
   104   52   53 am   BACKBONE|DICT|INTERRES
   105   52  131 1    
   106   53   54 2    
   107   53   55 1    
   108   55   56 1    
   109   55   59 1    
   110   55  132 1    
   111   56   57 1    
   112   56  133 1    
   113   56  134 1    
   114   57   58 1    
   115   58  135 1    
   116   58  136 1    
   117   59   60 am   BACKBONE|DICT|INTERRES
   118   59  137 1    
   119   60   61 2    
   120   60   62 1    
   121   62   63 1    
   122   62   64 1    
   123   62  138 1    
   124   63  139 1    
   125   63  140 1    
   126   63  141 1    
   127   64   65 am   BACKBONE|DICT|INTERRES
   128   64  142 1    
   129   65   66 2    
   130   65   67 1    
   131   67   68 1    
   132   67   69 1    
   133   67  143 1    
   134   68  144 1    
   135   68  145 1    
   136   68  146 1    
   137   69   70 am   BACKBONE|DICT|INTERRES
   138   69  147 1    
   139   70   71 2    
   140   70   72 1    
   141   72   73 1    
   142   72   74 1    
   143   72  148 1    
   144   73  149 1    
   145   73  150 1    
   146   73  151 1    
   147   74   75 am   BACKBONE|DICT|INTERRES
   148   74  152 1    
   149   75   76 2    
   150   75   77 1    
   151   77   78 1    
   152   77   79 1    
   153   77  153 1    
   154   78  154 1    
   155   78  155 1    
   156   78  156 1    
   157   79   80 am   BACKBONE|DICT|INTERRES
   158   79  157 1    
   159   80   81 2    
@<TRIPOS>SUBSTRUCTURE
     1 UNK         1 GROUP             0       ****    0 ROOT    
