@<TRIPOS>MOLECULE
3R207
157   159    1
SMALL
USER_CHARGES


@<TRIPOS>ATOM
      1 CA        -44.6509  -30.7475    7.9327 C.3       0 UNK        -0.1975 
      2 C         -45.2141  -30.0385    6.7096 C.2       0 UNK         0.4852 
      3 O         -44.4475  -29.6037    5.8485 O.2       0 UNK        -0.5216 
      4 N         -46.5462  -29.9317    6.6249 N.am      1 UNK        -0.4461 
      5 CA        -47.2700  -29.2099    5.5751 C.3       1 UNK         0.0864 
      6 C6        -48.6870  -29.8083    5.3507 C.3       14 UNK        -0.0898 
      7 S7        -49.8027  -29.7030    6.7928 S.3       14 UNK        -0.2598 
      8 C8        -51.0990  -28.5947    6.1493 C.3       14 UNK         0.0286 
      9 C9        -52.1002  -28.1510    7.2116 C.ar      14 UNK        -0.0844 
     10 C10       -52.4583  -26.8022    7.3024 C.ar      14 UNK        -0.0881 
     11 C11       -53.4044  -26.3753    8.2393 C.ar      14 UNK        -0.0643 
     12 C12       -53.9957  -27.3090    9.0931 C.ar      14 UNK        -0.0930 
     13 C13       -53.6357  -28.6578    9.0265 C.ar      14 UNK        -0.0827 
     14 C14       -52.6979  -29.0749    8.0766 C.ar      14 UNK        -0.1249 
     15 C15       -54.2532  -29.6585    9.9897 C.3       14 UNK         0.0141 
     16 S16       -53.6524  -29.3744   11.6815 S.3       14 UNK        -0.2313 
     17 C17       -54.3130  -30.8348   12.5478 C.3       14 UNK        -0.0915 
     18 CA        -55.7168  -30.6069   13.1660 C.3       13 UNK         0.0968 
     19 C         -56.2023  -31.9062   13.8676 C.2       13 UNK         0.5732 
     20 N         -56.9187  -32.7662   13.1565 N.am      13 UNK        -0.7310 
     21 O         -55.8951  -32.1604   15.0311 O.2       13 UNK        -0.5035 
     22 N         -55.7347  -29.4268   14.0431 N.am      13 UNK        -0.4233 
     23 C         -56.8038  -28.9483   14.6923 C.2       13 UNK         0.4989 
     24 O         -57.9370  -29.4245   14.6106 O.2       13 UNK        -0.4996 
     25 CA        -56.5735  -27.7097   15.5715 C.3       12 UNK         0.0216 
     26 CB        -56.0887  -28.1226   16.9699 C.3       12 UNK        -0.1964 
     27 N         -55.6293  -26.7567   14.9788 N.am      12 UNK        -0.4276 
     28 C         -55.9280  -25.9520   13.9454 C.2       12 UNK         0.5020 
     29 O         -57.0201  -25.9752   13.3747 O.2       12 UNK        -0.5489 
     30 CA        -54.8525  -24.9570   13.4528 C.3       11 UNK         0.0294 
     31 CB        -55.4606  -23.6172   12.9895 C.3       11 UNK        -0.2019 
     32 N         -53.7540  -24.7199   14.3948 N.am      11 UNK        -0.4493 
     33 C         -53.8121  -24.2511   15.6503 C.2       11 UNK         0.4932 
     34 O         -54.8460  -23.8525   16.1883 O.2       11 UNK        -0.5029 
     35 CA        -52.4888  -24.2807   16.4476 C.3       10 UNK         0.0280 
     36 CB        -52.7163  -24.2731   17.9734 C.3       10 UNK        -0.1976 
     37 N         -51.6017  -25.3930   16.0715 N.am      10 UNK        -0.4242 
     38 C         -51.9022  -26.7030   16.0571 C.2       10 UNK         0.5072 
     39 O         -52.9979  -27.1472   16.4033 O.2       10 UNK        -0.5224 
     40 CA        -50.8508  -27.6908   15.5147 C.3       9 UNK         0.0343 
     41 CB        -51.4380  -28.5081   14.3531 C.3       9 UNK        -0.2003 
     42 N         -49.6229  -27.0431   15.0500 N.am      9 UNK        -0.4272 
     43 C         -48.5834  -26.7199   15.8302 C.2       9 UNK         0.4988 
     44 O         -48.5205  -26.9801   17.0321 O.2       9 UNK        -0.5108 
     45 CA        -47.4328  -25.9417   15.1655 C.3       8 UNK         0.0248 
     46 CB        -46.4491  -26.9085   14.4887 C.3       8 UNK        -0.2001 
     47 N         -47.8887  -24.9352   14.1984 N.am      8 UNK        -0.4140 
     48 C         -48.6808  -23.8958   14.5053 C.2       8 UNK         0.5028 
     49 O         -49.1054  -23.6694   15.6386 O.2       8 UNK        -0.5428 
     50 CA        -49.1168  -22.9779   13.3538 C.3       7 UNK         0.0264 
     51 CB        -47.9943  -21.9967   12.9809 C.3       7 UNK        -0.1988 
     52 N         -49.5425  -23.7155   12.1646 N.am      7 UNK        -0.4454 
     53 C         -50.5835  -24.5604   12.1132 C.2       7 UNK         0.5027 
     54 O         -51.3131  -24.8102   13.0720 O.2       7 UNK        -0.5083 
     55 CA        -50.8081  -25.2954   10.7768 C.3       6 UNK         0.0844 
     56 C56       -51.3743  -24.3408    9.6945 C.3       14 UNK        -0.0967 
     57 S57       -53.1783  -24.1227    9.8552 S.3       14 UNK        -0.2604 
     58 C58       -53.7897  -24.9054    8.3286 C.3       14 UNK         0.0134 
     59 N         -49.5887  -25.9792   10.3384 N.am      6 UNK        -0.4116 
     60 C         -48.9304  -26.9060   11.0531 C.2       5 UNK         0.5034 
     61 O         -49.3156  -27.3517   12.1334 O.2       5 UNK        -0.5045 
     62 CA        -47.5765  -27.3758   10.5029 C.3       5 UNK         0.0224 
     63 CB        -47.7548  -28.5846    9.5838 C.3       5 UNK        -0.1978 
     64 N         -46.8557  -26.3140    9.7971 N.am      5 UNK        -0.4737 
     65 C         -46.3415  -25.2428   10.4180 C.2       4 UNK         0.5027 
     66 O         -46.3949  -25.0666   11.6361 O.2       4 UNK        -0.5211 
     67 CA        -45.7113  -24.1656    9.5243 C.3       4 UNK         0.0297 
     68 CB        -44.3979  -24.6666    8.9011 C.3       4 UNK        -0.1993 
     69 N         -46.6175  -23.7122    8.4671 N.am      4 UNK        -0.4486 
     70 C         -47.8075  -23.1246    8.6643 C.2       3 UNK         0.4961 
     71 O         -48.2817  -22.8952    9.7752 O.2       3 UNK        -0.5105 
     72 CA        -48.6177  -22.7296    7.4169 C.3       3 UNK         0.0299 
     73 CB        -48.4287  -21.2364    7.1077 C.3       3 UNK        -0.1972 
     74 N         -48.2702  -23.5187    6.2340 N.am      3 UNK        -0.4305 
     75 C         -48.5624  -24.8161    6.0717 C.2       2 UNK         0.5006 
     76 O         -49.2491  -25.4592    6.8692 O.2       2 UNK        -0.5106 
     77 CA        -47.9960  -25.4864    4.8002 C.3       2 UNK         0.0296 
     78 CB        -46.6251  -24.9110    4.3738 C.3       2 UNK        -0.2002 
     79 N         -47.9075  -26.9495    4.8844 N.am      2 UNK        -0.4032 
     80 C         -47.2583  -27.6773    5.8072 C.2       1 UNK         0.5000 
     81 O         -46.6614  -27.1888    6.7749 O.2       1 UNK        -0.5238 
     82 H82       -44.0693  -30.0494    8.5342 H         1 UNK         0.0889 
     83 H83       -43.9960  -31.5628    7.6265 H         1 UNK         0.0889 
     84 H84       -45.4376  -31.1644    8.5613 H         1 UNK         0.0889 
     85 H85       -47.1265  -30.2921    7.3683 H         1 UNK         0.3028 
     86 H86       -46.7216  -29.3631    4.6429 H         1 UNK         0.0864 
     87 H87       -49.1651  -29.3601    4.4786 H         1 UNK         0.0720 
     88 H88       -48.5886  -30.8653    5.0983 H         1 UNK         0.0720 
     89 H89       -51.6374  -29.1006    5.3469 H         1 UNK         0.0814 
     90 H90       -50.6182  -27.7229    5.7033 H         1 UNK         0.0814 
     91 H91       -51.9989  -26.0807    6.6402 H         1 UNK         0.1469 
     92 H92       -54.7193  -26.9812    9.8271 H         1 UNK         0.1381 
     93 H93       -52.4254  -30.1195    8.0138 H         1 UNK         0.1206 
     94 H94       -55.3400  -29.5692    9.9689 H         1 UNK         0.0813 
     95 H95       -54.0156  -30.6783    9.6844 H         1 UNK         0.0813 
     96 H96       -54.3289  -31.6785   11.8556 H         1 UNK         0.0638 
     97 H97       -53.5971  -31.1013   13.3276 H         1 UNK         0.0638 
     98 H98       -56.4113  -30.3914   12.3520 H         1 UNK         0.0568 
     99 H99       -57.2271  -33.6219   13.5908 H         1 UNK         0.3450 
    100 H100      -57.1646  -32.5754   12.1979 H         1 UNK         0.3450 
    101 H101      -54.8488  -28.9629   14.1704 H         1 UNK         0.2987 
    102 H102      -57.5339  -27.2037   15.6886 H         1 UNK         0.0766 
    103 H103      -55.1485  -28.6728   16.9272 H         1 UNK         0.0798 
    104 H104      -56.8194  -28.7674   17.4599 H         1 UNK         0.0798 
    105 H105      -55.9389  -27.2540   17.6111 H         1 UNK         0.0798 
    106 H106      -54.7113  -26.6931   15.4103 H         1 UNK         0.3198 
    107 H107      -54.3943  -25.4273   12.5811 H         1 UNK         0.0843 
    108 H108      -55.9886  -23.1118   13.7985 H         1 UNK         0.0831 
    109 H109      -56.1735  -23.7690   12.1783 H         1 UNK         0.0831 
    110 H110      -54.6905  -22.9426   12.6154 H         1 UNK         0.0831 
    111 H111      -52.8267  -24.9414   14.0297 H         1 UNK         0.3133 
    112 H112      -51.9555  -23.3662   16.1847 H         1 UNK         0.0566 
    113 H113      -51.7703  -24.2748   18.5146 H         1 UNK         0.0814 
    114 H114      -53.2643  -23.3831   18.2849 H         1 UNK         0.0814 
    115 H115      -53.2913  -25.1407   18.2991 H         1 UNK         0.0814 
    116 H116      -50.6836  -25.1128   15.7452 H         1 UNK         0.3091 
    117 H117      -50.6078  -28.3810   16.3250 H         1 UNK         0.0702 
    118 H118      -52.3182  -29.0701   14.6673 H         1 UNK         0.0785 
    119 H119      -51.7367  -27.8630   13.5255 H         1 UNK         0.0785 
    120 H120      -50.7166  -29.2288   13.9679 H         1 UNK         0.0785 
    121 H121      -49.5715  -26.8425   14.0548 H         1 UNK         0.2998 
    122 H122      -46.8963  -25.4107   15.9544 H         1 UNK         0.0697 
    123 H123      -46.9329  -27.4875   13.7026 H         1 UNK         0.0825 
    124 H124      -46.0417  -27.6176   15.2105 H         1 UNK         0.0825 
    125 H125      -45.6071  -26.3763   14.0455 H         1 UNK         0.0825 
    126 H126      -47.5471  -25.0249   13.2447 H         1 UNK         0.3029 
    127 H127      -49.9740  -22.3981   13.7027 H         1 UNK         0.0897 
    128 H128      -47.1224  -22.5140   12.5782 H         1 UNK         0.0792 
    129 H129      -47.6659  -21.4275   13.8515 H         1 UNK         0.0792 
    130 H130      -48.3296  -21.2795   12.2314 H         1 UNK         0.0792 
    131 H131      -49.0041  -23.5479   11.3152 H         1 UNK         0.3086 
    132 H132      -51.5397  -26.0874   10.9551 H         1 UNK         0.0583 
    133 H133      -50.9035  -23.3572    9.7297 H         1 UNK         0.1020 
    134 H134      -51.1534  -24.7266    8.6992 H         1 UNK         0.1020 
    135 H135      -54.8765  -24.8165    8.2978 H         1 UNK         0.0694 
    136 H136      -53.4127  -24.3507    7.4678 H         1 UNK         0.0694 
    137 H137      -49.1940  -25.6888    9.4548 H         1 UNK         0.2989 
    138 H138      -46.9681  -27.6899   11.3530 H         1 UNK         0.1055 
    139 H139      -48.3183  -29.3794   10.0747 H         1 UNK         0.0806 
    140 H140      -46.7901  -28.9961    9.2912 H         1 UNK         0.0806 
    141 H141      -48.2952  -28.3029    8.6822 H         1 UNK         0.0806 
    142 H142      -46.7773  -26.3987    8.7878 H         1 UNK         0.3061 
    143 H143      -45.4832  -23.3047   10.1564 H         1 UNK         0.0734 
    144 H144      -43.8908  -23.8725    8.3528 H         1 UNK         0.0832 
    145 H145      -43.7095  -25.0156    9.6721 H         1 UNK         0.0832 
    146 H146      -44.5638  -25.4967    8.2125 H         1 UNK         0.0832 
    147 H147      -46.3218  -23.8756    7.5167 H         1 UNK         0.3156 
    148 H148      -49.6731  -22.8975    7.6384 H         1 UNK         0.0589 
    149 H149      -47.3920  -21.0001    6.8643 H         1 UNK         0.0808 
    150 H150      -49.0519  -20.9217    6.2704 H         1 UNK         0.0808 
    151 H151      -48.7091  -20.6233    7.9655 H         1 UNK         0.0808 
    152 H152      -47.7280  -23.0534    5.5203 H         1 UNK         0.3098 
    153 H153      -48.7110  -25.2735    4.0047 H         1 UNK         0.0720 
    154 H154      -46.2303  -25.4418    3.5073 H         1 UNK         0.0791 
    155 H155      -45.8858  -24.9924    5.1716 H         1 UNK         0.0791 
    156 H156      -46.6942  -23.8613    4.0876 H         1 UNK         0.0791 
    157 H157      -48.3858  -27.4458    4.1468 H         1 UNK         0.3028 
@<TRIPOS>BOND
     1    1    2 1    
     2    1   82 1    
     3    1   83 1    
     4    1   84 1    
     5    2    3 2    
     6    2    4 am   BACKBONE|DICT|INTERRES
     7    4    5 1    
     8    4   85 1    
     9    5    6 1    
    10    5   80 1    
    11    5   86 1    
    12    6    7 1    
    13    6   87 1    
    14    6   88 1    
    15    7    8 1    
    16    8    9 1    
    17    8   89 1    
    18    8   90 1    
    19    9   10 ar   
    20    9   14 ar   
    21   10   11 ar   
    22   10   91 1    
    23   11   12 ar   
    24   11   58 1    
    25   12   13 ar   
    26   12   92 1    
    27   13   14 ar   
    28   13   15 1    
    29   14   93 1    
    30   15   16 1    
    31   15   94 1    
    32   15   95 1    
    33   16   17 1    
    34   17   18 1    
    35   17   96 1    
    36   17   97 1    
    37   18   19 1    
    38   18   22 1    
    39   18   98 1    
    40   19   20 am   BACKBONE|DICT|INTERRES
    41   19   21 2    
    42   20   99 1    
    43   20  100 1    
    44   22   23 am   BACKBONE|DICT|INTERRES
    45   22  101 1    
    46   23   24 2    
    47   23   25 1    
    48   25   26 1    
    49   25   27 1    
    50   25  102 1    
    51   26  103 1    
    52   26  104 1    
    53   26  105 1    
    54   27   28 am   BACKBONE|DICT|INTERRES
    55   27  106 1    
    56   28   29 2    
    57   28   30 1    
    58   30   31 1    
    59   30   32 1    
    60   30  107 1    
    61   31  108 1    
    62   31  109 1    
    63   31  110 1    
    64   32   33 am   BACKBONE|DICT|INTERRES
    65   32  111 1    
    66   33   34 2    
    67   33   35 1    
    68   35   36 1    
    69   35   37 1    
    70   35  112 1    
    71   36  113 1    
    72   36  114 1    
    73   36  115 1    
    74   37   38 am   BACKBONE|DICT|INTERRES
    75   37  116 1    
    76   38   39 2    
    77   38   40 1    
    78   40   41 1    
    79   40   42 1    
    80   40  117 1    
    81   41  118 1    
    82   41  119 1    
    83   41  120 1    
    84   42   43 am   BACKBONE|DICT|INTERRES
    85   42  121 1    
    86   43   44 2    
    87   43   45 1    
    88   45   46 1    
    89   45   47 1    
    90   45  122 1    
    91   46  123 1    
    92   46  124 1    
    93   46  125 1    
    94   47   48 am   BACKBONE|DICT|INTERRES
    95   47  126 1    
    96   48   49 2    
    97   48   50 1    
    98   50   51 1    
    99   50   52 1    
   100   50  127 1    
   101   51  128 1    
   102   51  129 1    
   103   51  130 1    
   104   52   53 am   BACKBONE|DICT|INTERRES
   105   52  131 1    
   106   53   54 2    
   107   53   55 1    
   108   55   56 1    
   109   55   59 1    
   110   55  132 1    
   111   56   57 1    
   112   56  133 1    
   113   56  134 1    
   114   57   58 1    
   115   58  135 1    
   116   58  136 1    
   117   59   60 am   BACKBONE|DICT|INTERRES
   118   59  137 1    
   119   60   61 2    
   120   60   62 1    
   121   62   63 1    
   122   62   64 1    
   123   62  138 1    
   124   63  139 1    
   125   63  140 1    
   126   63  141 1    
   127   64   65 am   BACKBONE|DICT|INTERRES
   128   64  142 1    
   129   65   66 2    
   130   65   67 1    
   131   67   68 1    
   132   67   69 1    
   133   67  143 1    
   134   68  144 1    
   135   68  145 1    
   136   68  146 1    
   137   69   70 am   BACKBONE|DICT|INTERRES
   138   69  147 1    
   139   70   71 2    
   140   70   72 1    
   141   72   73 1    
   142   72   74 1    
   143   72  148 1    
   144   73  149 1    
   145   73  150 1    
   146   73  151 1    
   147   74   75 am   BACKBONE|DICT|INTERRES
   148   74  152 1    
   149   75   76 2    
   150   75   77 1    
   151   77   78 1    
   152   77   79 1    
   153   77  153 1    
   154   78  154 1    
   155   78  155 1    
   156   78  156 1    
   157   79   80 am   BACKBONE|DICT|INTERRES
   158   79  157 1    
   159   80   81 2    
@<TRIPOS>SUBSTRUCTURE
     1 UNK         1 GROUP             0       ****    0 ROOT    
