@<TRIPOS>MOLECULE
3R207
157   159    1
SMALL
USER_CHARGES


@<TRIPOS>ATOM
      1 CA        -46.1793  -31.2780    7.7692 C.3       0 UNK        -0.1975 
      2 C         -46.8074  -30.7122    6.5039 C.2       0 UNK         0.4852 
      3 O         -47.2152  -31.4766    5.6283 O.2       0 UNK        -0.5216 
      4 N         -46.8770  -29.3822    6.3986 N.am      1 UNK        -0.4461 
      5 CA        -47.4058  -28.6377    5.2581 C.3       1 UNK         0.0864 
      6 C6        -48.9550  -28.7091    5.1399 C.3       14 UNK        -0.0898 
      7 S7        -49.8830  -27.9955    6.5448 S.3       14 UNK        -0.2598 
      8 C8        -51.5748  -28.4019    6.0086 C.3       14 UNK         0.0286 
      9 C9        -52.6307  -27.9507    7.0085 C.ar      14 UNK        -0.0844 
     10 C10       -52.8414  -26.5879    7.2393 C.ar      14 UNK        -0.0881 
     11 C11       -53.8415  -26.1630    8.1194 C.ar      14 UNK        -0.0643 
     12 C12       -54.6544  -27.1106    8.7432 C.ar      14 UNK        -0.0930 
     13 C13       -54.4564  -28.4777    8.5248 C.ar      14 UNK        -0.0827 
     14 C14       -53.4351  -28.8913    7.6625 C.ar      14 UNK        -0.1249 
     15 C15       -55.3874  -29.5022    9.1638 C.3       14 UNK         0.0141 
     16 S16       -55.6617  -29.2080   10.9421 S.3       14 UNK        -0.2313 
     17 C17       -54.2383  -30.0532   11.7062 C.3       14 UNK        -0.0915 
     18 CA        -54.6200  -30.5888   13.1115 C.3       13 UNK         0.0968 
     19 C         -53.5520  -31.5667   13.6728 C.2       13 UNK         0.5732 
     20 N         -53.4693  -32.7698   13.1212 N.am      13 UNK        -0.7310 
     21 O         -52.7892  -31.2506   14.5833 O.2       13 UNK        -0.5035 
     22 N         -54.9174  -29.4795   14.0283 N.am      13 UNK        -0.4233 
     23 C         -55.6949  -29.5588   15.1138 C.2       13 UNK         0.4989 
     24 O         -56.2786  -30.5878   15.4588 O.2       13 UNK        -0.4996 
     25 CA        -55.8634  -28.2844   15.9675 C.3       12 UNK         0.0216 
     26 CB        -55.2932  -28.5059   17.3780 C.3       12 UNK        -0.1964 
     27 N         -55.2595  -27.0801   15.3761 N.am      12 UNK        -0.4276 
     28 C         -55.8107  -26.3698   14.3781 C.2       12 UNK         0.5020 
     29 O         -56.8999  -26.6572   13.8796 O.2       12 UNK        -0.5489 
     30 CA        -55.0208  -25.1720   13.8035 C.3       11 UNK         0.0294 
     31 CB        -55.9389  -23.9976   13.4055 C.3       11 UNK        -0.2019 
     32 N         -53.9043  -24.7038   14.6335 N.am      11 UNK        -0.4493 
     33 C         -53.9450  -24.1631   15.8605 C.2       11 UNK         0.4932 
     34 O         -54.9820  -23.9496   16.4899 O.2       11 UNK        -0.5029 
     35 CA        -52.5683  -23.8625   16.4922 C.3       10 UNK         0.0280 
     36 CB        -52.6528  -23.4671   17.9814 C.3       10 UNK        -0.1976 
     37 N         -51.6277  -24.9743   16.2916 N.am      10 UNK        -0.4242 
     38 C         -51.8001  -26.2470   16.6812 C.2       10 UNK         0.5072 
     39 O         -52.7314  -26.6189   17.3929 O.2       10 UNK        -0.5224 
     40 CA        -50.8355  -27.3101   16.1302 C.3       9 UNK         0.0343 
     41 CB        -51.5766  -28.2016   15.1208 C.3       9 UNK        -0.2003 
     42 N         -49.6466  -26.7502   15.4853 N.am      9 UNK        -0.4272 
     43 C         -48.5720  -26.3033   16.1495 C.2       9 UNK         0.4988 
     44 O         -48.4614  -26.3358   17.3757 O.2       9 UNK        -0.5108 
     45 CA        -47.4322  -25.7058   15.3079 C.3       8 UNK         0.0248 
     46 CB        -46.5498  -26.8220   14.7269 C.3       8 UNK        -0.2001 
     47 N         -47.9008  -24.8293   14.2298 N.am      8 UNK        -0.4140 
     48 C         -48.5755  -23.6851   14.4185 C.2       8 UNK         0.5028 
     49 O         -48.8837  -23.2433   15.5256 O.2       8 UNK        -0.5428 
     50 CA        -49.0114  -22.9142   13.1624 C.3       7 UNK         0.0264 
     51 CB        -47.8287  -22.1477   12.5489 C.3       7 UNK        -0.1988 
     52 N         -49.6183  -23.7723   12.1456 N.am      7 UNK        -0.4454 
     53 C         -50.7453  -24.4817   12.3101 C.2       7 UNK         0.5027 
     54 O         -51.4139  -24.4924   13.3438 O.2       7 UNK        -0.5083 
     55 CA        -51.1657  -25.3685   11.1243 C.3       6 UNK         0.0844 
     56 C56       -51.7090  -24.5074    9.9531 C.3       14 UNK        -0.0967 
     57 S57       -53.5047  -24.2183   10.0710 S.3       14 UNK        -0.2604 
     58 C58       -54.0565  -24.6823    8.3967 C.3       14 UNK         0.0134 
     59 N         -50.0665  -26.2442   10.7080 N.am      6 UNK        -0.4116 
     60 C         -49.4480  -27.1466   11.4855 C.2       5 UNK         0.5034 
     61 O         -49.7720  -27.4036   12.6433 O.2       5 UNK        -0.5045 
     62 CA        -48.2117  -27.8343   10.8852 C.3       5 UNK         0.0224 
     63 CB        -48.6170  -29.0774   10.0794 C.3       5 UNK        -0.1978 
     64 N         -47.4271  -26.9223   10.0474 N.am      5 UNK        -0.4737 
     65 C         -46.7741  -25.8494   10.5197 C.2       4 UNK         0.5027 
     66 O         -46.7049  -25.5583   11.7129 O.2       4 UNK        -0.5211 
     67 CA        -46.1612  -24.9069    9.4766 C.3       4 UNK         0.0297 
     68 CB        -44.7894  -25.4197    9.0121 C.3       4 UNK        -0.1993 
     69 N         -47.0489  -24.7270    8.3252 N.am      4 UNK        -0.4486 
     70 C         -48.2068  -24.0495    8.3671 C.2       3 UNK         0.4961 
     71 O         -48.6336  -23.5258    9.3973 O.2       3 UNK        -0.5105 
     72 CA        -49.0708  -23.9823    7.0880 C.3       3 UNK         0.0299 
     73 CB        -49.6343  -22.5680    6.8426 C.3       3 UNK        -0.1972 
     74 N         -48.4274  -24.5216    5.8841 N.am      3 UNK        -0.4305 
     75 C         -47.3321  -24.0694    5.2525 C.2       2 UNK         0.5006 
     76 O         -46.7642  -23.0137    5.5349 O.2       2 UNK        -0.5106 
     77 CA        -46.7483  -24.9808    4.1475 C.3       2 UNK         0.0296 
     78 CB        -45.2173  -24.8275    4.0194 C.3       2 UNK        -0.2002 
     79 N         -47.1043  -26.4050    4.2845 N.am      2 UNK        -0.4032 
     80 C         -46.8811  -27.1947    5.3482 C.2       1 UNK         0.5000 
     81 O         -46.3388  -26.8085    6.3897 O.2       1 UNK        -0.5238 
     82 H82       -46.9292  -31.8099    8.3541 H         1 UNK         0.0889 
     83 H83       -45.7486  -30.4964    8.3949 H         1 UNK         0.0889 
     84 H84       -45.3856  -31.9794    7.5133 H         1 UNK         0.0889 
     85 H85       -46.4795  -28.7793    7.1084 H         1 UNK         0.3028 
     86 H86       -46.9700  -29.0702    4.3548 H         1 UNK         0.0864 
     87 H87       -49.2869  -28.2158    4.2249 H         1 UNK         0.0720 
     88 H88       -49.2604  -29.7505    5.0285 H         1 UNK         0.0720 
     89 H89       -51.6438  -29.4778    5.8403 H         1 UNK         0.0814 
     90 H90       -51.7713  -27.9272    5.0462 H         1 UNK         0.0814 
     91 H91       -52.2236  -25.8600    6.7316 H         1 UNK         0.1469 
     92 H92       -55.4426  -26.7784    9.4050 H         1 UNK         0.1381 
     93 H93       -53.2868  -29.9461    7.4754 H         1 UNK         0.1206 
     94 H94       -56.3510  -29.4450    8.6560 H         1 UNK         0.0813 
     95 H95       -55.0241  -30.5191    9.0091 H         1 UNK         0.0813 
     96 H96       -53.9258  -30.8697   11.0533 H         1 UNK         0.0638 
     97 H97       -53.3963  -29.3606   11.7614 H         1 UNK         0.0638 
     98 H98       -55.5349  -31.1756   13.0048 H         1 UNK         0.0568 
     99 H99       -54.0865  -33.0468   12.3740 H         1 UNK         0.3450 
    100 H100      -52.7789  -33.4176   13.4669 H         1 UNK         0.3450 
    101 H101      -54.4686  -28.6023   13.8219 H         1 UNK         0.2987 
    102 H102      -56.9366  -28.1098   16.0695 H         1 UNK         0.0766 
    103 H103      -55.3844  -27.6096   17.9922 H         1 UNK         0.0798 
    104 H104      -54.2407  -28.7890   17.3482 H         1 UNK         0.0798 
    105 H105      -55.8266  -29.3060   17.8929 H         1 UNK         0.0798 
    106 H106      -54.3894  -26.7614   15.7843 H         1 UNK         0.3198 
    107 H107      -54.5617  -25.5436   12.8857 H         1 UNK         0.0843 
    108 H108      -56.4855  -23.6019   14.2618 H         1 UNK         0.0831 
    109 H109      -56.6766  -24.3096   12.6651 H         1 UNK         0.0831 
    110 H110      -55.3675  -23.1818   12.9625 H         1 UNK         0.0831 
    111 H111      -52.9831  -24.7727   14.1992 H         1 UNK         0.3133 
    112 H112      -52.1565  -23.0127   15.9456 H         1 UNK         0.0566 
    113 H113      -51.6654  -23.2525   18.3900 H         1 UNK         0.0814 
    114 H114      -53.2599  -22.5705   18.1120 H         1 UNK         0.0814 
    115 H115      -53.1031  -24.2540   18.5872 H         1 UNK         0.0814 
    116 H116      -50.8475  -24.7742   15.6782 H         1 UNK         0.3091 
    117 H117      -50.5211  -27.9352   16.9686 H         1 UNK         0.0702 
    118 H118      -52.4274  -28.6978   15.5883 H         1 UNK         0.0785 
    119 H119      -51.9546  -27.6270   14.2742 H         1 UNK         0.0785 
    120 H120      -50.9267  -28.9846   14.7294 H         1 UNK         0.0785 
    121 H121      -49.6448  -26.7431   14.4682 H         1 UNK         0.2998 
    122 H122      -46.8145  -25.1001   15.9743 H         1 UNK         0.0697 
    123 H123      -47.1026  -27.4481   14.0261 H         1 UNK         0.0825 
    124 H124      -46.1696  -27.4715   15.5164 H         1 UNK         0.0825 
    125 H125      -45.6873  -26.4125   14.2008 H         1 UNK         0.0825 
    126 H126      -47.6439  -25.0971   13.2815 H         1 UNK         0.3029 
    127 H127      -49.7662  -22.1866   13.4688 H         1 UNK         0.0897 
    128 H128      -47.0505  -22.8227   12.1907 H         1 UNK         0.0792 
    129 H129      -47.3723  -21.4811   13.2819 H         1 UNK         0.0792 
    130 H130      -48.1492  -21.5340   11.7067 H         1 UNK         0.0792 
    131 H131      -49.1527  -23.8027   11.2415 H         1 UNK         0.3086 
    132 H132      -51.9594  -26.0336   11.4723 H         1 UNK         0.0583 
    133 H133      -51.2112  -23.5390    9.8763 H         1 UNK         0.1020 
    134 H134      -51.5002  -25.0022    9.0072 H         1 UNK         0.1020 
    135 H135      -55.1170  -24.4467    8.2965 H         1 UNK         0.0694 
    136 H136      -53.5352  -24.0670    7.6614 H         1 UNK         0.0694 
    137 H137      -49.6983  -26.0978    9.7819 H         1 UNK         0.2989 
    138 H138      -47.5787  -28.1576   11.7143 H         1 UNK         0.1055 
    139 H139      -49.1502  -29.7902   10.7102 H         1 UNK         0.0806 
    140 H140      -47.7454  -29.5924    9.6778 H         1 UNK         0.0806 
    141 H141      -49.2759  -28.8281    9.2486 H         1 UNK         0.0806 
    142 H142      -47.4344  -27.0792    9.0497 H         1 UNK         0.3061 
    143 H143      -46.0169  -23.9325    9.9487 H         1 UNK         0.0734 
    144 H144      -44.3430  -24.7492    8.2775 H         1 UNK         0.0832 
    145 H145      -44.0971  -25.4882    9.8523 H         1 UNK         0.0832 
    146 H146      -44.8539  -26.4116    8.5641 H         1 UNK         0.0832 
    147 H147      -46.7799  -25.2003    7.4674 H         1 UNK         0.3156 
    148 H148      -49.9197  -24.6403    7.2735 H         1 UNK         0.0589 
    149 H149      -48.8409  -21.8314    6.7137 H         1 UNK         0.0808 
    150 H150      -50.2664  -22.5405    5.9552 H         1 UNK         0.0808 
    151 H151      -50.2457  -22.2383    7.6835 H         1 UNK         0.0808 
    152 H152      -48.8039  -25.4024    5.5623 H         1 UNK         0.3098 
    153 H153      -47.1954  -24.6408    3.2122 H         1 UNK         0.0720 
    154 H154      -44.8200  -25.4600    3.2257 H         1 UNK         0.0791 
    155 H155      -44.7065  -25.0918    4.9462 H         1 UNK         0.0791 
    156 H156      -44.9424  -23.7998    3.7782 H         1 UNK         0.0791 
    157 H157      -47.5722  -26.8082    3.4839 H         1 UNK         0.3028 
@<TRIPOS>BOND
     1    1    2 1    
     2    1   82 1    
     3    1   83 1    
     4    1   84 1    
     5    2    3 2    
     6    2    4 am   BACKBONE|DICT|INTERRES
     7    4    5 1    
     8    4   85 1    
     9    5    6 1    
    10    5   80 1    
    11    5   86 1    
    12    6    7 1    
    13    6   87 1    
    14    6   88 1    
    15    7    8 1    
    16    8    9 1    
    17    8   89 1    
    18    8   90 1    
    19    9   10 ar   
    20    9   14 ar   
    21   10   11 ar   
    22   10   91 1    
    23   11   12 ar   
    24   11   58 1    
    25   12   13 ar   
    26   12   92 1    
    27   13   14 ar   
    28   13   15 1    
    29   14   93 1    
    30   15   16 1    
    31   15   94 1    
    32   15   95 1    
    33   16   17 1    
    34   17   18 1    
    35   17   96 1    
    36   17   97 1    
    37   18   19 1    
    38   18   22 1    
    39   18   98 1    
    40   19   20 am   BACKBONE|DICT|INTERRES
    41   19   21 2    
    42   20   99 1    
    43   20  100 1    
    44   22   23 am   BACKBONE|DICT|INTERRES
    45   22  101 1    
    46   23   24 2    
    47   23   25 1    
    48   25   26 1    
    49   25   27 1    
    50   25  102 1    
    51   26  103 1    
    52   26  104 1    
    53   26  105 1    
    54   27   28 am   BACKBONE|DICT|INTERRES
    55   27  106 1    
    56   28   29 2    
    57   28   30 1    
    58   30   31 1    
    59   30   32 1    
    60   30  107 1    
    61   31  108 1    
    62   31  109 1    
    63   31  110 1    
    64   32   33 am   BACKBONE|DICT|INTERRES
    65   32  111 1    
    66   33   34 2    
    67   33   35 1    
    68   35   36 1    
    69   35   37 1    
    70   35  112 1    
    71   36  113 1    
    72   36  114 1    
    73   36  115 1    
    74   37   38 am   BACKBONE|DICT|INTERRES
    75   37  116 1    
    76   38   39 2    
    77   38   40 1    
    78   40   41 1    
    79   40   42 1    
    80   40  117 1    
    81   41  118 1    
    82   41  119 1    
    83   41  120 1    
    84   42   43 am   BACKBONE|DICT|INTERRES
    85   42  121 1    
    86   43   44 2    
    87   43   45 1    
    88   45   46 1    
    89   45   47 1    
    90   45  122 1    
    91   46  123 1    
    92   46  124 1    
    93   46  125 1    
    94   47   48 am   BACKBONE|DICT|INTERRES
    95   47  126 1    
    96   48   49 2    
    97   48   50 1    
    98   50   51 1    
    99   50   52 1    
   100   50  127 1    
   101   51  128 1    
   102   51  129 1    
   103   51  130 1    
   104   52   53 am   BACKBONE|DICT|INTERRES
   105   52  131 1    
   106   53   54 2    
   107   53   55 1    
   108   55   56 1    
   109   55   59 1    
   110   55  132 1    
   111   56   57 1    
   112   56  133 1    
   113   56  134 1    
   114   57   58 1    
   115   58  135 1    
   116   58  136 1    
   117   59   60 am   BACKBONE|DICT|INTERRES
   118   59  137 1    
   119   60   61 2    
   120   60   62 1    
   121   62   63 1    
   122   62   64 1    
   123   62  138 1    
   124   63  139 1    
   125   63  140 1    
   126   63  141 1    
   127   64   65 am   BACKBONE|DICT|INTERRES
   128   64  142 1    
   129   65   66 2    
   130   65   67 1    
   131   67   68 1    
   132   67   69 1    
   133   67  143 1    
   134   68  144 1    
   135   68  145 1    
   136   68  146 1    
   137   69   70 am   BACKBONE|DICT|INTERRES
   138   69  147 1    
   139   70   71 2    
   140   70   72 1    
   141   72   73 1    
   142   72   74 1    
   143   72  148 1    
   144   73  149 1    
   145   73  150 1    
   146   73  151 1    
   147   74   75 am   BACKBONE|DICT|INTERRES
   148   74  152 1    
   149   75   76 2    
   150   75   77 1    
   151   77   78 1    
   152   77   79 1    
   153   77  153 1    
   154   78  154 1    
   155   78  155 1    
   156   78  156 1    
   157   79   80 am   BACKBONE|DICT|INTERRES
   158   79  157 1    
   159   80   81 2    
@<TRIPOS>SUBSTRUCTURE
     1 UNK         1 GROUP             0       ****    0 ROOT    
