@<TRIPOS>MOLECULE
3R207
157   159    1
SMALL
USER_CHARGES


@<TRIPOS>ATOM
      1 CA        -49.1458  -31.8720    6.6242 C.3       0 UNK        -0.1975 
      2 C         -48.8465  -30.6865    5.7189 C.2       0 UNK         0.4852 
      3 O         -48.5714  -30.8739    4.5337 O.2       0 UNK        -0.5216 
      4 N         -48.8864  -29.4664    6.2713 N.am      1 UNK        -0.4461 
      5 CA        -48.6613  -28.2037    5.5544 C.3       1 UNK         0.0864 
      6 C6        -49.4408  -27.0359    6.2146 C.3       14 UNK        -0.0898 
      7 S7        -48.7895  -26.4622    7.8257 S.3       14 UNK        -0.2598 
      8 C8        -49.7480  -27.4325    9.0391 C.3       14 UNK         0.0286 
      9 C9        -51.2671  -27.2812    8.9640 C.ar      14 UNK        -0.0844 
     10 C10       -51.8811  -26.0919    8.5484 C.ar      14 UNK        -0.0881 
     11 C11       -53.2730  -25.9495    8.5990 C.ar      14 UNK        -0.0643 
     12 C12       -54.0532  -27.0306    9.0140 C.ar      14 UNK        -0.0930 
     13 C13       -53.4589  -28.2284    9.4175 C.ar      14 UNK        -0.0827 
     14 C14       -52.0674  -28.3464    9.3886 C.ar      14 UNK        -0.1249 
     15 C15       -54.3242  -29.3809    9.9066 C.3       14 UNK         0.0141 
     16 S16       -55.2661  -28.9009   11.3857 S.3       14 UNK        -0.2313 
     17 C17       -56.1893  -30.4321   11.7580 C.3       14 UNK        -0.0915 
     18 CA        -56.0868  -30.8665   13.2460 C.3       13 UNK         0.0968 
     19 C         -54.7780  -31.6487   13.5612 C.2       13 UNK         0.5732 
     20 N         -53.9206  -31.1916   14.4671 N.am      13 UNK        -0.7310 
     21 O         -54.5485  -32.7099   12.9859 O.2       13 UNK        -0.5035 
     22 N         -56.3587  -29.7350   14.1406 N.am      13 UNK        -0.4233 
     23 C         -56.8236  -29.8107   15.3904 C.2       13 UNK         0.4989 
     24 O         -57.1592  -30.8654   15.9315 O.2       13 UNK        -0.4996 
     25 CA        -56.9281  -28.4869   16.1670 C.3       12 UNK         0.0216 
     26 CB        -56.4597  -28.6538   17.6243 C.3       12 UNK        -0.1964 
     27 N         -56.1282  -27.4277   15.5434 N.am      12 UNK        -0.4276 
     28 C         -56.5963  -26.2725   15.0477 C.2       12 UNK         0.5020 
     29 O         -57.7969  -26.0105   14.9553 O.2       12 UNK        -0.5489 
     30 CA        -55.5477  -25.2293   14.5867 C.3       11 UNK         0.0294 
     31 CB        -56.0575  -23.7781   14.7031 C.3       11 UNK        -0.2019 
     32 N         -54.2468  -25.3740   15.2547 N.am      11 UNK        -0.4493 
     33 C         -54.0103  -25.3935   16.5776 C.2       11 UNK         0.4932 
     34 O         -54.8406  -25.0613   17.4244 O.2       11 UNK        -0.5029 
     35 CA        -52.6390  -25.9273   17.0421 C.3       10 UNK         0.0280 
     36 CB        -52.7589  -26.7836   18.3199 C.3       10 UNK        -0.1976 
     37 N         -51.8863  -26.6628   16.0157 N.am      10 UNK        -0.4242 
     38 C         -52.2515  -27.7580   15.3239 C.2       10 UNK         0.5072 
     39 O         -53.3359  -28.3300   15.4719 O.2       10 UNK        -0.5224 
     40 CA        -51.2709  -28.2665   14.2463 C.3       9 UNK         0.0343 
     41 CB        -51.9885  -28.5165   12.9107 C.3       9 UNK        -0.2003 
     42 N         -50.1960  -27.3058   13.9981 N.am      9 UNK        -0.4272 
     43 C         -48.9410  -27.3919   14.4584 C.2       9 UNK         0.4988 
     44 O         -48.5004  -28.3574   15.0820 O.2       9 UNK        -0.5108 
     45 CA        -48.0299  -26.1739   14.2091 C.3       8 UNK         0.0248 
     46 CB        -47.1584  -26.4034   12.9650 C.3       8 UNK        -0.2001 
     47 N         -48.7750  -24.9162   14.0624 N.am      8 UNK        -0.4140 
     48 C         -49.4822  -24.3421   15.0509 C.2       8 UNK         0.5028 
     49 O         -49.5157  -24.7839   16.1987 O.2       8 UNK        -0.5428 
     50 CA        -50.3555  -23.1203   14.7075 C.3       7 UNK         0.0264 
     51 CB        -49.6188  -21.8187   15.0603 C.3       7 UNK        -0.1988 
     52 N         -50.7737  -23.0730   13.3057 N.am      7 UNK        -0.4454 
     53 C         -51.5260  -23.9926   12.6817 C.2       7 UNK         0.5027 
     54 O         -52.0544  -24.9440   13.2606 O.2       7 UNK        -0.5083 
     55 CA        -51.6375  -23.8767   11.1471 C.3       6 UNK         0.0844 
     56 C56       -53.0620  -23.4624   10.6911 C.3       14 UNK        -0.0967 
     57 S57       -53.1587  -23.1436    8.8880 S.3       14 UNK        -0.2604 
     58 C58       -53.9601  -24.6410    8.2184 C.3       14 UNK         0.0134 
     59 N         -50.5894  -23.0307   10.5567 N.am      6 UNK        -0.4116 
     60 C         -49.2939  -23.3559   10.4825 C.2       5 UNK         0.5034 
     61 O         -48.8104  -24.3744   10.9798 O.2       5 UNK        -0.5045 
     62 CA        -48.3778  -22.3659    9.7636 C.3       5 UNK         0.0224 
     63 CB        -47.3555  -21.7527   10.7382 C.3       5 UNK        -0.1978 
     64 N         -47.6895  -23.0789    8.6942 N.am      5 UNK        -0.4737 
     65 C         -47.2165  -22.5220    7.5727 C.2       4 UNK         0.5027 
     66 O         -47.3190  -21.3202    7.3204 O.2       4 UNK        -0.5211 
     67 CA        -46.5280  -23.4601    6.5576 C.3       4 UNK         0.0297 
     68 CB        -45.4961  -22.7291    5.6729 C.3       4 UNK        -0.1993 
     69 N         -45.9360  -24.6578    7.1657 N.am      4 UNK        -0.4486 
     70 C         -44.9656  -24.7156    8.0919 C.2       3 UNK         0.4961 
     71 O         -44.3791  -23.7326    8.5450 O.2       3 UNK        -0.5105 
     72 CA        -44.6018  -26.1121    8.6278 C.3       3 UNK         0.0299 
     73 CB        -45.3187  -26.3659    9.9639 C.3       3 UNK        -0.1972 
     74 N         -44.9293  -27.1933    7.6945 N.am      3 UNK        -0.4305 
     75 C         -44.2520  -27.4587    6.5675 C.2       2 UNK         0.5006 
     76 O         -43.2372  -26.8545    6.2185 O.2       2 UNK        -0.5106 
     77 CA        -44.8021  -28.5831    5.6718 C.3       2 UNK         0.0296 
     78 CB        -44.1138  -29.9182    5.9993 C.3       2 UNK        -0.2002 
     79 N         -46.2552  -28.7506    5.7729 N.am      2 UNK        -0.4032 
     80 C         -47.1664  -27.8726    5.3253 C.2       1 UNK         0.5000 
     81 O         -46.8640  -26.8146    4.7706 O.2       1 UNK        -0.5238 
     82 H82       -50.0028  -32.4266    6.2429 H         1 UNK         0.0889 
     83 H83       -49.3709  -31.5613    7.6443 H         1 UNK         0.0889 
     84 H84       -48.2905  -32.5465    6.6555 H         1 UNK         0.0889 
     85 H85       -49.1192  -29.3727    7.2484 H         1 UNK         0.3028 
     86 H86       -49.0811  -28.3228    4.5530 H         1 UNK         0.0864 
     87 H87       -49.4396  -26.1740    5.5447 H         1 UNK         0.0720 
     88 H88       -50.4918  -27.3079    6.3181 H         1 UNK         0.0720 
     89 H89       -49.4314  -27.1254   10.0370 H         1 UNK         0.0814 
     90 H90       -49.4685  -28.4817    8.9437 H         1 UNK         0.0814 
     91 H91       -51.2757  -25.2541    8.2324 H         1 UNK         0.1469 
     92 H92       -55.1300  -26.9358    9.0499 H         1 UNK         0.1381 
     93 H93       -51.6044  -29.2657    9.7201 H         1 UNK         0.1206 
     94 H94       -53.7138  -30.2548   10.1397 H         1 UNK         0.0813 
     95 H95       -55.0135  -29.6774    9.1148 H         1 UNK         0.0813 
     96 H96       -55.8766  -31.2364   11.0895 H         1 UNK         0.0638 
     97 H97       -57.2351  -30.2417   11.5129 H         1 UNK         0.0638 
     98 H98       -56.8837  -31.5947   13.4077 H         1 UNK         0.0568 
     99 H99       -53.0915  -31.7272   14.6651 H         1 UNK         0.3450 
    100 H100      -54.0605  -30.2964   14.9160 H         1 UNK         0.3450 
    101 H101      -56.1012  -28.8298   13.7761 H         1 UNK         0.2987 
    102 H102      -57.9841  -28.2104   16.1762 H         1 UNK         0.0766 
    103 H103      -57.0838  -29.3698   18.1605 H         1 UNK         0.0798 
    104 H104      -56.5114  -27.7098   18.1675 H         1 UNK         0.0798 
    105 H105      -55.4309  -29.0127   17.6753 H         1 UNK         0.0798 
    106 H106      -55.1211  -27.5801   15.5507 H         1 UNK         0.3198 
    107 H107      -55.3674  -25.4331   13.5299 H         1 UNK         0.0843 
    108 H108      -56.3163  -23.5226   15.7310 H         1 UNK         0.0831 
    109 H109      -56.9505  -23.6261   14.0958 H         1 UNK         0.0831 
    110 H110      -55.3077  -23.0662   14.3581 H         1 UNK         0.0831 
    111 H111      -53.4666  -25.5805   14.6381 H         1 UNK         0.3133 
    112 H112      -52.0424  -25.0477   17.2863 H         1 UNK         0.0566 
    113 H113      -51.7818  -27.1277   18.6588 H         1 UNK         0.0814 
    114 H114      -53.3861  -27.6608   18.1602 H         1 UNK         0.0814 
    115 H115      -53.1994  -26.2135   19.1388 H         1 UNK         0.0814 
    116 H116      -50.9716  -26.2726   15.8203 H         1 UNK         0.3091 
    117 H117      -50.8619  -29.2142   14.6013 H         1 UNK         0.0702 
    118 H118      -51.2931  -28.8830   12.1566 H         1 UNK         0.0785 
    119 H119      -52.4568  -27.6109   12.5224 H         1 UNK         0.0785 
    120 H120      -52.7698  -29.2667   13.0124 H         1 UNK         0.0785 
    121 H121      -50.4766  -26.4620   13.5138 H         1 UNK         0.2998 
    122 H122      -47.3705  -26.0719   15.0736 H         1 UNK         0.0697 
    123 H123      -47.7638  -26.5632   12.0721 H         1 UNK         0.0825 
    124 H124      -46.5253  -27.2829   13.0888 H         1 UNK         0.0825 
    125 H125      -46.5017  -25.5539   12.7780 H         1 UNK         0.0825 
    126 H126      -48.8032  -24.5167   13.1308 H         1 UNK         0.3029 
    127 H127      -51.2581  -23.1834   15.3193 H         1 UNK         0.0897 
    128 H128      -48.7161  -21.6889   14.4617 H         1 UNK         0.0792 
    129 H129      -49.3176  -21.8135   16.1090 H         1 UNK         0.0792 
    130 H130      -50.2548  -20.9469   14.9048 H         1 UNK         0.0792 
    131 H131      -50.3935  -22.3221   12.7488 H         1 UNK         0.3086 
    132 H132      -51.4596  -24.8899   10.7912 H         1 UNK         0.0583 
    133 H133      -53.7878  -24.2306   10.9661 H         1 UNK         0.1020 
    134 H134      -53.3774  -22.5520   11.2045 H         1 UNK         0.1020 
    135 H135      -54.9995  -24.6432    8.5506 H         1 UNK         0.0694 
    136 H136      -53.9853  -24.5659    7.1307 H         1 UNK         0.0694 
    137 H137      -50.9138  -22.1862   10.1076 H         1 UNK         0.2989 
    138 H138      -48.9835  -21.5654    9.3324 H         1 UNK         0.1055 
    139 H139      -46.7081  -22.5150   11.1742 H         1 UNK         0.0806 
    140 H140      -46.7184  -21.0237   10.2371 H         1 UNK         0.0806 
    141 H141      -47.8548  -21.2366   11.5591 H         1 UNK         0.0806 
    142 H142      -47.6082  -24.0797    8.8231 H         1 UNK         0.3061 
    143 H143      -47.3220  -23.8229    5.9029 H         1 UNK         0.0734 
    144 H144      -44.7011  -22.2782    6.2674 H         1 UNK         0.0832 
    145 H145      -45.0359  -23.4098    4.9567 H         1 UNK         0.0832 
    146 H146      -45.9669  -21.9290    5.1005 H         1 UNK         0.0832 
    147 H147      -46.3404  -25.5328    6.8595 H         1 UNK         0.3156 
    148 H148      -43.5249  -26.1280    8.8091 H         1 UNK         0.0589 
    149 H149      -46.4036  -26.3587    9.8518 H         1 UNK         0.0808 
    150 H150      -45.0643  -25.5943   10.6919 H         1 UNK         0.0808 
    151 H151      -45.0305  -27.3240   10.3967 H         1 UNK         0.0808 
    152 H152      -45.7413  -27.7525    7.9105 H         1 UNK         0.3098 
    153 H153      -44.5659  -28.3221    4.6379 H         1 UNK         0.0720 
    154 H154      -43.0304  -29.8319    5.9039 H         1 UNK         0.0791 
    155 H155      -44.4345  -30.7076    5.3190 H         1 UNK         0.0791 
    156 H156      -44.3259  -30.2448    7.0182 H         1 UNK         0.0791 
    157 H157      -46.5904  -29.6009    6.2010 H         1 UNK         0.3028 
@<TRIPOS>BOND
     1    1    2 1    
     2    1   82 1    
     3    1   83 1    
     4    1   84 1    
     5    2    3 2    
     6    2    4 am   BACKBONE|DICT|INTERRES
     7    4    5 1    
     8    4   85 1    
     9    5    6 1    
    10    5   80 1    
    11    5   86 1    
    12    6    7 1    
    13    6   87 1    
    14    6   88 1    
    15    7    8 1    
    16    8    9 1    
    17    8   89 1    
    18    8   90 1    
    19    9   10 ar   
    20    9   14 ar   
    21   10   11 ar   
    22   10   91 1    
    23   11   12 ar   
    24   11   58 1    
    25   12   13 ar   
    26   12   92 1    
    27   13   14 ar   
    28   13   15 1    
    29   14   93 1    
    30   15   16 1    
    31   15   94 1    
    32   15   95 1    
    33   16   17 1    
    34   17   18 1    
    35   17   96 1    
    36   17   97 1    
    37   18   19 1    
    38   18   22 1    
    39   18   98 1    
    40   19   20 am   BACKBONE|DICT|INTERRES
    41   19   21 2    
    42   20   99 1    
    43   20  100 1    
    44   22   23 am   BACKBONE|DICT|INTERRES
    45   22  101 1    
    46   23   24 2    
    47   23   25 1    
    48   25   26 1    
    49   25   27 1    
    50   25  102 1    
    51   26  103 1    
    52   26  104 1    
    53   26  105 1    
    54   27   28 am   BACKBONE|DICT|INTERRES
    55   27  106 1    
    56   28   29 2    
    57   28   30 1    
    58   30   31 1    
    59   30   32 1    
    60   30  107 1    
    61   31  108 1    
    62   31  109 1    
    63   31  110 1    
    64   32   33 am   BACKBONE|DICT|INTERRES
    65   32  111 1    
    66   33   34 2    
    67   33   35 1    
    68   35   36 1    
    69   35   37 1    
    70   35  112 1    
    71   36  113 1    
    72   36  114 1    
    73   36  115 1    
    74   37   38 am   BACKBONE|DICT|INTERRES
    75   37  116 1    
    76   38   39 2    
    77   38   40 1    
    78   40   41 1    
    79   40   42 1    
    80   40  117 1    
    81   41  118 1    
    82   41  119 1    
    83   41  120 1    
    84   42   43 am   BACKBONE|DICT|INTERRES
    85   42  121 1    
    86   43   44 2    
    87   43   45 1    
    88   45   46 1    
    89   45   47 1    
    90   45  122 1    
    91   46  123 1    
    92   46  124 1    
    93   46  125 1    
    94   47   48 am   BACKBONE|DICT|INTERRES
    95   47  126 1    
    96   48   49 2    
    97   48   50 1    
    98   50   51 1    
    99   50   52 1    
   100   50  127 1    
   101   51  128 1    
   102   51  129 1    
   103   51  130 1    
   104   52   53 am   BACKBONE|DICT|INTERRES
   105   52  131 1    
   106   53   54 2    
   107   53   55 1    
   108   55   56 1    
   109   55   59 1    
   110   55  132 1    
   111   56   57 1    
   112   56  133 1    
   113   56  134 1    
   114   57   58 1    
   115   58  135 1    
   116   58  136 1    
   117   59   60 am   BACKBONE|DICT|INTERRES
   118   59  137 1    
   119   60   61 2    
   120   60   62 1    
   121   62   63 1    
   122   62   64 1    
   123   62  138 1    
   124   63  139 1    
   125   63  140 1    
   126   63  141 1    
   127   64   65 am   BACKBONE|DICT|INTERRES
   128   64  142 1    
   129   65   66 2    
   130   65   67 1    
   131   67   68 1    
   132   67   69 1    
   133   67  143 1    
   134   68  144 1    
   135   68  145 1    
   136   68  146 1    
   137   69   70 am   BACKBONE|DICT|INTERRES
   138   69  147 1    
   139   70   71 2    
   140   70   72 1    
   141   72   73 1    
   142   72   74 1    
   143   72  148 1    
   144   73  149 1    
   145   73  150 1    
   146   73  151 1    
   147   74   75 am   BACKBONE|DICT|INTERRES
   148   74  152 1    
   149   75   76 2    
   150   75   77 1    
   151   77   78 1    
   152   77   79 1    
   153   77  153 1    
   154   78  154 1    
   155   78  155 1    
   156   78  156 1    
   157   79   80 am   BACKBONE|DICT|INTERRES
   158   79  157 1    
   159   80   81 2    
@<TRIPOS>SUBSTRUCTURE
     1 UNK         1 GROUP             0       ****    0 ROOT    
