@<TRIPOS>MOLECULE
3R207
157   159    1
SMALL
USER_CHARGES


@<TRIPOS>ATOM
      1 CA        -45.0367  -32.0565    4.2300 C.3       0 UNK        -0.1975 
      2 C         -46.1384  -31.0550    3.9165 C.2       0 UNK         0.4852 
      3 O         -45.9424  -30.1736    3.0791 O.2       0 UNK        -0.5216 
      4 N         -47.2954  -31.1851    4.5816 N.am      1 UNK        -0.4461 
      5 CA        -48.4603  -30.3035    4.4234 C.3       1 UNK         0.0864 
      6 C6        -49.7247  -30.9370    5.0556 C.3       14 UNK        -0.0898 
      7 S7        -51.2622  -30.3584    4.2698 S.3       14 UNK        -0.2598 
      8 C8        -52.5074  -31.1035    5.3656 C.3       14 UNK         0.0286 
      9 C9        -52.7196  -30.2840    6.6306 C.ar      14 UNK        -0.0844 
     10 C10       -52.0969  -30.6439    7.8289 C.ar      14 UNK        -0.0881 
     11 C11       -52.3414  -29.9200    8.9996 C.ar      14 UNK        -0.0643 
     12 C12       -53.2223  -28.8345    8.9652 C.ar      14 UNK        -0.0930 
     13 C13       -53.8370  -28.4445    7.7666 C.ar      14 UNK        -0.0827 
     14 C14       -53.5732  -29.1784    6.6061 C.ar      14 UNK        -0.1249 
     15 C15       -54.7822  -27.2449    7.6563 C.3       14 UNK         0.0141 
     16 S16       -55.5871  -26.7141    9.2033 S.3       14 UNK        -0.2313 
     17 C17       -54.3331  -25.5907    9.9204 C.3       14 UNK        -0.0915 
     18 CA        -54.8030  -24.9215   11.2401 C.3       13 UNK         0.0968 
     19 C         -55.7129  -23.6851   10.9803 C.2       13 UNK         0.5732 
     20 N         -56.9701  -23.6783   11.4080 N.am      13 UNK        -0.7310 
     21 O         -55.2624  -22.7057   10.3915 O.2       13 UNK        -0.5035 
     22 N         -55.3491  -25.9126   12.1790 N.am      13 UNK        -0.4233 
     23 C         -55.4511  -25.7609   13.5025 C.2       13 UNK         0.4989 
     24 O         -55.0396  -24.7750   14.1152 O.2       13 UNK        -0.4996 
     25 CA        -56.1272  -26.8984   14.2915 C.3       12 UNK         0.0216 
     26 CB        -56.9458  -27.8876   13.4276 C.3       12 UNK        -0.1964 
     27 N         -55.1423  -27.5950   15.1220 N.am      12 UNK        -0.4276 
     28 C         -54.0688  -28.2796   14.7019 C.2       12 UNK         0.5020 
     29 O         -53.8345  -28.5494   13.5226 O.2       12 UNK        -0.5489 
     30 CA        -53.0615  -28.6624   15.7972 C.3       11 UNK         0.0294 
     31 CB        -51.9191  -29.5529   15.2726 C.3       11 UNK        -0.2019 
     32 N         -52.4896  -27.4362   16.3487 N.am      11 UNK        -0.4493 
     33 C         -52.9981  -26.7212   17.3602 C.2       11 UNK         0.4932 
     34 O         -53.9960  -27.0695   17.9940 O.2       11 UNK        -0.5029 
     35 CA        -52.3143  -25.3756   17.6774 C.3       10 UNK         0.0280 
     36 CB        -52.5278  -24.9190   19.1362 C.3       10 UNK        -0.1976 
     37 N         -50.8943  -25.3458   17.3068 N.am      10 UNK        -0.4242 
     38 C         -49.8982  -26.0865   17.8189 C.2       10 UNK         0.5072 
     39 O         -50.0377  -26.8583   18.7690 O.2       10 UNK        -0.5224 
     40 CA        -48.5121  -25.9872   17.1500 C.3       9 UNK         0.0343 
     41 CB        -48.1466  -27.3260   16.4855 C.3       9 UNK        -0.2003 
     42 N         -48.4098  -24.9233   16.1477 N.am      9 UNK        -0.4272 
     43 C         -48.2992  -23.6160   16.4196 C.2       9 UNK         0.4988 
     44 O         -48.2028  -23.1596   17.5591 O.2       9 UNK        -0.5108 
     45 CA        -48.3379  -22.6509   15.2203 C.3       8 UNK         0.0248 
     46 CB        -46.9357  -22.4884   14.6133 C.3       8 UNK        -0.2001 
     47 N         -49.2902  -23.0502   14.1759 N.am      8 UNK        -0.4140 
     48 C         -50.6156  -23.1608   14.3577 C.2       8 UNK         0.5028 
     49 O         -51.1797  -22.9229   15.4255 O.2       8 UNK        -0.5428 
     50 CA        -51.4520  -23.6675   13.1702 C.3       7 UNK         0.0264 
     51 CB        -51.6503  -22.5557   12.1263 C.3       7 UNK        -0.1988 
     52 N         -50.8826  -24.8583   12.5333 N.am      7 UNK        -0.4454 
     53 C         -50.6702  -26.0279   13.1570 C.2       7 UNK         0.5027 
     54 O         -50.9680  -26.2391   14.3322 O.2       7 UNK        -0.5083 
     55 CA        -49.9398  -27.1292   12.3617 C.3       6 UNK         0.0844 
     56 C56       -50.9065  -27.8345   11.3812 C.3       14 UNK        -0.0967 
     57 S57       -50.1812  -29.3363   10.6444 S.3       14 UNK        -0.2604 
     58 C58       -51.6721  -30.3280   10.3058 C.3       14 UNK         0.0134 
     59 N         -48.7359  -26.6052   11.7069 N.am      6 UNK        -0.4116 
     60 C         -47.7105  -26.0227   12.3482 C.2       5 UNK         0.5034 
     61 O         -47.6137  -25.9512   13.5722 O.2       5 UNK        -0.5045 
     62 CA        -46.6455  -25.3378   11.4817 C.3       5 UNK         0.0224 
     63 CB        -45.5857  -26.3433   11.0056 C.3       5 UNK        -0.1978 
     64 N         -47.2519  -24.6454   10.3420 N.am      5 UNK        -0.4737 
     65 C         -47.9588  -23.5109   10.4529 C.2       4 UNK         0.5027 
     66 O         -48.1112  -22.9078   11.5144 O.2       4 UNK        -0.5211 
     67 CA        -48.6398  -22.9761    9.1811 C.3       4 UNK         0.0297 
     68 CB        -47.6708  -22.0876    8.3860 C.3       4 UNK        -0.1993 
     69 N         -49.1514  -24.0413    8.3161 N.am      4 UNK        -0.4486 
     70 C         -50.1579  -24.8658    8.6399 C.2       3 UNK         0.4961 
     71 O         -50.8087  -24.7734    9.6801 O.2       3 UNK        -0.5105 
     72 CA        -50.4555  -26.0172    7.6611 C.3       3 UNK         0.0299 
     73 CB        -51.4672  -25.5657    6.5978 C.3       3 UNK        -0.1972 
     74 N         -49.2643  -26.5632    6.9989 N.am      3 UNK        -0.4305 
     75 C         -48.1811  -27.0482    7.6203 C.2       2 UNK         0.5006 
     76 O         -48.0639  -27.0935    8.8452 O.2       2 UNK        -0.5106 
     77 CA        -47.0367  -27.5428    6.7174 C.3       2 UNK         0.0296 
     78 CB        -45.7235  -27.7598    7.4916 C.3       2 UNK        -0.2002 
     79 N         -47.3944  -28.7856    6.0372 N.am      2 UNK        -0.4032 
     80 C         -48.2085  -28.8828    4.9765 C.2       1 UNK         0.5000 
     81 O         -48.7386  -27.9078    4.4379 O.2       1 UNK        -0.5238 
     82 H82       -44.1536  -31.5379    4.6025 H         1 UNK         0.0889 
     83 H83       -44.7573  -32.6008    3.3283 H         1 UNK         0.0889 
     84 H84       -45.3458  -32.7826    4.9816 H         1 UNK         0.0889 
     85 H85       -47.3992  -31.9400    5.2453 H         1 UNK         0.3028 
     86 H86       -48.6271  -30.2011    3.3484 H         1 UNK         0.0864 
     87 H87       -49.7638  -30.7576    6.1316 H         1 UNK         0.0720 
     88 H88       -49.7041  -32.0212    4.9321 H         1 UNK         0.0720 
     89 H89       -52.2218  -32.1279    5.6099 H         1 UNK         0.0814 
     90 H90       -53.4503  -31.1775    4.8216 H         1 UNK         0.0814 
     91 H91       -51.4312  -31.4957    7.8544 H         1 UNK         0.1469 
     92 H92       -53.4202  -28.3066    9.8843 H         1 UNK         0.1381 
     93 H93       -54.0446  -28.8953    5.6745 H         1 UNK         0.1206 
     94 H94       -55.5806  -27.4931    6.9552 H         1 UNK         0.0813 
     95 H95       -54.2498  -26.4030    7.2161 H         1 UNK         0.0813 
     96 H96       -54.0515  -24.8428    9.1767 H         1 UNK         0.0638 
     97 H97       -53.4204  -26.1511   10.1159 H         1 UNK         0.0638 
     98 H98       -53.9096  -24.5135   11.7118 H         1 UNK         0.0568 
     99 H99       -57.5437  -22.8677   11.2370 H         1 UNK         0.3450 
    100 H100      -57.3533  -24.4767   11.8862 H         1 UNK         0.3450 
    101 H101      -55.6968  -26.7614   11.7576 H         1 UNK         0.2987 
    102 H102      -56.8230  -26.4162   14.9799 H         1 UNK         0.0766 
    103 H103      -56.3286  -28.4449   12.7224 H         1 UNK         0.0798 
    104 H104      -57.4596  -28.6160   14.0550 H         1 UNK         0.0798 
    105 H105      -57.7131  -27.3659   12.8540 H         1 UNK         0.0798 
    106 H106      -55.1902  -27.3945   16.1145 H         1 UNK         0.3198 
    107 H107      -53.5940  -29.2139   16.5751 H         1 UNK         0.0843 
    108 H108      -51.2241  -29.8158   16.0700 H         1 UNK         0.0831 
    109 H109      -51.3506  -29.0605   14.4832 H         1 UNK         0.0831 
    110 H110      -52.3098  -30.4838   14.8598 H         1 UNK         0.0831 
    111 H111      -51.7561  -27.0061   15.7862 H         1 UNK         0.3133 
    112 H112      -52.7991  -24.6411   17.0327 H         1 UNK         0.0566 
    113 H113      -52.0362  -23.9655   19.3289 H         1 UNK         0.0814 
    114 H114      -53.5884  -24.7846   19.3517 H         1 UNK         0.0814 
    115 H115      -52.1432  -25.6469   19.8510 H         1 UNK         0.0814 
    116 H116      -50.6764  -24.7427   16.5213 H         1 UNK         0.3091 
    117 H117      -47.7845  -25.7881   17.9393 H         1 UNK         0.0702 
    118 H118      -47.1443  -27.2958   16.0579 H         1 UNK         0.0785 
    119 H119      -48.8436  -27.5803   15.6858 H         1 UNK         0.0785 
    120 H120      -48.1656  -28.1433   17.2077 H         1 UNK         0.0785 
    121 H121      -48.4075  -25.2205   15.1750 H         1 UNK         0.2998 
    122 H122      -48.6587  -21.6767   15.5948 H         1 UNK         0.0697 
    123 H123      -46.5602  -23.4289   14.2099 H         1 UNK         0.0825 
    124 H124      -46.2220  -22.1479   15.3647 H         1 UNK         0.0825 
    125 H125      -46.9337  -21.7537   13.8079 H         1 UNK         0.0825 
    126 H126      -48.9074  -23.2129   13.2474 H         1 UNK         0.3029 
    127 H127      -52.4324  -23.9482   13.5605 H         1 UNK         0.0897 
    128 H128      -52.2589  -22.8922   11.2872 H         1 UNK         0.0792 
    129 H129      -52.1550  -21.6954   12.5678 H         1 UNK         0.0792 
    130 H130      -50.7012  -22.2036   11.7230 H         1 UNK         0.0792 
    131 H131      -50.6563  -24.7822   11.5433 H         1 UNK         0.3086 
    132 H132      -49.6031  -27.8709   13.0891 H         1 UNK         0.0583 
    133 H133      -51.8224  -28.1159   11.9032 H         1 UNK         0.1020 
    134 H134      -51.2107  -27.1643   10.5788 H         1 UNK         0.1020 
    135 H135      -51.3827  -31.3790   10.2616 H         1 UNK         0.0694 
    136 H136      -52.3772  -30.2479   11.1350 H         1 UNK         0.0694 
    137 H137      -48.6951  -26.6776   10.6947 H         1 UNK         0.2989 
    138 H138      -46.1417  -24.5923   12.1008 H         1 UNK         0.1055 
    139 H139      -45.0570  -26.7750   11.8564 H         1 UNK         0.0806 
    140 H140      -44.8400  -25.8663   10.3697 H         1 UNK         0.0806 
    141 H141      -46.0258  -27.1711   10.4504 H         1 UNK         0.0806 
    142 H142      -47.2497  -25.1382    9.4590 H         1 UNK         0.3061 
    143 H143      -49.4873  -22.3622    9.4934 H         1 UNK         0.0734 
    144 H144      -48.1622  -21.6352    7.5245 H         1 UNK         0.0832 
    145 H145      -47.2939  -21.2727    9.0060 H         1 UNK         0.0832 
    146 H146      -46.8072  -22.6483    8.0262 H         1 UNK         0.0832 
    147 H147      -48.6798  -24.1864    7.4355 H         1 UNK         0.3156 
    148 H148      -50.9066  -26.8282    8.2358 H         1 UNK         0.0589 
    149 H149      -51.0327  -24.8431    5.9062 H         1 UNK         0.0808 
    150 H150      -52.3326  -25.0897    7.0599 H         1 UNK         0.0808 
    151 H151      -51.8319  -26.4129    6.0161 H         1 UNK         0.0808 
    152 H152      -49.2913  -26.6395    5.9870 H         1 UNK         0.3098 
    153 H153      -46.8521  -26.7716    5.9663 H         1 UNK         0.0720 
    154 H154      -45.4038  -26.8390    7.9806 H         1 UNK         0.0791 
    155 H155      -44.9165  -28.0658    6.8255 H         1 UNK         0.0791 
    156 H156      -45.8282  -28.5230    8.2639 H         1 UNK         0.0791 
    157 H157      -47.0173  -29.6370    6.4266 H         1 UNK         0.3028 
@<TRIPOS>BOND
     1    1    2 1    
     2    1   82 1    
     3    1   83 1    
     4    1   84 1    
     5    2    3 2    
     6    2    4 am   BACKBONE|DICT|INTERRES
     7    4    5 1    
     8    4   85 1    
     9    5    6 1    
    10    5   80 1    
    11    5   86 1    
    12    6    7 1    
    13    6   87 1    
    14    6   88 1    
    15    7    8 1    
    16    8    9 1    
    17    8   89 1    
    18    8   90 1    
    19    9   10 ar   
    20    9   14 ar   
    21   10   11 ar   
    22   10   91 1    
    23   11   12 ar   
    24   11   58 1    
    25   12   13 ar   
    26   12   92 1    
    27   13   14 ar   
    28   13   15 1    
    29   14   93 1    
    30   15   16 1    
    31   15   94 1    
    32   15   95 1    
    33   16   17 1    
    34   17   18 1    
    35   17   96 1    
    36   17   97 1    
    37   18   19 1    
    38   18   22 1    
    39   18   98 1    
    40   19   20 am   BACKBONE|DICT|INTERRES
    41   19   21 2    
    42   20   99 1    
    43   20  100 1    
    44   22   23 am   BACKBONE|DICT|INTERRES
    45   22  101 1    
    46   23   24 2    
    47   23   25 1    
    48   25   26 1    
    49   25   27 1    
    50   25  102 1    
    51   26  103 1    
    52   26  104 1    
    53   26  105 1    
    54   27   28 am   BACKBONE|DICT|INTERRES
    55   27  106 1    
    56   28   29 2    
    57   28   30 1    
    58   30   31 1    
    59   30   32 1    
    60   30  107 1    
    61   31  108 1    
    62   31  109 1    
    63   31  110 1    
    64   32   33 am   BACKBONE|DICT|INTERRES
    65   32  111 1    
    66   33   34 2    
    67   33   35 1    
    68   35   36 1    
    69   35   37 1    
    70   35  112 1    
    71   36  113 1    
    72   36  114 1    
    73   36  115 1    
    74   37   38 am   BACKBONE|DICT|INTERRES
    75   37  116 1    
    76   38   39 2    
    77   38   40 1    
    78   40   41 1    
    79   40   42 1    
    80   40  117 1    
    81   41  118 1    
    82   41  119 1    
    83   41  120 1    
    84   42   43 am   BACKBONE|DICT|INTERRES
    85   42  121 1    
    86   43   44 2    
    87   43   45 1    
    88   45   46 1    
    89   45   47 1    
    90   45  122 1    
    91   46  123 1    
    92   46  124 1    
    93   46  125 1    
    94   47   48 am   BACKBONE|DICT|INTERRES
    95   47  126 1    
    96   48   49 2    
    97   48   50 1    
    98   50   51 1    
    99   50   52 1    
   100   50  127 1    
   101   51  128 1    
   102   51  129 1    
   103   51  130 1    
   104   52   53 am   BACKBONE|DICT|INTERRES
   105   52  131 1    
   106   53   54 2    
   107   53   55 1    
   108   55   56 1    
   109   55   59 1    
   110   55  132 1    
   111   56   57 1    
   112   56  133 1    
   113   56  134 1    
   114   57   58 1    
   115   58  135 1    
   116   58  136 1    
   117   59   60 am   BACKBONE|DICT|INTERRES
   118   59  137 1    
   119   60   61 2    
   120   60   62 1    
   121   62   63 1    
   122   62   64 1    
   123   62  138 1    
   124   63  139 1    
   125   63  140 1    
   126   63  141 1    
   127   64   65 am   BACKBONE|DICT|INTERRES
   128   64  142 1    
   129   65   66 2    
   130   65   67 1    
   131   67   68 1    
   132   67   69 1    
   133   67  143 1    
   134   68  144 1    
   135   68  145 1    
   136   68  146 1    
   137   69   70 am   BACKBONE|DICT|INTERRES
   138   69  147 1    
   139   70   71 2    
   140   70   72 1    
   141   72   73 1    
   142   72   74 1    
   143   72  148 1    
   144   73  149 1    
   145   73  150 1    
   146   73  151 1    
   147   74   75 am   BACKBONE|DICT|INTERRES
   148   74  152 1    
   149   75   76 2    
   150   75   77 1    
   151   77   78 1    
   152   77   79 1    
   153   77  153 1    
   154   78  154 1    
   155   78  155 1    
   156   78  156 1    
   157   79   80 am   BACKBONE|DICT|INTERRES
   158   79  157 1    
   159   80   81 2    
@<TRIPOS>SUBSTRUCTURE
     1 UNK         1 GROUP             0       ****    0 ROOT    
