@<TRIPOS>MOLECULE
3R207
157   159    1
SMALL
USER_CHARGES


@<TRIPOS>ATOM
      1 CA        -48.3356  -25.6195    3.8818 C.3       0 UNK        -0.1975 
      2 C         -49.0685  -26.2952    5.0302 C.2       0 UNK         0.4852 
      3 O         -49.1680  -25.7226    6.1143 O.2       0 UNK        -0.5216 
      4 N         -49.5718  -27.5163    4.8141 N.am      1 UNK        -0.4461 
      5 CA        -50.3209  -28.3056    5.7998 C.3       1 UNK         0.0864 
      6 C6        -51.3313  -29.2647    5.1167 C.3       14 UNK        -0.0898 
      7 S7        -52.5855  -28.3750    4.1340 S.3       14 UNK        -0.2598 
      8 C8        -54.0140  -28.3853    5.2645 C.3       14 UNK         0.0286 
      9 C9        -53.7992  -27.4687    6.4606 C.ar      14 UNK        -0.0844 
     10 C10       -54.0185  -26.0934    6.3382 C.ar      14 UNK        -0.0881 
     11 C11       -53.8387  -25.2435    7.4340 C.ar      14 UNK        -0.0643 
     12 C12       -53.4517  -25.7840    8.6643 C.ar      14 UNK        -0.0930 
     13 C13       -53.1765  -27.1493    8.7850 C.ar      14 UNK        -0.0827 
     14 C14       -53.3716  -27.9898    7.6854 C.ar      14 UNK        -0.1249 
     15 C15       -52.5946  -27.7090   10.0735 C.3       14 UNK         0.0141 
     16 S16       -53.7944  -28.7055   11.0064 S.3       14 UNK        -0.2313 
     17 C17       -52.6371  -29.7445   11.9589 C.3       14 UNK        -0.0915 
     18 CA        -53.3302  -30.5991   13.0510 C.3       13 UNK         0.0968 
     19 C         -52.3487  -31.6369   13.6744 C.2       13 UNK         0.5732 
     20 N         -52.1743  -31.7064   14.9898 N.am      13 UNK        -0.7310 
     21 O         -51.7379  -32.4145   12.9449 O.2       13 UNK        -0.5035 
     22 N         -54.0186  -29.7643   14.0474 N.am      13 UNK        -0.4233 
     23 C         -55.1223  -30.1446   14.7046 C.2       13 UNK         0.4989 
     24 O         -55.7250  -31.1946   14.4716 O.2       13 UNK        -0.4996 
     25 CA        -55.6378  -29.2015   15.8106 C.3       12 UNK         0.0216 
     26 CB        -56.5978  -29.9028   16.7955 C.3       12 UNK        -0.1964 
     27 N         -54.5711  -28.5094   16.5447 N.am      12 UNK        -0.4276 
     28 C         -53.5534  -29.0615   17.2269 C.2       12 UNK         0.5020 
     29 O         -53.3710  -30.2774   17.3032 O.2       12 UNK        -0.5489 
     30 CA        -52.5520  -28.1095   17.9124 C.3       11 UNK         0.0294 
     31 CB        -51.1004  -28.5816   17.7082 C.3       11 UNK        -0.2019 
     32 N         -52.6763  -26.7443   17.4007 N.am      11 UNK        -0.4493 
     33 C         -53.3183  -25.7357   18.0071 C.2       11 UNK         0.4932 
     34 O         -53.7954  -25.8095   19.1392 O.2       11 UNK        -0.5029 
     35 CA        -53.4941  -24.4326   17.2012 C.3       10 UNK         0.0280 
     36 CB        -52.4421  -23.3954   17.6233 C.3       10 UNK        -0.1976 
     37 N         -53.4282  -24.6389   15.7489 N.am      10 UNK        -0.4242 
     38 C         -54.3363  -25.3357   15.0437 C.2       10 UNK         0.5072 
     39 O         -55.3676  -25.7913   15.5375 O.2       10 UNK        -0.5224 
     40 CA        -54.0168  -25.6592   13.5716 C.3       9 UNK         0.0343 
     41 CB        -54.7461  -24.6865   12.6340 C.3       9 UNK        -0.2003 
     42 N         -52.5797  -25.6598   13.2799 N.am      9 UNK        -0.4272 
     43 C         -51.7030  -26.5174   13.8292 C.2       9 UNK         0.4988 
     44 O         -52.0540  -27.4609   14.5395 O.2       9 UNK        -0.5108 
     45 CA        -50.1944  -26.2707   13.6158 C.3       8 UNK         0.0248 
     46 CB        -49.5893  -27.3259   12.6793 C.3       8 UNK        -0.2001 
     47 N         -49.8623  -24.9346   13.1134 N.am      8 UNK        -0.4140 
     48 C         -50.1037  -23.7847   13.7625 C.2       8 UNK         0.5028 
     49 O         -50.5866  -23.7313   14.8937 O.2       8 UNK        -0.5428 
     50 CA        -49.8421  -22.4752   12.9937 C.3       7 UNK         0.0264 
     51 CB        -48.4537  -21.9194   13.3436 C.3       7 UNK        -0.1988 
     52 N         -49.9689  -22.6053   11.5352 N.am      7 UNK        -0.4454 
     53 C         -51.0698  -23.0366   10.8964 C.2       7 UNK         0.5027 
     54 O         -52.1087  -23.3340   11.4854 O.2       7 UNK        -0.5083 
     55 CA        -51.0214  -23.2279    9.3648 C.3       6 UNK         0.0844 
     56 C56       -52.0348  -22.2925    8.6603 C.3       14 UNK        -0.0967 
     57 S57       -52.4733  -22.8645    6.9831 S.3       14 UNK        -0.2604 
     58 C58       -54.0494  -23.7435    7.2763 C.3       14 UNK         0.0134 
     59 N         -49.6751  -23.1593    8.7872 N.am      6 UNK        -0.4116 
     60 C         -48.7110  -24.0595    9.0250 C.2       5 UNK         0.5034 
     61 O         -48.8619  -25.0220    9.7846 O.2       5 UNK        -0.5045 
     62 CA        -47.3545  -23.8492    8.3229 C.3       5 UNK         0.0224 
     63 CB        -47.0623  -22.3848    7.9209 C.3       5 UNK        -0.1978 
     64 N         -46.2651  -24.4225    9.1187 N.am      5 UNK        -0.4737 
     65 C         -45.8411  -24.0199   10.3264 C.2       4 UNK         0.5027 
     66 O         -46.2095  -22.9740   10.8613 O.2       4 UNK        -0.5211 
     67 CA        -44.8813  -24.9508   11.0975 C.3       4 UNK         0.0297 
     68 CB        -45.4337  -25.2487   12.5037 C.3       4 UNK        -0.1993 
     69 N         -44.6438  -26.2251   10.4129 N.am      4 UNK        -0.4486 
     70 C         -43.7348  -26.4340    9.4511 C.2       3 UNK         0.4961 
     71 O         -42.9164  -25.5902    9.0858 O.2       3 UNK        -0.5105 
     72 CA        -43.7660  -27.8096    8.7553 C.3       3 UNK         0.0299 
     73 CB        -42.7284  -28.7525    9.3857 C.3       3 UNK        -0.1972 
     74 N         -45.0854  -28.4579    8.7716 N.am      3 UNK        -0.4305 
     75 C         -46.1827  -27.9777    8.1693 C.2       2 UNK         0.5006 
     76 O         -46.2026  -26.9270    7.5244 O.2       2 UNK        -0.5106 
     77 CA        -47.4732  -28.7833    8.3623 C.3       2 UNK         0.0296 
     78 CB        -47.9944  -28.6501    9.8039 C.3       2 UNK        -0.2002 
     79 N         -48.4954  -28.2915    7.4417 N.am      2 UNK        -0.4032 
     80 C         -49.3642  -29.0467    6.7618 C.2       1 UNK         0.5000 
     81 O         -49.4137  -30.2753    6.8593 O.2       1 UNK        -0.5238 
     82 H82       -48.3272  -26.2368    2.9837 H         1 UNK         0.0889 
     83 H83       -47.3032  -25.4170    4.1659 H         1 UNK         0.0889 
     84 H84       -48.8152  -24.6718    3.6386 H         1 UNK         0.0889 
     85 H85       -49.4523  -27.9513    3.9104 H         1 UNK         0.3028 
     86 H86       -50.8962  -27.6169    6.4220 H         1 UNK         0.0864 
     87 H87       -51.8406  -29.8845    5.8567 H         1 UNK         0.0720 
     88 H88       -50.8103  -29.9582    4.4541 H         1 UNK         0.0720 
     89 H89       -54.8989  -28.0618    4.7143 H         1 UNK         0.0814 
     90 H90       -54.2199  -29.4060    5.5908 H         1 UNK         0.0814 
     91 H91       -54.3215  -25.6841    5.3840 H         1 UNK         0.1469 
     92 H92       -53.3263  -25.1337    9.5180 H         1 UNK         0.1381 
     93 H93       -53.1704  -29.0481    7.7813 H         1 UNK         0.1206 
     94 H94       -52.2309  -26.9030   10.7112 H         1 UNK         0.0813 
     95 H95       -51.7239  -28.3179    9.8242 H         1 UNK         0.0813 
     96 H96       -52.1195  -30.3856   11.2428 H         1 UNK         0.0638 
     97 H97       -51.8741  -29.1102   12.4058 H         1 UNK         0.0638 
     98 H98       -54.0819  -31.2010   12.5371 H         1 UNK         0.0568 
     99 H99       -52.6855  -31.1079   15.6300 H         1 UNK         0.3450 
    100 H100      -51.5373  -32.3937   15.3582 H         1 UNK         0.3450 
    101 H101      -53.5385  -28.9126   14.3150 H         1 UNK         0.2987 
    102 H102      -56.2058  -28.4251   15.2963 H         1 UNK         0.0766 
    103 H103      -56.9691  -29.2086   17.5493 H         1 UNK         0.0798 
    104 H104      -57.4672  -30.3084   16.2764 H         1 UNK         0.0798 
    105 H105      -56.1114  -30.7308   17.3124 H         1 UNK         0.0798 
    106 H106      -54.6309  -27.4976   16.5156 H         1 UNK         0.3198 
    107 H107      -52.7697  -28.1324   18.9821 H         1 UNK         0.0843 
    108 H108      -50.9422  -29.5665   18.1496 H         1 UNK         0.0831 
    109 H109      -50.3915  -27.9009   18.1796 H         1 UNK         0.0831 
    110 H110      -50.8437  -28.6551   16.6507 H         1 UNK         0.0831 
    111 H111      -52.3437  -26.6112   16.4525 H         1 UNK         0.3133 
    112 H112      -54.4815  -24.0298   17.4363 H         1 UNK         0.0566 
    113 H113      -51.4275  -23.7562   17.4501 H         1 UNK         0.0814 
    114 H114      -52.5273  -23.1649   18.6861 H         1 UNK         0.0814 
    115 H115      -52.5629  -22.4594   17.0777 H         1 UNK         0.0814 
    116 H116      -52.5874  -24.3086   15.2850 H         1 UNK         0.3091 
    117 H117      -54.3935  -26.6643   13.3704 H         1 UNK         0.0702 
    118 H118      -55.8237  -24.7204   12.7996 H         1 UNK         0.0785 
    119 H119      -54.5725  -24.9389   11.5884 H         1 UNK         0.0785 
    120 H120      -54.4248  -23.6562   12.7913 H         1 UNK         0.0785 
    121 H121      -52.2399  -24.8935   12.7062 H         1 UNK         0.2998 
    122 H122      -49.7191  -26.3766   14.5931 H         1 UNK         0.0697 
    123 H123      -50.0224  -27.2748   11.6804 H         1 UNK         0.0825 
    124 H124      -49.7554  -28.3329   13.0637 H         1 UNK         0.0825 
    125 H125      -48.5113  -27.1974   12.5836 H         1 UNK         0.0825 
    126 H126      -49.4819  -24.8829   12.1768 H         1 UNK         0.3029 
    127 H127      -50.5934  -21.7536   13.3215 H         1 UNK         0.0897 
    128 H128      -48.2645  -20.9693   12.8437 H         1 UNK         0.0792 
    129 H129      -48.3646  -21.7439   14.4166 H         1 UNK         0.0792 
    130 H130      -47.6601  -22.6122   13.0622 H         1 UNK         0.0792 
    131 H131      -49.1427  -22.4044   10.9894 H         1 UNK         0.3086 
    132 H132      -51.3458  -24.2539    9.2028 H         1 UNK         0.0583 
    133 H133      -52.9552  -22.1923    9.2389 H         1 UNK         0.1020 
    134 H134      -51.6306  -21.2812    8.5894 H         1 UNK         0.1020 
    135 H135      -54.5663  -23.3428    8.1490 H         1 UNK         0.0694 
    136 H136      -54.7096  -23.5512    6.4292 H         1 UNK         0.0694 
    137 H137      -49.4948  -22.4030    8.1440 H         1 UNK         0.2989 
    138 H138      -47.3887  -24.4389    7.4072 H         1 UNK         0.1055 
    139 H139      -46.0536  -22.2832    7.5202 H         1 UNK         0.0806 
    140 H140      -47.1532  -21.6985    8.7635 H         1 UNK         0.0806 
    141 H141      -47.7451  -22.0446    7.1417 H         1 UNK         0.0806 
    142 H142      -45.9331  -25.3162    8.7731 H         1 UNK         0.3061 
    143 H143      -43.9332  -24.4204   11.2077 H         1 UNK         0.0734 
    144 H144      -45.5498  -24.3310   13.0820 H         1 UNK         0.0832 
    145 H145      -46.4118  -25.7292   12.4594 H         1 UNK         0.0832 
    146 H146      -44.7630  -25.8981   13.0664 H         1 UNK         0.0832 
    147 H147      -45.2719  -26.9815   10.6411 H         1 UNK         0.3156 
    148 H148      -43.4903  -27.6503    7.7106 H         1 UNK         0.0589 
    149 H149      -42.9614  -28.9721   10.4284 H         1 UNK         0.0808 
    150 H150      -42.6705  -29.6982    8.8465 H         1 UNK         0.0808 
    151 H151      -41.7322  -28.3080    9.3618 H         1 UNK         0.0808 
    152 H152      -45.1526  -29.3293    9.2788 H         1 UNK         0.3098 
    153 H153      -47.2484  -29.8305    8.1490 H         1 UNK         0.0720 
    154 H154      -48.9320  -29.1900    9.9380 H         1 UNK         0.0791 
    155 H155      -47.2849  -29.0546   10.5263 H         1 UNK         0.0791 
    156 H156      -48.1707  -27.6062   10.0645 H         1 UNK         0.0791 
    157 H157      -48.4639  -27.2942    7.2444 H         1 UNK         0.3028 
@<TRIPOS>BOND
     1    1    2 1    
     2    1   82 1    
     3    1   83 1    
     4    1   84 1    
     5    2    3 2    
     6    2    4 am   BACKBONE|DICT|INTERRES
     7    4    5 1    
     8    4   85 1    
     9    5    6 1    
    10    5   80 1    
    11    5   86 1    
    12    6    7 1    
    13    6   87 1    
    14    6   88 1    
    15    7    8 1    
    16    8    9 1    
    17    8   89 1    
    18    8   90 1    
    19    9   10 ar   
    20    9   14 ar   
    21   10   11 ar   
    22   10   91 1    
    23   11   12 ar   
    24   11   58 1    
    25   12   13 ar   
    26   12   92 1    
    27   13   14 ar   
    28   13   15 1    
    29   14   93 1    
    30   15   16 1    
    31   15   94 1    
    32   15   95 1    
    33   16   17 1    
    34   17   18 1    
    35   17   96 1    
    36   17   97 1    
    37   18   19 1    
    38   18   22 1    
    39   18   98 1    
    40   19   20 am   BACKBONE|DICT|INTERRES
    41   19   21 2    
    42   20   99 1    
    43   20  100 1    
    44   22   23 am   BACKBONE|DICT|INTERRES
    45   22  101 1    
    46   23   24 2    
    47   23   25 1    
    48   25   26 1    
    49   25   27 1    
    50   25  102 1    
    51   26  103 1    
    52   26  104 1    
    53   26  105 1    
    54   27   28 am   BACKBONE|DICT|INTERRES
    55   27  106 1    
    56   28   29 2    
    57   28   30 1    
    58   30   31 1    
    59   30   32 1    
    60   30  107 1    
    61   31  108 1    
    62   31  109 1    
    63   31  110 1    
    64   32   33 am   BACKBONE|DICT|INTERRES
    65   32  111 1    
    66   33   34 2    
    67   33   35 1    
    68   35   36 1    
    69   35   37 1    
    70   35  112 1    
    71   36  113 1    
    72   36  114 1    
    73   36  115 1    
    74   37   38 am   BACKBONE|DICT|INTERRES
    75   37  116 1    
    76   38   39 2    
    77   38   40 1    
    78   40   41 1    
    79   40   42 1    
    80   40  117 1    
    81   41  118 1    
    82   41  119 1    
    83   41  120 1    
    84   42   43 am   BACKBONE|DICT|INTERRES
    85   42  121 1    
    86   43   44 2    
    87   43   45 1    
    88   45   46 1    
    89   45   47 1    
    90   45  122 1    
    91   46  123 1    
    92   46  124 1    
    93   46  125 1    
    94   47   48 am   BACKBONE|DICT|INTERRES
    95   47  126 1    
    96   48   49 2    
    97   48   50 1    
    98   50   51 1    
    99   50   52 1    
   100   50  127 1    
   101   51  128 1    
   102   51  129 1    
   103   51  130 1    
   104   52   53 am   BACKBONE|DICT|INTERRES
   105   52  131 1    
   106   53   54 2    
   107   53   55 1    
   108   55   56 1    
   109   55   59 1    
   110   55  132 1    
   111   56   57 1    
   112   56  133 1    
   113   56  134 1    
   114   57   58 1    
   115   58  135 1    
   116   58  136 1    
   117   59   60 am   BACKBONE|DICT|INTERRES
   118   59  137 1    
   119   60   61 2    
   120   60   62 1    
   121   62   63 1    
   122   62   64 1    
   123   62  138 1    
   124   63  139 1    
   125   63  140 1    
   126   63  141 1    
   127   64   65 am   BACKBONE|DICT|INTERRES
   128   64  142 1    
   129   65   66 2    
   130   65   67 1    
   131   67   68 1    
   132   67   69 1    
   133   67  143 1    
   134   68  144 1    
   135   68  145 1    
   136   68  146 1    
   137   69   70 am   BACKBONE|DICT|INTERRES
   138   69  147 1    
   139   70   71 2    
   140   70   72 1    
   141   72   73 1    
   142   72   74 1    
   143   72  148 1    
   144   73  149 1    
   145   73  150 1    
   146   73  151 1    
   147   74   75 am   BACKBONE|DICT|INTERRES
   148   74  152 1    
   149   75   76 2    
   150   75   77 1    
   151   77   78 1    
   152   77   79 1    
   153   77  153 1    
   154   78  154 1    
   155   78  155 1    
   156   78  156 1    
   157   79   80 am   BACKBONE|DICT|INTERRES
   158   79  157 1    
   159   80   81 2    
@<TRIPOS>SUBSTRUCTURE
     1 UNK         1 GROUP             0       ****    0 ROOT    
