@<TRIPOS>MOLECULE
3R207
157   159    1
SMALL
USER_CHARGES


@<TRIPOS>ATOM
      1 CA        -51.2605  -24.8998    2.8279 C.3       0 UNK        -0.1975 
      2 C         -51.1525  -24.7271    4.3353 C.2       0 UNK         0.4852 
      3 O         -51.5923  -23.7078    4.8699 O.2       0 UNK        -0.5216 
      4 N         -50.5557  -25.7058    5.0282 N.am      1 UNK        -0.4461 
      5 CA        -50.3771  -25.7556    6.4871 C.3       1 UNK         0.0864 
      6 C6        -50.1954  -27.2182    6.9748 C.3       14 UNK        -0.0898 
      7 S7        -51.7152  -28.1872    6.6918 S.3       14 UNK        -0.2598 
      8 C8        -51.1940  -29.8699    7.1533 C.3       14 UNK         0.0286 
      9 C9        -51.0231  -30.0468    8.6571 C.ar      14 UNK        -0.0844 
     10 C10       -49.7828  -30.4184    9.1842 C.ar      14 UNK        -0.0881 
     11 C11       -49.6277  -30.6283   10.5579 C.ar      14 UNK        -0.0643 
     12 C12       -50.7183  -30.4454   11.4110 C.ar      14 UNK        -0.0930 
     13 C13       -51.9616  -30.0660   10.8977 C.ar      14 UNK        -0.0827 
     14 C14       -52.1121  -29.8804    9.5201 C.ar      14 UNK        -0.1249 
     15 C15       -53.1301  -29.8301   11.8394 C.3       14 UNK         0.0141 
     16 S16       -54.2475  -31.2602   11.9067 S.3       14 UNK        -0.2313 
     17 C17       -55.1265  -30.9413   13.4727 C.3       14 UNK        -0.0915 
     18 CA        -56.4024  -30.0784   13.2980 C.3       13 UNK         0.0968 
     19 C         -57.2649  -30.0972   14.5857 C.2       13 UNK         0.5732 
     20 N         -58.4683  -30.6512   14.5258 N.am      13 UNK        -0.7310 
     21 O         -56.8332  -29.6528   15.6477 O.2       13 UNK        -0.5035 
     22 N         -56.0765  -28.6939   12.9379 N.am      13 UNK        -0.4233 
     23 C         -56.9000  -27.8724   12.2753 C.2       13 UNK         0.4989 
     24 O         -57.9857  -28.2294   11.8128 O.2       13 UNK        -0.4996 
     25 CA        -56.4290  -26.4147   12.0793 C.3       12 UNK         0.0216 
     26 CB        -57.5814  -25.4561   11.7103 C.3       12 UNK        -0.1964 
     27 N         -55.6620  -25.8826   13.2114 N.am      12 UNK        -0.4276 
     28 C         -56.0512  -25.7773   14.4898 C.2       12 UNK         0.5020 
     29 O         -57.1665  -26.0918   14.9111 O.2       12 UNK        -0.5489 
     30 CA        -54.9912  -25.2281   15.4629 C.3       11 UNK         0.0294 
     31 CB        -55.6285  -24.3415   16.5480 C.3       11 UNK        -0.2019 
     32 N         -54.1623  -26.2472   16.1190 N.am      11 UNK        -0.4493 
     33 C         -53.6096  -27.3532   15.5966 C.2       11 UNK         0.4932 
     34 O         -53.8020  -27.7800   14.4577 O.2       11 UNK        -0.5029 
     35 CA        -52.5743  -28.0385   16.4973 C.3       10 UNK         0.0280 
     36 CB        -52.2508  -29.4788   16.0613 C.3       10 UNK        -0.1976 
     37 N         -51.3593  -27.2345   16.4225 N.am      10 UNK        -0.4242 
     38 C         -51.0061  -26.2893   17.3016 C.2       10 UNK         0.5072 
     39 O         -51.5954  -26.0819   18.3632 O.2       10 UNK        -0.5224 
     40 CA        -49.8269  -25.3903   16.8978 C.3       9 UNK         0.0343 
     41 CB        -48.5010  -26.1698   16.9083 C.3       9 UNK        -0.2003 
     42 N         -50.0351  -24.7785   15.5828 N.am      9 UNK        -0.4272 
     43 C         -50.9514  -23.8347   15.3130 C.2       9 UNK         0.4988 
     44 O         -51.7014  -23.3429   16.1560 O.2       9 UNK        -0.5108 
     45 CA        -51.0491  -23.3552   13.8562 C.3       8 UNK         0.0248 
     46 CB        -50.0395  -22.2274   13.5865 C.3       8 UNK        -0.2001 
     47 N         -50.8273  -24.4569   12.9181 N.am      8 UNK        -0.4140 
     48 C         -51.7963  -25.2891   12.5090 C.2       8 UNK         0.5028 
     49 O         -52.9894  -25.1233   12.7637 O.2       8 UNK        -0.5428 
     50 CA        -51.3945  -26.5099   11.6644 C.3       7 UNK         0.0264 
     51 CB        -51.7210  -26.2569   10.1858 C.3       7 UNK        -0.1988 
     52 N         -49.9911  -26.9125   11.7981 N.am      7 UNK        -0.4454 
     53 C         -49.4381  -27.3960   12.9210 C.2       7 UNK         0.5027 
     54 O         -50.0802  -27.6335   13.9437 O.2       7 UNK        -0.5083 
     55 CA        -47.9019  -27.5577   12.9615 C.3       6 UNK         0.0844 
     56 C56       -47.4511  -29.0423   12.9228 C.3       14 UNK        -0.0967 
     57 S57       -47.1159  -29.7026   11.2509 S.3       14 UNK        -0.2604 
     58 C58       -48.2868  -31.0836   11.1081 C.3       14 UNK         0.0134 
     59 N         -47.1843  -26.7174   11.9956 N.am      6 UNK        -0.4116 
     60 C         -47.2364  -25.3831   11.9183 C.2       5 UNK         0.5034 
     61 O         -47.8948  -24.6915   12.6962 O.2       5 UNK        -0.5045 
     62 CA        -46.5073  -24.6990   10.7495 C.3       5 UNK         0.0224 
     63 CB        -45.2389  -23.9688   11.2308 C.3       5 UNK        -0.1978 
     64 N         -46.2312  -25.5623    9.5887 N.am      5 UNK        -0.4737 
     65 C         -45.3390  -26.5579    9.4579 C.2       4 UNK         0.5027 
     66 O         -44.6436  -26.9820   10.3791 O.2       4 UNK        -0.5211 
     67 CA        -45.2073  -27.1883    8.0581 C.3       4 UNK         0.0297 
     68 CB        -46.1942  -28.3557    7.8943 C.3       4 UNK        -0.1993 
     69 N         -45.4440  -26.2081    6.9962 N.am      4 UNK        -0.4486 
     70 C         -44.5789  -25.2454    6.6375 C.2       3 UNK         0.4961 
     71 O         -43.4201  -25.1729    7.0459 O.2       3 UNK        -0.5105 
     72 CA        -45.1272  -24.1428    5.7222 C.3       3 UNK         0.0299 
     73 CB        -45.2063  -24.6019    4.2559 C.3       3 UNK        -0.1972 
     74 N         -46.4436  -23.7522    6.2132 N.am      3 UNK        -0.4305 
     75 C         -47.0452  -22.5682    6.1129 C.2       2 UNK         0.5006 
     76 O         -46.5882  -21.6168    5.4772 O.2       2 UNK        -0.5106 
     77 CA        -48.3858  -22.4435    6.8734 C.3       2 UNK         0.0296 
     78 CB        -49.0895  -21.0989    6.6115 C.3       2 UNK        -0.2002 
     79 N         -49.3312  -23.5324    6.5906 N.am      2 UNK        -0.4032 
     80 C         -49.2387  -24.8197    6.9558 C.2       1 UNK         0.5000 
     81 O         -48.2853  -25.2700    7.6002 O.2       1 UNK        -0.5238 
     82 H82       -50.8306  -25.8439    2.4936 H         1 UNK         0.0889 
     83 H83       -50.7384  -24.0898    2.3192 H         1 UNK         0.0889 
     84 H84       -52.3062  -24.8766    2.5226 H         1 UNK         0.0889 
     85 H85       -50.2092  -26.5130    4.5295 H         1 UNK         0.3028 
     86 H86       -51.2856  -25.3674    6.9535 H         1 UNK         0.0864 
     87 H87       -49.9578  -27.2578    8.0385 H         1 UNK         0.0720 
     88 H88       -49.3607  -27.6971    6.4598 H         1 UNK         0.0720 
     89 H89       -51.9497  -30.5752    6.8050 H         1 UNK         0.0814 
     90 H90       -50.2761  -30.1197    6.6191 H         1 UNK         0.0814 
     91 H91       -48.9363  -30.5604    8.5262 H         1 UNK         0.1469 
     92 H92       -50.5998  -30.5964   12.4752 H         1 UNK         0.1381 
     93 H93       -53.0750  -29.5942    9.1193 H         1 UNK         0.1206 
     94 H94       -52.7548  -29.6070   12.8380 H         1 UNK         0.0813 
     95 H95       -53.6913  -28.9524   11.5172 H         1 UNK         0.0813 
     96 H96       -54.4460  -30.4886   14.1938 H         1 UNK         0.0638 
     97 H97       -55.3884  -31.9180   13.8840 H         1 UNK         0.0638 
     98 H98       -56.9856  -30.5205   12.4873 H         1 UNK         0.0568 
     99 H99       -58.8299  -31.0181   13.6592 H         1 UNK         0.3450 
    100 H100      -59.0339  -30.6842   15.3593 H         1 UNK         0.3450 
    101 H101      -55.2401  -28.3096   13.3722 H         1 UNK         0.2987 
    102 H102      -55.7371  -26.4373   11.2361 H         1 UNK         0.0766 
    103 H103      -57.2172  -24.4413   11.5503 H         1 UNK         0.0798 
    104 H104      -58.3417  -25.4206   12.4913 H         1 UNK         0.0798 
    105 H105      -58.0745  -25.7699   10.7895 H         1 UNK         0.0798 
    106 H106      -54.6909  -25.6348   13.0068 H         1 UNK         0.3198 
    107 H107      -54.3137  -24.5896   14.8944 H         1 UNK         0.0843 
    108 H108      -56.2539  -24.9221   17.2274 H         1 UNK         0.0831 
    109 H109      -56.2595  -23.5715   16.1020 H         1 UNK         0.0831 
    110 H110      -54.8689  -23.8311   17.1408 H         1 UNK         0.0831 
    111 H111      -53.8812  -26.0176   17.0622 H         1 UNK         0.3133 
    112 H112      -52.9616  -28.0720   17.5178 H         1 UNK         0.0566 
    113 H113      -51.5070  -29.9299   16.7179 H         1 UNK         0.0814 
    114 H114      -53.1417  -30.1052   16.1039 H         1 UNK         0.0814 
    115 H115      -51.8613  -29.5204   15.0438 H         1 UNK         0.0814 
    116 H116      -50.8433  -27.3098   15.5459 H         1 UNK         0.3091 
    117 H117      -49.7509  -24.5868   17.6337 H         1 UNK         0.0702 
    118 H118      -47.6591  -25.5248   16.6558 H         1 UNK         0.0785 
    119 H119      -48.5092  -27.0024   16.2048 H         1 UNK         0.0785 
    120 H120      -48.3046  -26.5849   17.8978 H         1 UNK         0.0785 
    121 H121      -49.4586  -25.1163   14.8264 H         1 UNK         0.2998 
    122 H122      -52.0508  -22.9468   13.7040 H         1 UNK         0.0697 
    123 H123      -49.0126  -22.5441   13.7710 H         1 UNK         0.0825 
    124 H124      -50.2345  -21.3708   14.2330 H         1 UNK         0.0825 
    125 H125      -50.1022  -21.8767   12.5563 H         1 UNK         0.0825 
    126 H126      -49.8641  -24.6415   12.6560 H         1 UNK         0.3029 
    127 H127      -52.0094  -27.3361   12.0195 H         1 UNK         0.0897 
    128 H128      -51.6133  -27.1693    9.6043 H         1 UNK         0.0792 
    129 H129      -51.0750  -25.4936    9.7510 H         1 UNK         0.0792 
    130 H130      -52.7526  -25.9244   10.0609 H         1 UNK         0.0792 
    131 H131      -49.3948  -26.7672   10.9972 H         1 UNK         0.3086 
    132 H132      -47.6120  -27.1764   13.9426 H         1 UNK         0.0583 
    133 H133      -46.5170  -29.1341   13.4792 H         1 UNK         0.1020 
    134 H134      -48.1551  -29.6851   13.4552 H         1 UNK         0.1020 
    135 H135      -47.8604  -31.8288   10.4349 H         1 UNK         0.0694 
    136 H136      -48.4039  -31.5835   12.0707 H         1 UNK         0.0694 
    137 H137      -46.5864  -27.2064   11.3405 H         1 UNK         0.2989 
    138 H138      -47.1971  -23.9373   10.3816 H         1 UNK         0.1055 
    139 H139      -45.4813  -23.2378   12.0034 H         1 UNK         0.0806 
    140 H140      -44.7578  -23.4300   10.4144 H         1 UNK         0.0806 
    141 H141      -44.5077  -24.6562   11.6570 H         1 UNK         0.0806 
    142 H142      -46.8446  -25.3976    8.7947 H         1 UNK         0.3061 
    143 H143      -44.1919  -27.5769    7.9542 H         1 UNK         0.0734 
    144 H144      -46.1404  -28.7872    6.8948 H         1 UNK         0.0832 
    145 H145      -45.9637  -29.1551    8.5985 H         1 UNK         0.0832 
    146 H146      -47.2255  -28.0480    8.0741 H         1 UNK         0.0832 
    147 H147      -46.3677  -26.2154    6.5880 H         1 UNK         0.3156 
    148 H148      -44.4552  -23.2845    5.7903 H         1 UNK         0.0589 
    149 H149      -45.8893  -25.4425    4.1291 H         1 UNK         0.0808 
    150 H150      -45.5473  -23.7945    3.6077 H         1 UNK         0.0808 
    151 H151      -44.2269  -24.9168    3.8935 H         1 UNK         0.0808 
    152 H152      -46.9325  -24.4380    6.7824 H         1 UNK         0.3098 
    153 H153      -48.1431  -22.4856    7.9373 H         1 UNK         0.0720 
    154 H154      -49.9959  -21.0022    7.2096 H         1 UNK         0.0791 
    155 H155      -49.3666  -20.9885    5.5623 H         1 UNK         0.0791 
    156 H156      -48.4434  -20.2589    6.8705 H         1 UNK         0.0791 
    157 H157      -50.1346  -23.2909    6.0149 H         1 UNK         0.3028 
@<TRIPOS>BOND
     1    1    2 1    
     2    1   82 1    
     3    1   83 1    
     4    1   84 1    
     5    2    3 2    
     6    2    4 am   BACKBONE|DICT|INTERRES
     7    4    5 1    
     8    4   85 1    
     9    5    6 1    
    10    5   80 1    
    11    5   86 1    
    12    6    7 1    
    13    6   87 1    
    14    6   88 1    
    15    7    8 1    
    16    8    9 1    
    17    8   89 1    
    18    8   90 1    
    19    9   10 ar   
    20    9   14 ar   
    21   10   11 ar   
    22   10   91 1    
    23   11   12 ar   
    24   11   58 1    
    25   12   13 ar   
    26   12   92 1    
    27   13   14 ar   
    28   13   15 1    
    29   14   93 1    
    30   15   16 1    
    31   15   94 1    
    32   15   95 1    
    33   16   17 1    
    34   17   18 1    
    35   17   96 1    
    36   17   97 1    
    37   18   19 1    
    38   18   22 1    
    39   18   98 1    
    40   19   20 am   BACKBONE|DICT|INTERRES
    41   19   21 2    
    42   20   99 1    
    43   20  100 1    
    44   22   23 am   BACKBONE|DICT|INTERRES
    45   22  101 1    
    46   23   24 2    
    47   23   25 1    
    48   25   26 1    
    49   25   27 1    
    50   25  102 1    
    51   26  103 1    
    52   26  104 1    
    53   26  105 1    
    54   27   28 am   BACKBONE|DICT|INTERRES
    55   27  106 1    
    56   28   29 2    
    57   28   30 1    
    58   30   31 1    
    59   30   32 1    
    60   30  107 1    
    61   31  108 1    
    62   31  109 1    
    63   31  110 1    
    64   32   33 am   BACKBONE|DICT|INTERRES
    65   32  111 1    
    66   33   34 2    
    67   33   35 1    
    68   35   36 1    
    69   35   37 1    
    70   35  112 1    
    71   36  113 1    
    72   36  114 1    
    73   36  115 1    
    74   37   38 am   BACKBONE|DICT|INTERRES
    75   37  116 1    
    76   38   39 2    
    77   38   40 1    
    78   40   41 1    
    79   40   42 1    
    80   40  117 1    
    81   41  118 1    
    82   41  119 1    
    83   41  120 1    
    84   42   43 am   BACKBONE|DICT|INTERRES
    85   42  121 1    
    86   43   44 2    
    87   43   45 1    
    88   45   46 1    
    89   45   47 1    
    90   45  122 1    
    91   46  123 1    
    92   46  124 1    
    93   46  125 1    
    94   47   48 am   BACKBONE|DICT|INTERRES
    95   47  126 1    
    96   48   49 2    
    97   48   50 1    
    98   50   51 1    
    99   50   52 1    
   100   50  127 1    
   101   51  128 1    
   102   51  129 1    
   103   51  130 1    
   104   52   53 am   BACKBONE|DICT|INTERRES
   105   52  131 1    
   106   53   54 2    
   107   53   55 1    
   108   55   56 1    
   109   55   59 1    
   110   55  132 1    
   111   56   57 1    
   112   56  133 1    
   113   56  134 1    
   114   57   58 1    
   115   58  135 1    
   116   58  136 1    
   117   59   60 am   BACKBONE|DICT|INTERRES
   118   59  137 1    
   119   60   61 2    
   120   60   62 1    
   121   62   63 1    
   122   62   64 1    
   123   62  138 1    
   124   63  139 1    
   125   63  140 1    
   126   63  141 1    
   127   64   65 am   BACKBONE|DICT|INTERRES
   128   64  142 1    
   129   65   66 2    
   130   65   67 1    
   131   67   68 1    
   132   67   69 1    
   133   67  143 1    
   134   68  144 1    
   135   68  145 1    
   136   68  146 1    
   137   69   70 am   BACKBONE|DICT|INTERRES
   138   69  147 1    
   139   70   71 2    
   140   70   72 1    
   141   72   73 1    
   142   72   74 1    
   143   72  148 1    
   144   73  149 1    
   145   73  150 1    
   146   73  151 1    
   147   74   75 am   BACKBONE|DICT|INTERRES
   148   74  152 1    
   149   75   76 2    
   150   75   77 1    
   151   77   78 1    
   152   77   79 1    
   153   77  153 1    
   154   78  154 1    
   155   78  155 1    
   156   78  156 1    
   157   79   80 am   BACKBONE|DICT|INTERRES
   158   79  157 1    
   159   80   81 2    
@<TRIPOS>SUBSTRUCTURE
     1 UNK         1 GROUP             0       ****    0 ROOT    
