@<TRIPOS>MOLECULE
3R207
157   159    1
SMALL
USER_CHARGES


@<TRIPOS>ATOM
      1 CA        -47.7807  -31.1358    4.0157 C.3       0 UNK        -0.1975 
      2 C         -48.9806  -30.2002    4.0303 C.2       0 UNK         0.4852 
      3 O         -49.3724  -29.6947    2.9781 O.2       0 UNK        -0.5216 
      4 N         -49.5658  -29.9729    5.2146 N.am      1 UNK        -0.4461 
      5 CA        -50.7149  -29.0847    5.4356 C.3       1 UNK         0.0864 
      6 C6        -51.3020  -29.2564    6.8625 C.3       14 UNK        -0.0898 
      7 S7        -52.7171  -30.4053    6.9113 S.3       14 UNK        -0.2598 
      8 C8        -54.1399  -29.3420    6.4823 C.3       14 UNK         0.0286 
      9 C9        -54.2935  -28.1432    7.4098 C.ar      14 UNK        -0.0844 
     10 C10       -53.7851  -26.9015    7.0221 C.ar      14 UNK        -0.0881 
     11 C11       -53.8636  -25.7996    7.8746 C.ar      14 UNK        -0.0643 
     12 C12       -54.4996  -25.9310    9.1108 C.ar      14 UNK        -0.0930 
     13 C13       -55.0479  -27.1588    9.4970 C.ar      14 UNK        -0.0827 
     14 C14       -54.9378  -28.2643    8.6455 C.ar      14 UNK        -0.1249 
     15 C15       -55.7676  -27.2739   10.8309 C.3       14 UNK         0.0141 
     16 S16       -54.6116  -27.6435   12.1860 S.3       14 UNK        -0.2313 
     17 C17       -54.8753  -29.4308   12.4661 C.3       14 UNK        -0.0915 
     18 CA        -53.5902  -30.2890   12.3444 C.3       13 UNK         0.0968 
     19 C         -53.1599  -30.4848   10.8664 C.2       13 UNK         0.5732 
     20 N         -52.1670  -29.7645   10.3637 N.am      13 UNK        -0.7310 
     21 O         -53.7359  -31.3199   10.1736 O.2       13 UNK        -0.5035 
     22 N         -52.5377  -29.8320   13.2623 N.am      13 UNK        -0.4233 
     23 C         -51.4595  -30.5476   13.6084 C.2       13 UNK         0.4989 
     24 O         -51.1941  -31.6584   13.1469 O.2       13 UNK        -0.4996 
     25 CA        -50.5391  -29.9548   14.6920 C.3       12 UNK         0.0216 
     26 CB        -49.3420  -29.2233   14.0677 C.3       12 UNK        -0.1964 
     27 N         -51.2332  -29.0569   15.6202 N.am      12 UNK        -0.4276 
     28 C         -52.1282  -29.4541   16.5375 C.2       12 UNK         0.5020 
     29 O         -52.4312  -30.6314   16.7351 O.2       12 UNK        -0.5489 
     30 CA        -52.8070  -28.3563   17.3686 C.3       11 UNK         0.0294 
     31 CB        -52.0283  -28.1057   18.6704 C.3       11 UNK        -0.2019 
     32 N         -52.9141  -27.1029   16.6207 N.am      11 UNK        -0.4493 
     33 C         -53.9480  -26.7686   15.8337 C.2       11 UNK         0.4932 
     34 O         -54.9337  -27.4903   15.6787 O.2       11 UNK        -0.5029 
     35 CA        -53.8689  -25.4122   15.0922 C.3       10 UNK         0.0280 
     36 CB        -55.2569  -24.7864   14.8419 C.3       10 UNK        -0.1976 
     37 N         -52.9598  -24.4482   15.7245 N.am      10 UNK        -0.4242 
     38 C         -53.0269  -23.9736   16.9788 C.2       10 UNK         0.5072 
     39 O         -53.9959  -24.1421   17.7212 O.2       10 UNK        -0.5224 
     40 CA        -51.7876  -23.2262   17.5178 C.3       9 UNK         0.0343 
     41 CB        -51.5637  -23.5047   19.0193 C.3       9 UNK        -0.2003 
     42 N         -50.5383  -23.4729   16.7815 N.am      9 UNK        -0.4272 
     43 C         -49.9273  -24.6391   16.5234 C.2       9 UNK         0.4988 
     44 O         -50.4083  -25.7406   16.7976 O.2       9 UNK        -0.5108 
     45 CA        -48.5689  -24.5475   15.7978 C.3       8 UNK         0.0248 
     46 CB        -47.8755  -25.9161   15.6822 C.3       8 UNK        -0.2001 
     47 N         -48.6858  -23.9480   14.4624 N.am      8 UNK        -0.4140 
     48 C         -48.9235  -22.6498   14.2233 C.2       8 UNK         0.5028 
     49 O         -49.0179  -21.8057   15.1170 O.2       8 UNK        -0.5428 
     50 CA        -49.1054  -22.1913   12.7688 C.3       7 UNK         0.0264 
     51 CB        -47.8222  -21.5245   12.2488 C.3       7 UNK        -0.1988 
     52 N         -49.5275  -23.2292   11.8262 N.am      7 UNK        -0.4454 
     53 C         -50.7283  -23.8314   11.8143 C.2       7 UNK         0.5027 
     54 O         -51.5610  -23.7280   12.7165 O.2       7 UNK        -0.5083 
     55 CA        -51.0536  -24.6490   10.5486 C.3       6 UNK         0.0844 
     56 C56       -51.2983  -23.6796    9.3594 C.3       14 UNK        -0.0967 
     57 S57       -51.4488  -24.4864    7.7303 S.3       14 UNK        -0.2604 
     58 C58       -53.2463  -24.4800    7.4470 C.3       14 UNK         0.0134 
     59 N         -49.9668  -25.5937   10.3014 N.am      6 UNK        -0.4116 
     60 C         -49.9074  -26.8385   10.7917 C.2       5 UNK         0.5034 
     61 O         -50.8241  -27.3899   11.4015 O.2       5 UNK        -0.5045 
     62 CA        -48.5847  -27.6017   10.5907 C.3       5 UNK         0.0224 
     63 CB        -48.6762  -28.5444    9.3843 C.3       5 UNK        -0.1978 
     64 N         -47.4222  -26.7231   10.4363 N.am      5 UNK        -0.4737 
     65 C         -46.9498  -25.9296   11.4087 C.2       4 UNK         0.5027 
     66 O         -47.4380  -25.8680   12.5357 O.2       4 UNK        -0.5211 
     67 CA        -45.7714  -25.0084   11.0555 C.3       4 UNK         0.0297 
     68 CB        -44.4389  -25.7043   11.3727 C.3       4 UNK        -0.1993 
     69 N         -45.7615  -24.5474    9.6635 N.am      4 UNK        -0.4486 
     70 C         -46.7556  -23.9017    9.0369 C.2       3 UNK         0.4961 
     71 O         -47.8371  -23.6325    9.5638 O.2       3 UNK        -0.5105 
     72 CA        -46.5198  -23.4989    7.5691 C.3       3 UNK         0.0299 
     73 CB        -45.0819  -23.7568    7.0614 C.3       3 UNK        -0.1972 
     74 N         -47.4924  -24.1169    6.6619 N.am      3 UNK        -0.4305 
     75 C         -47.7417  -25.4254    6.5068 C.2       2 UNK         0.5006 
     76 O         -47.2141  -26.3245    7.1692 O.2       2 UNK        -0.5106 
     77 CA        -48.7179  -25.7826    5.3806 C.3       2 UNK         0.0296 
     78 CB        -48.0418  -25.6513    4.0025 C.3       2 UNK        -0.2002 
     79 N         -49.1959  -27.1501    5.5594 N.am      2 UNK        -0.4032 
     80 C         -50.3847  -27.6049    5.1438 C.2       1 UNK         0.5000 
     81 O         -51.2065  -26.9148    4.5376 O.2       1 UNK        -0.5238 
     82 H82       -47.5452  -31.5147    5.0100 H         1 UNK         0.0889 
     83 H83       -46.9031  -30.6136    3.6355 H         1 UNK         0.0889 
     84 H84       -47.9779  -31.9883    3.3664 H         1 UNK         0.0889 
     85 H85       -49.2094  -30.4428    6.0343 H         1 UNK         0.3028 
     86 H86       -51.4768  -29.3643    4.7044 H         1 UNK         0.0864 
     87 H87       -51.5889  -28.3112    7.3231 H         1 UNK         0.0720 
     88 H88       -50.5458  -29.6608    7.5337 H         1 UNK         0.0720 
     89 H89       -55.0487  -29.9446    6.5154 H         1 UNK         0.0814 
     90 H90       -54.0363  -29.0106    5.4479 H         1 UNK         0.0814 
     91 H91       -53.2921  -26.7970    6.0659 H         1 UNK         0.1469 
     92 H92       -54.5662  -25.0796    9.7741 H         1 UNK         0.1381 
     93 H93       -55.3412  -29.2209    8.9485 H         1 UNK         0.1206 
     94 H94       -56.5612  -28.0197   10.7768 H         1 UNK         0.0813 
     95 H95       -56.2670  -26.3304   11.0563 H         1 UNK         0.0813 
     96 H96       -55.2837  -29.5389   13.4721 H         1 UNK         0.0638 
     97 H97       -55.6492  -29.8123   11.7985 H         1 UNK         0.0638 
     98 H98       -53.8645  -31.2875   12.6908 H         1 UNK         0.0568 
     99 H99       -51.9411  -29.8911    9.3913 H         1 UNK         0.3450 
    100 H100      -51.7448  -29.0134   10.9005 H         1 UNK         0.3450 
    101 H101      -52.6673  -28.9128   13.6555 H         1 UNK         0.2987 
    102 H102      -50.1495  -30.7962   15.2693 H         1 UNK         0.0766 
    103 H103      -49.6422  -28.2878   13.5969 H         1 UNK         0.0798 
    104 H104      -48.8590  -29.8382   13.3070 H         1 UNK         0.0798 
    105 H105      -48.5872  -28.9938   14.8198 H         1 UNK         0.0798 
    106 H106      -51.0252  -28.0707   15.5531 H         1 UNK         0.3198 
    107 H107      -53.8063  -28.7074   17.6355 H         1 UNK         0.0843 
    108 H108      -52.5099  -27.3397   19.2786 H         1 UNK         0.0831 
    109 H109      -51.0042  -27.7843   18.4769 H         1 UNK         0.0831 
    110 H110      -51.9760  -29.0136   19.2728 H         1 UNK         0.0831 
    111 H111      -52.1251  -26.4638   16.7007 H         1 UNK         0.3133 
    112 H112      -53.4283  -25.6301   14.1185 H         1 UNK         0.0566 
    113 H113      -55.8798  -25.4480   14.2385 H         1 UNK         0.0814 
    114 H114      -55.7912  -24.5981   15.7734 H         1 UNK         0.0814 
    115 H115      -55.1743  -23.8428   14.3029 H         1 UNK         0.0814 
    116 H116      -52.1336  -24.2235   15.1855 H         1 UNK         0.3091 
    117 H117      -52.0035  -22.1632   17.4026 H         1 UNK         0.0702 
    118 H118      -50.7024  -22.9563   19.4007 H         1 UNK         0.0785 
    119 H119      -51.3971  -24.5658   19.2100 H         1 UNK         0.0785 
    120 H120      -52.4263  -23.1982   19.6123 H         1 UNK         0.0785 
    121 H121      -50.0716  -22.6431   16.4188 H         1 UNK         0.2998 
    122 H122      -47.9264  -23.9079   16.4065 H         1 UNK         0.0697 
    123 H123      -46.8738  -25.8190   15.2634 H         1 UNK         0.0825 
    124 H124      -47.7740  -26.3924   16.6582 H         1 UNK         0.0825 
    125 H125      -48.4397  -26.5936   15.0423 H         1 UNK         0.0825 
    126 H126      -48.5665  -24.5767   13.6738 H         1 UNK         0.3029 
    127 H127      -49.8920  -21.4335   12.7791 H         1 UNK         0.0897 
    128 H128      -47.9600  -21.1238   11.2442 H         1 UNK         0.0792 
    129 H129      -47.5262  -20.6932   12.8903 H         1 UNK         0.0792 
    130 H130      -46.9880  -22.2237   12.2191 H         1 UNK         0.0792 
    131 H131      -48.9054  -23.3860   11.0350 H         1 UNK         0.3086 
    132 H132      -51.9783  -25.2025   10.7271 H         1 UNK         0.0583 
    133 H133      -52.1837  -23.0712    9.5513 H         1 UNK         0.1020 
    134 H134      -50.4759  -22.9679    9.2627 H         1 UNK         0.1020 
    135 H135      -53.7213  -23.6408    7.9564 H         1 UNK         0.0694 
    136 H136      -53.4276  -24.3259    6.3821 H         1 UNK         0.0694 
    137 H137      -49.1529  -25.2181    9.8300 H         1 UNK         0.2989 
    138 H138      -48.4182  -28.2080   11.4823 H         1 UNK         0.1055 
    139 H139      -48.9366  -28.0052    8.4737 H         1 UNK         0.0806 
    140 H140      -49.4388  -29.3044    9.5535 H         1 UNK         0.0806 
    141 H141      -47.7352  -29.0670    9.2113 H         1 UNK         0.0806 
    142 H142      -46.9966  -26.6778    9.5181 H         1 UNK         0.3061 
    143 H143      -45.8485  -24.1261   11.6911 H         1 UNK         0.0734 
    144 H144      -43.5936  -25.0306   11.2313 H         1 UNK         0.0832 
    145 H145      -44.4122  -26.0393   12.4108 H         1 UNK         0.0832 
    146 H146      -44.2809  -26.5814   10.7438 H         1 UNK         0.0832 
    147 H147      -44.9246  -24.7413    9.1328 H         1 UNK         0.3156 
    148 H148      -46.6961  -22.4233    7.5233 H         1 UNK         0.0589 
    149 H149      -44.8301  -24.8181    7.0497 H         1 UNK         0.0808 
    150 H150      -44.9576  -23.3836    6.0446 H         1 UNK         0.0808 
    151 H151      -44.3433  -23.2409    7.6767 H         1 UNK         0.0808 
    152 H152      -48.0162  -23.4682    6.0909 H         1 UNK         0.3098 
    153 H153      -49.5627  -25.0931    5.4374 H         1 UNK         0.0720 
    154 H154      -47.6784  -24.6371    3.8328 H         1 UNK         0.0791 
    155 H155      -47.1889  -26.3249    3.9091 H         1 UNK         0.0791 
    156 H156      -48.7380  -25.8822    3.1959 H         1 UNK         0.0791 
    157 H157      -48.5738  -27.7503    6.0851 H         1 UNK         0.3028 
@<TRIPOS>BOND
     1    1    2 1    
     2    1   82 1    
     3    1   83 1    
     4    1   84 1    
     5    2    3 2    
     6    2    4 am   BACKBONE|DICT|INTERRES
     7    4    5 1    
     8    4   85 1    
     9    5    6 1    
    10    5   80 1    
    11    5   86 1    
    12    6    7 1    
    13    6   87 1    
    14    6   88 1    
    15    7    8 1    
    16    8    9 1    
    17    8   89 1    
    18    8   90 1    
    19    9   10 ar   
    20    9   14 ar   
    21   10   11 ar   
    22   10   91 1    
    23   11   12 ar   
    24   11   58 1    
    25   12   13 ar   
    26   12   92 1    
    27   13   14 ar   
    28   13   15 1    
    29   14   93 1    
    30   15   16 1    
    31   15   94 1    
    32   15   95 1    
    33   16   17 1    
    34   17   18 1    
    35   17   96 1    
    36   17   97 1    
    37   18   19 1    
    38   18   22 1    
    39   18   98 1    
    40   19   20 am   BACKBONE|DICT|INTERRES
    41   19   21 2    
    42   20   99 1    
    43   20  100 1    
    44   22   23 am   BACKBONE|DICT|INTERRES
    45   22  101 1    
    46   23   24 2    
    47   23   25 1    
    48   25   26 1    
    49   25   27 1    
    50   25  102 1    
    51   26  103 1    
    52   26  104 1    
    53   26  105 1    
    54   27   28 am   BACKBONE|DICT|INTERRES
    55   27  106 1    
    56   28   29 2    
    57   28   30 1    
    58   30   31 1    
    59   30   32 1    
    60   30  107 1    
    61   31  108 1    
    62   31  109 1    
    63   31  110 1    
    64   32   33 am   BACKBONE|DICT|INTERRES
    65   32  111 1    
    66   33   34 2    
    67   33   35 1    
    68   35   36 1    
    69   35   37 1    
    70   35  112 1    
    71   36  113 1    
    72   36  114 1    
    73   36  115 1    
    74   37   38 am   BACKBONE|DICT|INTERRES
    75   37  116 1    
    76   38   39 2    
    77   38   40 1    
    78   40   41 1    
    79   40   42 1    
    80   40  117 1    
    81   41  118 1    
    82   41  119 1    
    83   41  120 1    
    84   42   43 am   BACKBONE|DICT|INTERRES
    85   42  121 1    
    86   43   44 2    
    87   43   45 1    
    88   45   46 1    
    89   45   47 1    
    90   45  122 1    
    91   46  123 1    
    92   46  124 1    
    93   46  125 1    
    94   47   48 am   BACKBONE|DICT|INTERRES
    95   47  126 1    
    96   48   49 2    
    97   48   50 1    
    98   50   51 1    
    99   50   52 1    
   100   50  127 1    
   101   51  128 1    
   102   51  129 1    
   103   51  130 1    
   104   52   53 am   BACKBONE|DICT|INTERRES
   105   52  131 1    
   106   53   54 2    
   107   53   55 1    
   108   55   56 1    
   109   55   59 1    
   110   55  132 1    
   111   56   57 1    
   112   56  133 1    
   113   56  134 1    
   114   57   58 1    
   115   58  135 1    
   116   58  136 1    
   117   59   60 am   BACKBONE|DICT|INTERRES
   118   59  137 1    
   119   60   61 2    
   120   60   62 1    
   121   62   63 1    
   122   62   64 1    
   123   62  138 1    
   124   63  139 1    
   125   63  140 1    
   126   63  141 1    
   127   64   65 am   BACKBONE|DICT|INTERRES
   128   64  142 1    
   129   65   66 2    
   130   65   67 1    
   131   67   68 1    
   132   67   69 1    
   133   67  143 1    
   134   68  144 1    
   135   68  145 1    
   136   68  146 1    
   137   69   70 am   BACKBONE|DICT|INTERRES
   138   69  147 1    
   139   70   71 2    
   140   70   72 1    
   141   72   73 1    
   142   72   74 1    
   143   72  148 1    
   144   73  149 1    
   145   73  150 1    
   146   73  151 1    
   147   74   75 am   BACKBONE|DICT|INTERRES
   148   74  152 1    
   149   75   76 2    
   150   75   77 1    
   151   77   78 1    
   152   77   79 1    
   153   77  153 1    
   154   78  154 1    
   155   78  155 1    
   156   78  156 1    
   157   79   80 am   BACKBONE|DICT|INTERRES
   158   79  157 1    
   159   80   81 2    
@<TRIPOS>SUBSTRUCTURE
     1 UNK         1 GROUP             0       ****    0 ROOT    
