@<TRIPOS>MOLECULE
3R207
157   159    1
SMALL
USER_CHARGES


@<TRIPOS>ATOM
      1 CA        -49.3660  -27.3540    9.4615 C.3       0 UNK        -0.1975 
      2 C         -48.7288  -27.8487    8.1755 C.2       0 UNK         0.4852 
      3 O         -47.5039  -27.8063    8.0462 O.2       0 UNK        -0.5216 
      4 N         -49.5540  -28.3314    7.2365 N.am      1 UNK        -0.4461 
      5 CA        -49.1379  -28.9405    5.9683 C.3       1 UNK         0.0864 
      6 C6        -50.3366  -29.5534    5.1979 C.3       14 UNK        -0.0898 
      7 S7        -51.5883  -28.3446    4.6333 S.3       14 UNK        -0.2598 
      8 C8        -53.0595  -28.8237    5.5899 C.3       14 UNK         0.0286 
      9 C9        -52.9623  -28.3896    7.0443 C.ar      14 UNK        -0.0844 
     10 C10       -53.1838  -27.0536    7.3930 C.ar      14 UNK        -0.0881 
     11 C11       -53.1363  -26.6517    8.7307 C.ar      14 UNK        -0.0643 
     12 C12       -52.8636  -27.5975    9.7224 C.ar      14 UNK        -0.0930 
     13 C13       -52.6503  -28.9394    9.3875 C.ar      14 UNK        -0.0827 
     14 C14       -52.6882  -29.3262    8.0446 C.ar      14 UNK        -0.1249 
     15 C15       -52.3730  -29.9659   10.4802 C.3       14 UNK         0.0141 
     16 S16       -53.5674  -31.3480   10.4972 S.3       14 UNK        -0.2313 
     17 C17       -55.1957  -30.5169   10.4860 C.3       14 UNK        -0.0915 
     18 CA        -55.3944  -29.4623   11.6052 C.3       13 UNK         0.0968 
     19 C         -56.7709  -28.7580   11.4724 C.2       13 UNK         0.5732 
     20 N         -56.8908  -27.8073   10.5554 N.am      13 UNK        -0.7310 
     21 O         -57.7365  -29.0870   12.1598 O.2       13 UNK        -0.5035 
     22 N         -55.1783  -30.0324   12.9409 N.am      13 UNK        -0.4233 
     23 C         -54.8478  -29.3060   14.0124 C.2       13 UNK         0.4989 
     24 O         -54.6065  -28.0973   13.9722 O.2       13 UNK        -0.4996 
     25 CA        -54.7173  -30.0744   15.3365 C.3       12 UNK         0.0216 
     26 CB        -53.3697  -30.8133   15.4071 C.3       12 UNK        -0.1964 
     27 N         -54.8211  -29.1555   16.4699 N.am      12 UNK        -0.4276 
     28 C         -55.9787  -28.7396   17.0020 C.2       12 UNK         0.5020 
     29 O         -57.0793  -29.1923   16.6822 O.2       12 UNK        -0.5489 
     30 CA        -55.9109  -27.6370   18.0748 C.3       11 UNK         0.0294 
     31 CB        -55.9266  -28.2542   19.4828 C.3       11 UNK        -0.2019 
     32 N         -54.7326  -26.7791   17.9390 N.am      11 UNK        -0.4493 
     33 C         -54.5659  -25.8490   16.9889 C.2       11 UNK         0.4932 
     34 O         -55.4329  -25.5390   16.1718 O.2       11 UNK        -0.5029 
     35 CA        -53.2036  -25.1324   16.9512 C.3       10 UNK         0.0280 
     36 CB        -52.5794  -24.9299   18.3495 C.3       10 UNK        -0.1976 
     37 N         -52.2423  -25.7776   16.0518 N.am      10 UNK        -0.4242 
     38 C         -51.8023  -27.0459   16.0853 C.2       10 UNK         0.5072 
     39 O         -52.2213  -27.9081   16.8598 O.2       10 UNK        -0.5224 
     40 CA        -50.6474  -27.3969   15.1289 C.3       9 UNK         0.0343 
     41 CB        -51.1545  -27.6097   13.6928 C.3       9 UNK        -0.2003 
     42 N         -49.5908  -26.3804   15.1396 N.am      9 UNK        -0.4272 
     43 C         -48.8399  -26.0673   16.2088 C.2       9 UNK         0.4988 
     44 O         -48.8879  -26.6653   17.2841 O.2       9 UNK        -0.5108 
     45 CA        -47.8830  -24.8742   16.0629 C.3       8 UNK         0.0248 
     46 CB        -46.5426  -25.3194   15.4556 C.3       8 UNK        -0.2001 
     47 N         -48.4763  -23.8117   15.2482 N.am      8 UNK        -0.4140 
     48 C         -49.3417  -22.8995   15.7168 C.2       8 UNK         0.5028 
     49 O         -49.6548  -22.7999   16.9034 O.2       8 UNK        -0.5428 
     50 CA        -49.9759  -21.9345   14.6969 C.3       7 UNK         0.0264 
     51 CB        -49.1630  -20.6326   14.6113 C.3       7 UNK        -0.1988 
     52 N         -50.1138  -22.5076   13.3552 N.am      7 UNK        -0.4454 
     53 C         -50.9388  -23.5173   13.0392 C.2       7 UNK         0.5027 
     54 O         -51.7111  -24.0405   13.8424 O.2       7 UNK        -0.5083 
     55 CA        -50.8421  -24.0807   11.6060 C.3       6 UNK         0.0844 
     56 C56       -51.8655  -23.4016   10.6663 C.3       14 UNK        -0.0967 
     57 S57       -51.9020  -24.1899    9.0172 S.3       14 UNK        -0.2604 
     58 C58       -53.4122  -25.2042    9.1077 C.3       14 UNK         0.0134 
     59 N         -49.4795  -24.0194   11.0668 N.am      6 UNK        -0.4116 
     60 C         -48.4075  -24.6420   11.5693 C.2       5 UNK         0.5034 
     61 O         -48.4430  -25.3004   12.6103 O.2       5 UNK        -0.5045 
     62 CA        -47.0884  -24.5102   10.7791 C.3       5 UNK         0.0224 
     63 CB        -46.0284  -25.5347   11.2243 C.3       5 UNK        -0.1978 
     64 N         -47.2672  -24.6260    9.3272 N.am      5 UNK        -0.4737 
     65 C         -47.7318  -23.6684    8.5127 C.2       4 UNK         0.5027 
     66 O         -48.1514  -22.5860    8.9247 O.2       4 UNK        -0.5211 
     67 CA        -47.7566  -23.9825    7.0036 C.3       4 UNK         0.0297 
     68 CB        -47.6943  -22.7124    6.1302 C.3       4 UNK        -0.1993 
     69 N         -46.7348  -24.9529    6.5904 N.am      4 UNK        -0.4486 
     70 C         -45.4001  -24.8376    6.7002 C.2       3 UNK         0.4961 
     71 O         -44.8302  -23.8394    7.1418 O.2       3 UNK        -0.5105 
     72 CA        -44.5441  -26.0458    6.2738 C.3       3 UNK         0.0299 
     73 CB        -44.0134  -26.7861    7.5132 C.3       3 UNK        -0.1972 
     74 N         -45.2684  -26.9945    5.4257 N.am      3 UNK        -0.4305 
     75 C         -45.5337  -26.8032    4.1251 C.2       2 UNK         0.5006 
     76 O         -45.1081  -25.8481    3.4744 O.2       2 UNK        -0.5106 
     77 CA        -46.4419  -27.8369    3.4298 C.3       2 UNK         0.0296 
     78 CB        -45.5953  -28.8524    2.6447 C.3       2 UNK        -0.2002 
     79 N         -47.3476  -28.5586    4.3332 N.am      2 UNK        -0.4032 
     80 C         -48.3016  -27.9883    5.0842 C.2       1 UNK         0.5000 
     81 O         -48.5162  -26.7733    5.1053 O.2       1 UNK        -0.5238 
     82 H82       -48.6084  -27.2006   10.2276 H         1 UNK         0.0889 
     83 H83       -50.0685  -28.0878    9.8488 H         1 UNK         0.0889 
     84 H84       -49.8916  -26.4151    9.2940 H         1 UNK         0.0889 
     85 H85       -50.5546  -28.2827    7.3814 H         1 UNK         0.3028 
     86 H86       -48.4809  -29.7675    6.2463 H         1 UNK         0.0864 
     87 H87       -50.8182  -30.3096    5.8193 H         1 UNK         0.0720 
     88 H88       -49.9791  -30.0940    4.3197 H         1 UNK         0.0720 
     89 H89       -53.2164  -29.9007    5.5113 H         1 UNK         0.0814 
     90 H90       -53.9366  -28.3593    5.1367 H         1 UNK         0.0814 
     91 H91       -53.3996  -26.3265    6.6217 H         1 UNK         0.1469 
     92 H92       -52.8250  -27.2858   10.7574 H         1 UNK         0.1381 
     93 H93       -52.5254  -30.3632    7.7837 H         1 UNK         0.1206 
     94 H94       -51.3716  -30.3732   10.3352 H         1 UNK         0.0813 
     95 H95       -52.3680  -29.4966   11.4645 H         1 UNK         0.0813 
     96 H96       -55.3236  -30.0579    9.5039 H         1 UNK         0.0638 
     97 H97       -55.9624  -31.2905   10.5569 H         1 UNK         0.0638 
     98 H98       -54.6485  -28.6819   11.4669 H         1 UNK         0.0568 
     99 H99       -57.7803  -27.3471   10.4425 H         1 UNK         0.3450 
    100 H100      -56.1134  -27.5469    9.9694 H         1 UNK         0.3450 
    101 H101      -55.3692  -31.0180   13.0414 H         1 UNK         0.2987 
    102 H102      -55.5213  -30.8116   15.3938 H         1 UNK         0.0766 
    103 H103      -53.2753  -31.5385   14.5978 H         1 UNK         0.0798 
    104 H104      -53.2680  -31.3607   16.3443 H         1 UNK         0.0798 
    105 H105      -52.5253  -30.1287   15.3286 H         1 UNK         0.0798 
    106 H106      -53.9624  -28.6789   16.7373 H         1 UNK         0.3198 
    107 H107      -56.8021  -27.0154   17.9639 H         1 UNK         0.0843 
    108 H108      -55.0527  -28.8828   19.6590 H         1 UNK         0.0831 
    109 H109      -56.8101  -28.8785   19.6239 H         1 UNK         0.0831 
    110 H110      -55.9495  -27.4843   20.2543 H         1 UNK         0.0831 
    111 H111      -53.9441  -26.9871   18.5357 H         1 UNK         0.3133 
    112 H112      -53.3879  -24.1417   16.5328 H         1 UNK         0.0566 
    113 H113      -51.7119  -24.2717   18.2934 H         1 UNK         0.0814 
    114 H114      -52.2467  -25.8657   18.7994 H         1 UNK         0.0814 
    115 H115      -53.2901  -24.4657   19.0347 H         1 UNK         0.0814 
    116 H116      -51.8915  -25.1783   15.3071 H         1 UNK         0.3091 
    117 H117      -50.2026  -28.3333   15.4720 H         1 UNK         0.0702 
    118 H118      -50.3350  -27.8139   13.0031 H         1 UNK         0.0785 
    119 H119      -51.7004  -26.7427   13.3220 H         1 UNK         0.0785 
    120 H120      -51.8358  -28.4589   13.6486 H         1 UNK         0.0785 
    121 H121      -49.4183  -25.8860   14.2709 H         1 UNK         0.2998 
    122 H122      -47.6810  -24.4806   17.0616 H         1 UNK         0.0697 
    123 H123      -46.6732  -25.8018   14.4874 H         1 UNK         0.0825 
    124 H124      -46.0446  -26.0385   16.1073 H         1 UNK         0.0825 
    125 H125      -45.8637  -24.4767   15.3247 H         1 UNK         0.0825 
    126 H126      -48.3058  -23.8602   14.2528 H         1 UNK         0.3029 
    127 H127      -50.9763  -21.6895   15.0613 H         1 UNK         0.0897 
    128 H128      -48.1546  -20.8082   14.2342 H         1 UNK         0.0792 
    129 H129      -49.0666  -20.1684   15.5940 H         1 UNK         0.0792 
    130 H130      -49.6453  -19.9049   13.9583 H         1 UNK         0.0792 
    131 H131      -49.5166  -22.1307   12.6331 H         1 UNK         0.3086 
    132 H132      -51.1041  -25.1385   11.6689 H         1 UNK         0.0583 
    133 H133      -52.8653  -23.4119   11.1045 H         1 UNK         0.1020 
    134 H134      -51.6156  -22.3475   10.5308 H         1 UNK         0.1020 
    135 H135      -53.8490  -25.1666   10.1062 H         1 UNK         0.0694 
    136 H136      -54.1611  -24.7805    8.4369 H         1 UNK         0.0694 
    137 H137      -49.3487  -23.4775   10.2183 H         1 UNK         0.2989 
    138 H138      -46.6959  -23.5141   10.9955 H         1 UNK         0.1055 
    139 H139      -46.3704  -26.5604   11.0816 H         1 UNK         0.0806 
    140 H140      -45.0992  -25.4113   10.6674 H         1 UNK         0.0806 
    141 H141      -45.7844  -25.4145   12.2800 H         1 UNK         0.0806 
    142 H142      -46.9852  -25.5016    8.9059 H         1 UNK         0.3061 
    143 H143      -48.7181  -24.4634    6.8162 H         1 UNK         0.0734 
    144 H144      -46.7852  -22.1389    6.3136 H         1 UNK         0.0832 
    145 H145      -47.7282  -22.9597    5.0692 H         1 UNK         0.0832 
    146 H146      -48.5398  -22.0546    6.3352 H         1 UNK         0.0832 
    147 H147      -47.1108  -25.8077    6.1901 H         1 UNK         0.3156 
    148 H148      -43.6877  -25.6618    5.7155 H         1 UNK         0.0589 
    149 H149      -43.3521  -27.6063    7.2334 H         1 UNK         0.0808 
    150 H150      -43.4402  -26.1143    8.1538 H         1 UNK         0.0808 
    151 H151      -44.8230  -27.1977    8.1173 H         1 UNK         0.0808 
    152 H152      -45.6633  -27.8022    5.8868 H         1 UNK         0.3098 
    153 H153      -47.0626  -27.2885    2.7180 H         1 UNK         0.0720 
    154 H154      -44.9318  -28.3468    1.9415 H         1 UNK         0.0791 
    155 H155      -46.2225  -29.5289    2.0637 H         1 UNK         0.0791 
    156 H156      -44.9707  -29.4548    3.3057 H         1 UNK         0.0791 
    157 H157      -47.2342  -29.5618    4.3703 H         1 UNK         0.3028 
@<TRIPOS>BOND
     1    1    2 1    
     2    1   82 1    
     3    1   83 1    
     4    1   84 1    
     5    2    3 2    
     6    2    4 am   BACKBONE|DICT|INTERRES
     7    4    5 1    
     8    4   85 1    
     9    5    6 1    
    10    5   80 1    
    11    5   86 1    
    12    6    7 1    
    13    6   87 1    
    14    6   88 1    
    15    7    8 1    
    16    8    9 1    
    17    8   89 1    
    18    8   90 1    
    19    9   10 ar   
    20    9   14 ar   
    21   10   11 ar   
    22   10   91 1    
    23   11   12 ar   
    24   11   58 1    
    25   12   13 ar   
    26   12   92 1    
    27   13   14 ar   
    28   13   15 1    
    29   14   93 1    
    30   15   16 1    
    31   15   94 1    
    32   15   95 1    
    33   16   17 1    
    34   17   18 1    
    35   17   96 1    
    36   17   97 1    
    37   18   19 1    
    38   18   22 1    
    39   18   98 1    
    40   19   20 am   BACKBONE|DICT|INTERRES
    41   19   21 2    
    42   20   99 1    
    43   20  100 1    
    44   22   23 am   BACKBONE|DICT|INTERRES
    45   22  101 1    
    46   23   24 2    
    47   23   25 1    
    48   25   26 1    
    49   25   27 1    
    50   25  102 1    
    51   26  103 1    
    52   26  104 1    
    53   26  105 1    
    54   27   28 am   BACKBONE|DICT|INTERRES
    55   27  106 1    
    56   28   29 2    
    57   28   30 1    
    58   30   31 1    
    59   30   32 1    
    60   30  107 1    
    61   31  108 1    
    62   31  109 1    
    63   31  110 1    
    64   32   33 am   BACKBONE|DICT|INTERRES
    65   32  111 1    
    66   33   34 2    
    67   33   35 1    
    68   35   36 1    
    69   35   37 1    
    70   35  112 1    
    71   36  113 1    
    72   36  114 1    
    73   36  115 1    
    74   37   38 am   BACKBONE|DICT|INTERRES
    75   37  116 1    
    76   38   39 2    
    77   38   40 1    
    78   40   41 1    
    79   40   42 1    
    80   40  117 1    
    81   41  118 1    
    82   41  119 1    
    83   41  120 1    
    84   42   43 am   BACKBONE|DICT|INTERRES
    85   42  121 1    
    86   43   44 2    
    87   43   45 1    
    88   45   46 1    
    89   45   47 1    
    90   45  122 1    
    91   46  123 1    
    92   46  124 1    
    93   46  125 1    
    94   47   48 am   BACKBONE|DICT|INTERRES
    95   47  126 1    
    96   48   49 2    
    97   48   50 1    
    98   50   51 1    
    99   50   52 1    
   100   50  127 1    
   101   51  128 1    
   102   51  129 1    
   103   51  130 1    
   104   52   53 am   BACKBONE|DICT|INTERRES
   105   52  131 1    
   106   53   54 2    
   107   53   55 1    
   108   55   56 1    
   109   55   59 1    
   110   55  132 1    
   111   56   57 1    
   112   56  133 1    
   113   56  134 1    
   114   57   58 1    
   115   58  135 1    
   116   58  136 1    
   117   59   60 am   BACKBONE|DICT|INTERRES
   118   59  137 1    
   119   60   61 2    
   120   60   62 1    
   121   62   63 1    
   122   62   64 1    
   123   62  138 1    
   124   63  139 1    
   125   63  140 1    
   126   63  141 1    
   127   64   65 am   BACKBONE|DICT|INTERRES
   128   64  142 1    
   129   65   66 2    
   130   65   67 1    
   131   67   68 1    
   132   67   69 1    
   133   67  143 1    
   134   68  144 1    
   135   68  145 1    
   136   68  146 1    
   137   69   70 am   BACKBONE|DICT|INTERRES
   138   69  147 1    
   139   70   71 2    
   140   70   72 1    
   141   72   73 1    
   142   72   74 1    
   143   72  148 1    
   144   73  149 1    
   145   73  150 1    
   146   73  151 1    
   147   74   75 am   BACKBONE|DICT|INTERRES
   148   74  152 1    
   149   75   76 2    
   150   75   77 1    
   151   77   78 1    
   152   77   79 1    
   153   77  153 1    
   154   78  154 1    
   155   78  155 1    
   156   78  156 1    
   157   79   80 am   BACKBONE|DICT|INTERRES
   158   79  157 1    
   159   80   81 2    
@<TRIPOS>SUBSTRUCTURE
     1 UNK         1 GROUP             0       ****    0 ROOT    
