@<TRIPOS>MOLECULE
3R207
157   159    1
SMALL
USER_CHARGES


@<TRIPOS>ATOM
      1 CA        -50.2250  -29.8613    7.1070 C.3       0 UNK        -0.1975 
      2 C         -50.2684  -28.5186    6.3974 C.2       0 UNK         0.4852 
      3 O         -49.2534  -28.0864    5.8494 O.2       0 UNK        -0.5216 
      4 N         -51.4298  -27.8443    6.4060 N.am      1 UNK        -0.4461 
      5 CA        -51.6726  -26.5833    5.6854 C.3       1 UNK         0.0864 
      6 C6        -53.1799  -26.2099    5.6344 C.3       14 UNK        -0.0898 
      7 S7        -53.8531  -25.3661    7.1115 S.3       14 UNK        -0.2598 
      8 C8        -54.8195  -26.6832    7.9108 C.3       14 UNK         0.0286 
      9 C9        -53.9385  -27.7289    8.5825 C.ar      14 UNK        -0.0844 
     10 C10       -52.9658  -27.3478    9.5151 C.ar      14 UNK        -0.0881 
     11 C11       -52.1690  -28.3108   10.1389 C.ar      14 UNK        -0.0643 
     12 C12       -52.3529  -29.6602    9.8335 C.ar      14 UNK        -0.0930 
     13 C13       -53.3230  -30.0551    8.9094 C.ar      14 UNK        -0.0827 
     14 C14       -54.1119  -29.0848    8.2851 C.ar      14 UNK        -0.1249 
     15 C15       -53.4897  -31.5282    8.5617 C.3       14 UNK         0.0141 
     16 S16       -54.9182  -32.2908    9.3938 S.3       14 UNK        -0.2313 
     17 C17       -54.4380  -32.2185   11.1558 C.3       14 UNK        -0.0915 
     18 CA        -55.4672  -31.4370   12.0161 C.3       13 UNK         0.0968 
     19 C         -55.1257  -31.4877   13.5354 C.2       13 UNK         0.5732 
     20 N         -55.1652  -30.3863   14.2772 N.am      13 UNK        -0.7310 
     21 O         -54.8323  -32.5582   14.0627 O.2       13 UNK        -0.5035 
     22 N         -55.6926  -30.0781   11.5004 N.am      13 UNK        -0.4233 
     23 C         -56.8639  -29.4356   11.5485 C.2       13 UNK         0.4989 
     24 O         -57.9011  -29.9284   11.9974 O.2       13 UNK        -0.4996 
     25 CA        -56.8591  -27.9900   11.0161 C.3       12 UNK         0.0216 
     26 CB        -58.2031  -27.2652   11.2412 C.3       12 UNK        -0.1964 
     27 N         -55.7544  -27.1740   11.5423 N.am      12 UNK        -0.4276 
     28 C         -55.4431  -26.9595   12.8289 C.2       12 UNK         0.5020 
     29 O         -56.0019  -27.5118   13.7802 O.2       12 UNK        -0.5489 
     30 CA        -54.3404  -25.9182   13.0822 C.3       11 UNK         0.0294 
     31 CB        -54.8638  -24.4985   12.8020 C.3       11 UNK        -0.2019 
     32 N         -53.8660  -25.9747   14.4654 N.am      11 UNK        -0.4493 
     33 C         -52.9104  -26.7992   14.9048 C.2       11 UNK         0.4932 
     34 O         -52.2661  -27.5572   14.1799 O.2       11 UNK        -0.5029 
     35 CA        -52.6229  -26.7729   16.4078 C.3       10 UNK         0.0280 
     36 CB        -52.8967  -28.1509   17.0425 C.3       10 UNK        -0.1976 
     37 N         -51.2333  -26.3695   16.6077 N.am      10 UNK        -0.4242 
     38 C         -50.7108  -25.9466   17.7665 C.2       10 UNK         0.5072 
     39 O         -51.3486  -25.8564   18.8166 O.2       10 UNK        -0.5224 
     40 CA        -49.2318  -25.5352   17.7529 C.3       9 UNK         0.0343 
     41 CB        -48.3154  -26.7470   17.5075 C.3       9 UNK        -0.2003 
     42 N         -48.9956  -24.5183   16.7298 N.am      9 UNK        -0.4272 
     43 C         -49.0068  -23.1950   16.9490 C.2       9 UNK         0.4988 
     44 O         -49.1413  -22.6861   18.0625 O.2       9 UNK        -0.5108 
     45 CA        -48.8365  -22.2709   15.7269 C.3       8 UNK         0.0248 
     46 CB        -47.3670  -21.8452   15.5770 C.3       8 UNK        -0.2001 
     47 N         -49.2945  -22.8815   14.4770 N.am      8 UNK        -0.4140 
     48 C         -50.5819  -23.1258   14.1851 C.2       8 UNK         0.5028 
     49 O         -51.5225  -22.7506   14.8852 O.2       8 UNK        -0.5428 
     50 CA        -50.8826  -23.9590   12.9247 C.3       7 UNK         0.0264 
     51 CB        -51.3541  -23.0624   11.7694 C.3       7 UNK        -0.1988 
     52 N         -49.7700  -24.7920   12.4629 N.am      7 UNK        -0.4454 
     53 C         -49.1746  -25.7633   13.1715 C.2       7 UNK         0.5027 
     54 O         -49.4962  -26.0652   14.3209 O.2       7 UNK        -0.5083 
     55 CA        -47.9840  -26.4835   12.5085 C.3       6 UNK         0.0844 
     56 C56       -48.4092  -27.8311   11.8749 C.3       14 UNK        -0.0967 
     57 S57       -49.4812  -27.6869   10.3969 S.3       14 UNK        -0.2604 
     58 C58       -51.1196  -27.9095   11.1593 C.3       14 UNK         0.0134 
     59 N         -47.2204  -25.6506   11.5732 N.am      6 UNK        -0.4116 
     60 C         -46.6119  -24.4885   11.8584 C.2       5 UNK         0.5034 
     61 O         -46.7314  -23.9050   12.9372 O.2       5 UNK        -0.5045 
     62 CA        -45.7483  -23.8649   10.7419 C.3       5 UNK         0.0224 
     63 CB        -44.5622  -23.0489   11.2983 C.3       5 UNK        -0.1978 
     64 N         -45.3013  -24.8376    9.7306 N.am      5 UNK        -0.4737 
     65 C         -44.4922  -25.8967    9.9098 C.2       4 UNK         0.5027 
     66 O         -43.9365  -26.1525   10.9779 O.2       4 UNK        -0.5211 
     67 CA        -44.3137  -26.8686    8.7246 C.3       4 UNK         0.0297 
     68 CB        -44.4278  -28.3336    9.1856 C.3       4 UNK        -0.1993 
     69 N         -45.3038  -26.6395    7.6694 N.am      4 UNK        -0.4486 
     70 C         -45.1050  -25.9167    6.5604 C.2       3 UNK         0.4961 
     71 O         -44.0264  -25.4131    6.2473 O.2       3 UNK        -0.5105 
     72 CA        -46.3389  -25.6853    5.6705 C.3       3 UNK         0.0299 
     73 CB        -46.4547  -26.7933    4.6123 C.3       3 UNK        -0.1972 
     74 N         -47.5952  -25.5923    6.4277 N.am      3 UNK        -0.4305 
     75 C         -47.8868  -24.6070    7.2950 C.2       2 UNK         0.5006 
     76 O         -47.0884  -23.7151    7.5839 O.2       2 UNK        -0.5106 
     77 CA        -49.2579  -24.6278    8.0043 C.3       2 UNK         0.0296 
     78 CB        -49.8321  -23.2109    8.2122 C.3       2 UNK        -0.2002 
     79 N         -50.2469  -25.5079    7.3760 N.am      2 UNK        -0.4032 
     80 C         -50.7698  -25.4130    6.1420 C.2       1 UNK         0.5000 
     81 O         -50.5380  -24.4898    5.3591 O.2       1 UNK        -0.5238 
     82 H82       -49.9370  -29.7308    8.1492 H         1 UNK         0.0889 
     83 H83       -49.4958  -30.5171    6.6323 H         1 UNK         0.0889 
     84 H84       -51.1925  -30.3587    7.0685 H         1 UNK         0.0889 
     85 H85       -52.2188  -28.2159    6.9199 H         1 UNK         0.3028 
     86 H86       -51.3746  -26.7847    4.6538 H         1 UNK         0.0864 
     87 H87       -53.7799  -27.0929    5.4089 H         1 UNK         0.0720 
     88 H88       -53.3444  -25.5348    4.7927 H         1 UNK         0.0720 
     89 H89       -55.4653  -26.2272    8.6613 H         1 UNK         0.0814 
     90 H90       -55.4848  -27.1382    7.1752 H         1 UNK         0.0814 
     91 H91       -52.8228  -26.3012    9.7484 H         1 UNK         0.1469 
     92 H92       -51.7288  -30.4028   10.3116 H         1 UNK         0.1381 
     93 H93       -54.8632  -29.3910    7.5694 H         1 UNK         0.1206 
     94 H94       -53.6190  -31.6310    7.4834 H         1 UNK         0.0813 
     95 H95       -52.5877  -32.0891    8.8114 H         1 UNK         0.0813 
     96 H96       -53.4432  -31.7869   11.2625 H         1 UNK         0.0638 
     97 H97       -54.3548  -33.2486   11.5067 H         1 UNK         0.0638 
     98 H98       -56.4072  -31.9851   11.9313 H         1 UNK         0.0568 
     99 H99       -55.4520  -29.4943   13.8910 H         1 UNK         0.3450 
    100 H100      -54.9454  -30.4563   15.2569 H         1 UNK         0.3450 
    101 H101      -54.8865  -29.6097   11.1129 H         1 UNK         0.2987 
    102 H102      -56.7062  -28.0700    9.9391 H         1 UNK         0.0766 
    103 H103      -58.1915  -26.2644   10.8096 H         1 UNK         0.0798 
    104 H104      -58.4364  -27.1697   12.3024 H         1 UNK         0.0798 
    105 H105      -59.0256  -27.8082   10.7737 H         1 UNK         0.0798 
    106 H106      -55.2073  -26.6935   10.8435 H         1 UNK         0.3198 
    107 H107      -53.5093  -26.1251   12.4059 H         1 UNK         0.0843 
    108 H108      -55.7483  -24.2701   13.3984 H         1 UNK         0.0831 
    109 H109      -55.1385  -24.3758   11.7537 H         1 UNK         0.0831 
    110 H110      -54.1099  -23.7438   13.0259 H         1 UNK         0.0831 
    111 H111      -54.3842  -25.4284   15.1384 H         1 UNK         0.3133 
    112 H112      -53.2716  -26.0324   16.8807 H         1 UNK         0.0566 
    113 H113      -52.7679  -28.1293   18.1245 H         1 UNK         0.0814 
    114 H114      -53.9204  -28.4719   16.8462 H         1 UNK         0.0814 
    115 H115      -52.2315  -28.9166   16.6411 H         1 UNK         0.0814 
    116 H116      -50.6482  -26.3943   15.7729 H         1 UNK         0.3091 
    117 H117      -48.9861  -25.1327   18.7382 H         1 UNK         0.0702 
    118 H118      -47.2646  -26.4608   17.5543 H         1 UNK         0.0785 
    119 H119      -48.4911  -27.2086   16.5355 H         1 UNK         0.0785 
    120 H120      -48.4760  -27.5145   18.2658 H         1 UNK         0.0785 
    121 H121      -48.9408  -24.8559   15.7749 H         1 UNK         0.2998 
    122 H122      -49.4340  -21.3742   15.9050 H         1 UNK         0.0697 
    123 H123      -46.7131  -22.7025   15.4121 H         1 UNK         0.0825 
    124 H124      -47.0152  -21.3356   16.4751 H         1 UNK         0.0825 
    125 H125      -47.2346  -21.1577   14.7414 H         1 UNK         0.0825 
    126 H126      -48.5742  -23.2222   13.8495 H         1 UNK         0.3029 
    127 H127      -51.6980  -24.6326   13.1872 H         1 UNK         0.0897 
    128 H128      -51.7221  -23.6576   10.9336 H         1 UNK         0.0792 
    129 H129      -50.5529  -22.4194   11.4031 H         1 UNK         0.0792 
    130 H130      -52.1725  -22.4134   12.0845 H         1 UNK         0.0792 
    131 H131      -49.4254  -24.6115   11.5325 H         1 UNK         0.3086 
    132 H132      -47.2943  -26.7195   13.3218 H         1 UNK         0.0583 
    133 H133      -47.5158  -28.3814   11.5757 H         1 UNK         0.1020 
    134 H134      -48.8869  -28.4664   12.6235 H         1 UNK         0.1020 
    135 H135      -51.0709  -28.6718   11.9382 H         1 UNK         0.0694 
    136 H136      -51.4132  -26.9850   11.6550 H         1 UNK         0.0694 
    137 H137      -47.0686  -26.0468   10.6590 H         1 UNK         0.2989 
    138 H138      -46.4044  -23.1665   10.2198 H         1 UNK         0.1055 
    139 H139      -44.9121  -22.2269   11.9242 H         1 UNK         0.0806 
    140 H140      -43.9697  -22.6116   10.4947 H         1 UNK         0.0806 
    141 H141      -43.8991  -23.6600   11.9111 H         1 UNK         0.0806 
    142 H142      -45.6846  -24.6848    8.8034 H         1 UNK         0.3061 
    143 H143      -43.3065  -26.7142    8.3319 H         1 UNK         0.0734 
    144 H144      -44.2976  -29.0229    8.3511 H         1 UNK         0.0832 
    145 H145      -43.6600  -28.5760    9.9217 H         1 UNK         0.0832 
    146 H146      -45.3956  -28.5405    9.6442 H         1 UNK         0.0832 
    147 H147      -46.2263  -27.0214    7.8224 H         1 UNK         0.3156 
    148 H148      -46.1963  -24.7353    5.1511 H         1 UNK         0.0589 
    149 H149      -46.5999  -27.7738    5.0676 H         1 UNK         0.0808 
    150 H150      -47.2915  -26.6118    3.9373 H         1 UNK         0.0808 
    151 H151      -45.5518  -26.8471    4.0025 H         1 UNK         0.0808 
    152 H152      -48.2832  -26.3183    6.2495 H         1 UNK         0.3098 
    153 H153      -49.0723  -25.0492    8.9921 H         1 UNK         0.0720 
    154 H154      -50.8132  -23.2442    8.6850 H         1 UNK         0.0791 
    155 H155      -49.9369  -22.6758    7.2680 H         1 UNK         0.0791 
    156 H156      -49.1825  -22.6129    8.8524 H         1 UNK         0.0791 
    157 H157      -50.5081  -26.3229    7.9143 H         1 UNK         0.3028 
@<TRIPOS>BOND
     1    1    2 1    
     2    1   82 1    
     3    1   83 1    
     4    1   84 1    
     5    2    3 2    
     6    2    4 am   BACKBONE|DICT|INTERRES
     7    4    5 1    
     8    4   85 1    
     9    5    6 1    
    10    5   80 1    
    11    5   86 1    
    12    6    7 1    
    13    6   87 1    
    14    6   88 1    
    15    7    8 1    
    16    8    9 1    
    17    8   89 1    
    18    8   90 1    
    19    9   10 ar   
    20    9   14 ar   
    21   10   11 ar   
    22   10   91 1    
    23   11   12 ar   
    24   11   58 1    
    25   12   13 ar   
    26   12   92 1    
    27   13   14 ar   
    28   13   15 1    
    29   14   93 1    
    30   15   16 1    
    31   15   94 1    
    32   15   95 1    
    33   16   17 1    
    34   17   18 1    
    35   17   96 1    
    36   17   97 1    
    37   18   19 1    
    38   18   22 1    
    39   18   98 1    
    40   19   20 am   BACKBONE|DICT|INTERRES
    41   19   21 2    
    42   20   99 1    
    43   20  100 1    
    44   22   23 am   BACKBONE|DICT|INTERRES
    45   22  101 1    
    46   23   24 2    
    47   23   25 1    
    48   25   26 1    
    49   25   27 1    
    50   25  102 1    
    51   26  103 1    
    52   26  104 1    
    53   26  105 1    
    54   27   28 am   BACKBONE|DICT|INTERRES
    55   27  106 1    
    56   28   29 2    
    57   28   30 1    
    58   30   31 1    
    59   30   32 1    
    60   30  107 1    
    61   31  108 1    
    62   31  109 1    
    63   31  110 1    
    64   32   33 am   BACKBONE|DICT|INTERRES
    65   32  111 1    
    66   33   34 2    
    67   33   35 1    
    68   35   36 1    
    69   35   37 1    
    70   35  112 1    
    71   36  113 1    
    72   36  114 1    
    73   36  115 1    
    74   37   38 am   BACKBONE|DICT|INTERRES
    75   37  116 1    
    76   38   39 2    
    77   38   40 1    
    78   40   41 1    
    79   40   42 1    
    80   40  117 1    
    81   41  118 1    
    82   41  119 1    
    83   41  120 1    
    84   42   43 am   BACKBONE|DICT|INTERRES
    85   42  121 1    
    86   43   44 2    
    87   43   45 1    
    88   45   46 1    
    89   45   47 1    
    90   45  122 1    
    91   46  123 1    
    92   46  124 1    
    93   46  125 1    
    94   47   48 am   BACKBONE|DICT|INTERRES
    95   47  126 1    
    96   48   49 2    
    97   48   50 1    
    98   50   51 1    
    99   50   52 1    
   100   50  127 1    
   101   51  128 1    
   102   51  129 1    
   103   51  130 1    
   104   52   53 am   BACKBONE|DICT|INTERRES
   105   52  131 1    
   106   53   54 2    
   107   53   55 1    
   108   55   56 1    
   109   55   59 1    
   110   55  132 1    
   111   56   57 1    
   112   56  133 1    
   113   56  134 1    
   114   57   58 1    
   115   58  135 1    
   116   58  136 1    
   117   59   60 am   BACKBONE|DICT|INTERRES
   118   59  137 1    
   119   60   61 2    
   120   60   62 1    
   121   62   63 1    
   122   62   64 1    
   123   62  138 1    
   124   63  139 1    
   125   63  140 1    
   126   63  141 1    
   127   64   65 am   BACKBONE|DICT|INTERRES
   128   64  142 1    
   129   65   66 2    
   130   65   67 1    
   131   67   68 1    
   132   67   69 1    
   133   67  143 1    
   134   68  144 1    
   135   68  145 1    
   136   68  146 1    
   137   69   70 am   BACKBONE|DICT|INTERRES
   138   69  147 1    
   139   70   71 2    
   140   70   72 1    
   141   72   73 1    
   142   72   74 1    
   143   72  148 1    
   144   73  149 1    
   145   73  150 1    
   146   73  151 1    
   147   74   75 am   BACKBONE|DICT|INTERRES
   148   74  152 1    
   149   75   76 2    
   150   75   77 1    
   151   77   78 1    
   152   77   79 1    
   153   77  153 1    
   154   78  154 1    
   155   78  155 1    
   156   78  156 1    
   157   79   80 am   BACKBONE|DICT|INTERRES
   158   79  157 1    
   159   80   81 2    
@<TRIPOS>SUBSTRUCTURE
     1 UNK         1 GROUP             0       ****    0 ROOT    
