@<TRIPOS>MOLECULE
3R207
157   159    1
SMALL
USER_CHARGES


@<TRIPOS>ATOM
      1 CA        -55.9496  -27.4389    6.0222 C.3       0 UNK        -0.1975 
      2 C         -54.4373  -27.3537    5.8754 C.2       0 UNK         0.4852 
      3 O         -53.9500  -27.0195    4.7945 O.2       0 UNK        -0.5216 
      4 N         -53.7000  -27.6571    6.9527 N.am      1 UNK        -0.4461 
      5 CA        -52.2374  -27.5830    7.0516 C.3       1 UNK         0.0864 
      6 C6        -51.5260  -28.5995    6.1137 C.3       14 UNK        -0.0898 
      7 S7        -49.8546  -29.0659    6.6883 S.3       14 UNK        -0.2598 
      8 C8        -50.1121  -30.7445    7.3499 C.3       14 UNK         0.0286 
      9 C9        -50.0352  -30.7758    8.8693 C.ar      14 UNK        -0.0844 
     10 C10       -48.8648  -31.2066    9.5010 C.ar      14 UNK        -0.0881 
     11 C11       -48.7960  -31.2931   10.8947 C.ar      14 UNK        -0.0643 
     12 C12       -49.9084  -30.9328   11.6607 C.ar      14 UNK        -0.0930 
     13 C13       -51.0852  -30.4973   11.0416 C.ar      14 UNK        -0.0827 
     14 C14       -51.1411  -30.4175    9.6455 C.ar      14 UNK        -0.1249 
     15 C15       -52.2938  -30.1080   11.8801 C.3       14 UNK         0.0141 
     16 S16       -53.7131  -31.1982   11.5581 S.3       14 UNK        -0.2313 
     17 C17       -54.9893  -30.4764   12.6417 C.3       14 UNK        -0.0915 
     18 CA        -55.8781  -29.4417   11.8971 C.3       13 UNK         0.0968 
     19 C         -57.2516  -29.2249   12.5998 C.2       13 UNK         0.5732 
     20 N         -57.7126  -27.9991   12.8280 N.am      13 UNK        -0.7310 
     21 O         -57.9375  -30.1932   12.9198 O.2       13 UNK        -0.5035 
     22 N         -55.1569  -28.1798   11.6928 N.am      13 UNK        -0.4233 
     23 C         -54.8910  -27.6052   10.5142 C.2       13 UNK         0.4989 
     24 O         -55.0905  -28.1475    9.4262 O.2       13 UNK        -0.4996 
     25 CA        -54.2716  -26.1921   10.5328 C.3       12 UNK         0.0216 
     26 CB        -54.9607  -25.2512    9.5202 C.3       12 UNK        -0.1964 
     27 N         -54.2036  -25.5640   11.8606 N.am      12 UNK        -0.4276 
     28 C         -55.2396  -25.2013   12.6320 C.2       12 UNK         0.5020 
     29 O         -56.4195  -25.3932   12.3302 O.2       12 UNK        -0.5489 
     30 CA        -54.8854  -24.5812   13.9935 C.3       11 UNK         0.0294 
     31 CB        -56.1244  -24.3430   14.8826 C.3       11 UNK        -0.2019 
     32 N         -53.8786  -25.3561   14.7264 N.am      11 UNK        -0.4493 
     33 C         -53.9354  -26.6447   15.1006 C.2       11 UNK         0.4932 
     34 O         -54.8382  -27.4141   14.7702 O.2       11 UNK        -0.5029 
     35 CA        -52.7847  -27.1790   15.9805 C.3       10 UNK         0.0280 
     36 CB        -52.0356  -28.3085   15.2568 C.3       10 UNK        -0.1976 
     37 N         -51.8196  -26.1459   16.3678 N.am      10 UNK        -0.4242 
     38 C         -52.0118  -25.1762   17.2725 C.2       10 UNK         0.5072 
     39 O         -52.9923  -25.1240   18.0149 O.2       10 UNK        -0.5224 
     40 CA        -50.9854  -24.0232   17.3031 C.3       9 UNK         0.0343 
     41 CB        -49.8656  -24.2920   18.3282 C.3       9 UNK        -0.2003 
     42 N         -50.4520  -23.6592   15.9753 N.am      9 UNK        -0.4272 
     43 C         -49.6506  -24.3848   15.1825 C.2       9 UNK         0.4988 
     44 O         -49.1553  -25.4626   15.5167 O.2       9 UNK        -0.5108 
     45 CA        -49.4050  -23.8455   13.7651 C.3       8 UNK         0.0248 
     46 CB        -48.1467  -22.9643   13.7325 C.3       8 UNK        -0.2001 
     47 N         -49.2502  -24.9612   12.8287 N.am      8 UNK        -0.4140 
     48 C         -50.2624  -25.7347   12.4036 C.2       8 UNK         0.5028 
     49 O         -51.4502  -25.4846   12.6248 O.2       8 UNK        -0.5428 
     50 CA        -49.9114  -27.0075   11.6084 C.3       7 UNK         0.0264 
     51 CB        -50.0992  -26.7865   10.1048 C.3       7 UNK        -0.1988 
     52 N         -48.5517  -27.4927   11.8348 N.am      7 UNK        -0.4454 
     53 C         -48.1178  -28.0644   12.9648 C.2       7 UNK         0.5027 
     54 O         -48.8631  -28.3796   13.8926 O.2       7 UNK        -0.5083 
     55 CA        -46.5975  -28.3123   13.1067 C.3       6 UNK         0.0844 
     56 C56       -46.2686  -29.8271   13.1565 C.3       14 UNK        -0.0967 
     57 S57       -46.1667  -30.6300   11.5145 S.3       14 UNK        -0.2604 
     58 C58       -47.5354  -31.8306   11.5568 C.3       14 UNK         0.0134 
     59 N         -45.7377  -27.6029   12.1440 N.am      6 UNK        -0.4116 
     60 C         -45.6676  -26.2811   11.9369 C.2       5 UNK         0.5034 
     61 O         -46.3883  -25.4653   12.5134 O.2       5 UNK        -0.5045 
     62 CA        -44.6595  -25.7798   10.8891 C.3       5 UNK         0.0224 
     63 CB        -44.2064  -26.8563    9.8785 C.3       5 UNK        -0.1978 
     64 N         -45.2524  -24.6519   10.1739 N.am      5 UNK        -0.4737 
     65 C         -44.5976  -23.5929    9.6825 C.2       4 UNK         0.5027 
     66 O         -43.3782  -23.4466    9.7747 O.2       4 UNK        -0.5211 
     67 CA        -45.4325  -22.5208    8.9534 C.3       4 UNK         0.0297 
     68 CB        -44.9533  -22.3530    7.5009 C.3       4 UNK        -0.1993 
     69 N         -46.8549  -22.8692    8.9356 N.am      4 UNK        -0.4486 
     70 C         -47.8311  -22.2658    9.6188 C.2       3 UNK         0.4961 
     71 O         -47.6675  -21.2366   10.2753 O.2       3 UNK        -0.5105 
     72 CA        -49.2160  -22.9514    9.5795 C.3       3 UNK         0.0299 
     73 CB        -50.3124  -22.1279   10.2803 C.3       3 UNK        -0.1972 
     74 N         -49.6849  -23.3209    8.2364 N.am      3 UNK        -0.4305 
     75 C         -49.1940  -24.2975    7.4616 C.2       2 UNK         0.5006 
     76 O         -48.2011  -24.9694    7.7513 O.2       2 UNK        -0.5106 
     77 CA        -49.9427  -24.5944    6.1557 C.3       2 UNK         0.0296 
     78 CB        -48.9832  -24.6064    4.9535 C.3       2 UNK        -0.2002 
     79 N         -50.6035  -25.8944    6.2614 N.am      2 UNK        -0.4032 
     80 C         -51.7392  -26.1194    6.9359 C.2       1 UNK         0.5000 
     81 O         -52.3795  -25.2203    7.4858 O.2       1 UNK        -0.5238 
     82 H82       -56.2449  -27.8091    7.0037 H         1 UNK         0.0889 
     83 H83       -56.3628  -28.1103    5.2701 H         1 UNK         0.0889 
     84 H84       -56.3950  -26.4542    5.8835 H         1 UNK         0.0889 
     85 H85       -54.1819  -27.8967    7.8173 H         1 UNK         0.3028 
     86 H86       -52.0244  -27.8790    8.0786 H         1 UNK         0.0864 
     87 H87       -52.1310  -29.5026    6.0282 H         1 UNK         0.0720 
     88 H88       -51.4582  -28.2162    5.0939 H         1 UNK         0.0720 
     89 H89       -49.3486  -31.3979    6.9249 H         1 UNK         0.0814 
     90 H90       -51.0650  -31.1612    7.0230 H         1 UNK         0.0814 
     91 H91       -48.0069  -31.4934    8.9080 H         1 UNK         0.1469 
     92 H92       -49.8590  -30.9980   12.7391 H         1 UNK         0.1381 
     93 H93       -52.0530  -30.0918    9.1641 H         1 UNK         0.1206 
     94 H94       -52.5638  -29.0770   11.6566 H         1 UNK         0.0813 
     95 H95       -52.0518  -30.1470   12.9422 H         1 UNK         0.0813 
     96 H96       -54.5287  -30.0334   13.5262 H         1 UNK         0.0638 
     97 H97       -55.5853  -31.3158   13.0037 H         1 UNK         0.0638 
     98 H98       -56.1436  -29.8679   10.9281 H         1 UNK         0.0568 
     99 H99       -58.6084  -27.8943   13.2758 H         1 UNK         0.3450 
    100 H100      -57.1857  -27.1710   12.5673 H         1 UNK         0.3450 
    101 H101      -54.9793  -27.6565   12.5412 H         1 UNK         0.2987 
    102 H102      -53.2404  -26.3194   10.2095 H         1 UNK         0.0766 
    103 H103      -54.4843  -24.2710    9.5062 H         1 UNK         0.0798 
    104 H104      -56.0180  -25.1098    9.7444 H         1 UNK         0.0798 
    105 H105      -54.9010  -25.6452    8.5066 H         1 UNK         0.0798 
    106 H106      -53.2596  -25.4277   12.2265 H         1 UNK         0.3198 
    107 H107      -54.4385  -23.6092   13.7790 H         1 UNK         0.0843 
    108 H108      -56.6418  -25.2755   15.1119 H         1 UNK         0.0831 
    109 H109      -56.8413  -23.6871   14.3872 H         1 UNK         0.0831 
    110 H110      -55.8513  -23.8707   15.8262 H         1 UNK         0.0831 
    111 H111      -53.0495  -24.8463   14.9926 H         1 UNK         0.3133 
    112 H112      -53.2308  -27.5886   16.8888 H         1 UNK         0.0566 
    113 H113      -51.6173  -27.9692   14.3085 H         1 UNK         0.0814 
    114 H114      -51.2162  -28.6976   15.8615 H         1 UNK         0.0814 
    115 H115      -52.7038  -29.1434   15.0443 H         1 UNK         0.0814 
    116 H116      -50.9416  -26.1256   15.8556 H         1 UNK         0.3091 
    117 H117      -51.5280  -23.1405   17.6459 H         1 UNK         0.0702 
    118 H118      -49.1593  -23.4630   18.3706 H         1 UNK         0.0785 
    119 H119      -49.3059  -25.1993   18.1001 H         1 UNK         0.0785 
    120 H120      -50.2810  -24.4158   19.3292 H         1 UNK         0.0785 
    121 H121      -50.8032  -22.7853   15.6068 H         1 UNK         0.2998 
    122 H122      -50.2633  -23.2470   13.4528 H         1 UNK         0.0697 
    123 H123      -47.2708  -23.4978   14.1040 H         1 UNK         0.0825 
    124 H124      -48.2741  -22.0776   14.3544 H         1 UNK         0.0825 
    125 H125      -47.9239  -22.6224   12.7223 H         1 UNK         0.0825 
    126 H126      -48.2950  -25.2659   12.6631 H         1 UNK         0.3029 
    127 H127      -50.6079  -27.7794   11.9343 H         1 UNK         0.0897 
    128 H128      -50.1043  -27.7340    9.5674 H         1 UNK         0.0792 
    129 H129      -49.2923  -26.1847    9.6958 H         1 UNK         0.0792 
    130 H130      -51.0320  -26.2704    9.8850 H         1 UNK         0.0792 
    131 H131      -47.8753  -27.3103   11.1092 H         1 UNK         0.3086 
    132 H132      -46.3419  -27.9006   14.0854 H         1 UNK         0.0583 
    133 H133      -45.2956  -29.9583   13.6324 H         1 UNK         0.1020 
    134 H134      -46.9675  -30.3603   13.8039 H         1 UNK         0.1020 
    135 H135      -47.2177  -32.7285   11.0247 H         1 UNK         0.0694 
    136 H136      -47.7345  -32.1502   12.5805 H         1 UNK         0.0694 
    137 H137      -45.1416  -28.2023   11.5913 H         1 UNK         0.2989 
    138 H138      -43.7867  -25.4313   11.4461 H         1 UNK         0.1055 
    139 H139      -43.6672  -27.6677   10.3688 H         1 UNK         0.0806 
    140 H140      -43.5267  -26.4357    9.1370 H         1 UNK         0.0806 
    141 H141      -45.0511  -27.2891    9.3402 H         1 UNK         0.0806 
    142 H142      -46.2611  -24.6511   10.1269 H         1 UNK         0.3061 
    143 H143      -45.2780  -21.5774    9.4810 H         1 UNK         0.0734 
    144 H144      -43.9026  -22.0618    7.4649 H         1 UNK         0.0832 
    145 H145      -45.5202  -21.5783    6.9844 H         1 UNK         0.0832 
    146 H146      -45.0557  -23.2787    6.9331 H         1 UNK         0.0832 
    147 H147      -47.1135  -23.7046    8.4103 H         1 UNK         0.3156 
    148 H148      -49.1024  -23.8734   10.1503 H         1 UNK         0.0589 
    149 H149      -50.5061  -21.1895    9.7596 H         1 UNK         0.0808 
    150 H150      -51.2490  -22.6836   10.3380 H         1 UNK         0.0808 
    151 H151      -50.0270  -21.8803   11.3033 H         1 UNK         0.0808 
    152 H152      -50.4999  -22.8237    7.9057 H         1 UNK         0.3098 
    153 H153      -50.6954  -23.8221    5.9829 H         1 UNK         0.0720 
    154 H154      -48.4699  -23.6489    4.8553 H         1 UNK         0.0791 
    155 H155      -49.5196  -24.7836    4.0211 H         1 UNK         0.0791 
    156 H156      -48.2178  -25.3778    5.0507 H         1 UNK         0.0791 
    157 H157      -50.0954  -26.6934    5.9065 H         1 UNK         0.3028 
@<TRIPOS>BOND
     1    1    2 1    
     2    1   82 1    
     3    1   83 1    
     4    1   84 1    
     5    2    3 2    
     6    2    4 am   BACKBONE|DICT|INTERRES
     7    4    5 1    
     8    4   85 1    
     9    5    6 1    
    10    5   80 1    
    11    5   86 1    
    12    6    7 1    
    13    6   87 1    
    14    6   88 1    
    15    7    8 1    
    16    8    9 1    
    17    8   89 1    
    18    8   90 1    
    19    9   10 ar   
    20    9   14 ar   
    21   10   11 ar   
    22   10   91 1    
    23   11   12 ar   
    24   11   58 1    
    25   12   13 ar   
    26   12   92 1    
    27   13   14 ar   
    28   13   15 1    
    29   14   93 1    
    30   15   16 1    
    31   15   94 1    
    32   15   95 1    
    33   16   17 1    
    34   17   18 1    
    35   17   96 1    
    36   17   97 1    
    37   18   19 1    
    38   18   22 1    
    39   18   98 1    
    40   19   20 am   BACKBONE|DICT|INTERRES
    41   19   21 2    
    42   20   99 1    
    43   20  100 1    
    44   22   23 am   BACKBONE|DICT|INTERRES
    45   22  101 1    
    46   23   24 2    
    47   23   25 1    
    48   25   26 1    
    49   25   27 1    
    50   25  102 1    
    51   26  103 1    
    52   26  104 1    
    53   26  105 1    
    54   27   28 am   BACKBONE|DICT|INTERRES
    55   27  106 1    
    56   28   29 2    
    57   28   30 1    
    58   30   31 1    
    59   30   32 1    
    60   30  107 1    
    61   31  108 1    
    62   31  109 1    
    63   31  110 1    
    64   32   33 am   BACKBONE|DICT|INTERRES
    65   32  111 1    
    66   33   34 2    
    67   33   35 1    
    68   35   36 1    
    69   35   37 1    
    70   35  112 1    
    71   36  113 1    
    72   36  114 1    
    73   36  115 1    
    74   37   38 am   BACKBONE|DICT|INTERRES
    75   37  116 1    
    76   38   39 2    
    77   38   40 1    
    78   40   41 1    
    79   40   42 1    
    80   40  117 1    
    81   41  118 1    
    82   41  119 1    
    83   41  120 1    
    84   42   43 am   BACKBONE|DICT|INTERRES
    85   42  121 1    
    86   43   44 2    
    87   43   45 1    
    88   45   46 1    
    89   45   47 1    
    90   45  122 1    
    91   46  123 1    
    92   46  124 1    
    93   46  125 1    
    94   47   48 am   BACKBONE|DICT|INTERRES
    95   47  126 1    
    96   48   49 2    
    97   48   50 1    
    98   50   51 1    
    99   50   52 1    
   100   50  127 1    
   101   51  128 1    
   102   51  129 1    
   103   51  130 1    
   104   52   53 am   BACKBONE|DICT|INTERRES
   105   52  131 1    
   106   53   54 2    
   107   53   55 1    
   108   55   56 1    
   109   55   59 1    
   110   55  132 1    
   111   56   57 1    
   112   56  133 1    
   113   56  134 1    
   114   57   58 1    
   115   58  135 1    
   116   58  136 1    
   117   59   60 am   BACKBONE|DICT|INTERRES
   118   59  137 1    
   119   60   61 2    
   120   60   62 1    
   121   62   63 1    
   122   62   64 1    
   123   62  138 1    
   124   63  139 1    
   125   63  140 1    
   126   63  141 1    
   127   64   65 am   BACKBONE|DICT|INTERRES
   128   64  142 1    
   129   65   66 2    
   130   65   67 1    
   131   67   68 1    
   132   67   69 1    
   133   67  143 1    
   134   68  144 1    
   135   68  145 1    
   136   68  146 1    
   137   69   70 am   BACKBONE|DICT|INTERRES
   138   69  147 1    
   139   70   71 2    
   140   70   72 1    
   141   72   73 1    
   142   72   74 1    
   143   72  148 1    
   144   73  149 1    
   145   73  150 1    
   146   73  151 1    
   147   74   75 am   BACKBONE|DICT|INTERRES
   148   74  152 1    
   149   75   76 2    
   150   75   77 1    
   151   77   78 1    
   152   77   79 1    
   153   77  153 1    
   154   78  154 1    
   155   78  155 1    
   156   78  156 1    
   157   79   80 am   BACKBONE|DICT|INTERRES
   158   79  157 1    
   159   80   81 2    
@<TRIPOS>SUBSTRUCTURE
     1 UNK         1 GROUP             0       ****    0 ROOT    
