@<TRIPOS>MOLECULE
3R207
157   159    1
SMALL
USER_CHARGES


@<TRIPOS>ATOM
      1 CA        -47.2689  -29.6904    2.5403 C.3       0 UNK        -0.1975 
      2 C         -47.7370  -29.0544    3.8406 C.2       0 UNK         0.4852 
      3 O         -46.9410  -28.9154    4.7705 O.2       0 UNK        -0.5216 
      4 N         -49.0158  -28.6540    3.9021 N.am      1 UNK        -0.4461 
      5 CA        -49.7324  -28.0467    5.0382 C.3       1 UNK         0.0864 
      6 C6        -49.7613  -28.9258    6.3168 C.3       14 UNK        -0.0898 
      7 S7        -50.5348  -30.5596    6.0619 S.3       14 UNK        -0.2598 
      8 C8        -52.3087  -30.1531    5.9371 C.3       14 UNK         0.0286 
      9 C9        -52.8215  -29.3907    7.1503 C.ar      14 UNK        -0.0844 
     10 C10       -53.0415  -28.0124    7.0732 C.ar      14 UNK        -0.0881 
     11 C11       -53.5059  -27.3017    8.1833 C.ar      14 UNK        -0.0643 
     12 C12       -53.7587  -27.9857    9.3772 C.ar      14 UNK        -0.0930 
     13 C13       -53.5422  -29.3648    9.4667 C.ar      14 UNK        -0.0827 
     14 C14       -53.0770  -30.0624    8.3483 C.ar      14 UNK        -0.1249 
     15 C15       -53.7897  -30.0994   10.7748 C.3       14 UNK         0.0141 
     16 S16       -55.5537  -30.1032   11.2190 S.3       14 UNK        -0.2313 
     17 C17       -55.6472  -31.4879   12.4091 C.3       14 UNK        -0.0915 
     18 CA        -55.1823  -31.1710   13.8593 C.3       13 UNK         0.0968 
     19 C         -53.6409  -31.2989   14.0253 C.2       13 UNK         0.5732 
     20 N         -53.1218  -32.5192   14.0434 N.am      13 UNK        -0.7310 
     21 O         -52.9106  -30.3140   14.1037 O.2       13 UNK        -0.5035 
     22 N         -55.7251  -29.8951   14.3441 N.am      13 UNK        -0.4233 
     23 C         -55.6784  -29.4661   15.6101 C.2       13 UNK         0.4989 
     24 O         -55.2930  -30.1595   16.5539 O.2       13 UNK        -0.4996 
     25 CA        -56.1333  -28.0153   15.8491 C.3       12 UNK         0.0216 
     26 CB        -56.0213  -27.5883   17.3249 C.3       12 UNK        -0.1964 
     27 N         -55.3644  -27.0812   15.0218 N.am      12 UNK        -0.4276 
     28 C         -55.6717  -26.7402   13.7610 C.2       12 UNK         0.5020 
     29 O         -56.6246  -27.2350   13.1566 O.2       12 UNK        -0.5489 
     30 CA        -54.7769  -25.7101   13.0348 C.3       11 UNK         0.0294 
     31 CB        -55.5951  -24.7646   12.1314 C.3       11 UNK        -0.2019 
     32 N         -53.8878  -24.9461   13.9169 N.am      11 UNK        -0.4493 
     33 C         -54.2260  -24.1334   14.9306 C.2       11 UNK         0.4932 
     34 O         -55.3861  -23.8168   15.1973 O.2       11 UNK        -0.5029 
     35 CA        -53.0712  -23.6241   15.8213 C.3       10 UNK         0.0280 
     36 CB        -53.5364  -23.2901   17.2542 C.3       10 UNK        -0.1976 
     37 N         -51.9097  -24.5260   15.8612 N.am      10 UNK        -0.4242 
     38 C         -51.8963  -25.8253   16.2078 C.2       10 UNK         0.5072 
     39 O         -52.9001  -26.4304   16.5862 O.2       10 UNK        -0.5224 
     40 CA        -50.5721  -26.6008   16.0636 C.3       9 UNK         0.0343 
     41 CB        -50.7978  -27.9334   15.3286 C.3       9 UNK        -0.2003 
     42 N         -49.5646  -25.8346   15.3285 N.am      9 UNK        -0.4272 
     43 C         -48.5103  -25.2131   15.8747 C.2       9 UNK         0.4988 
     44 O         -48.2187  -25.2778   17.0692 O.2       9 UNK        -0.5108 
     45 CA        -47.6416  -24.3468   14.9397 C.3       8 UNK         0.0248 
     46 CB        -46.4564  -25.1658   14.4101 C.3       8 UNK        -0.2001 
     47 N         -48.3704  -23.7723   13.8042 N.am      8 UNK        -0.4140 
     48 C         -49.4424  -22.9737   13.8963 C.2       8 UNK         0.5028 
     49 O         -49.9073  -22.5704   14.9621 O.2       8 UNK        -0.5428 
     50 CA        -50.1715  -22.6351   12.5880 C.3       7 UNK         0.0264 
     51 CB        -49.6024  -21.3535   11.9606 C.3       7 UNK        -0.1988 
     52 N         -50.1420  -23.7273   11.6093 N.am      7 UNK        -0.4454 
     53 C         -50.7169  -24.9269   11.7817 C.2       7 UNK         0.5027 
     54 O         -51.2729  -25.2705   12.8269 O.2       7 UNK        -0.5083 
     55 CA        -50.6719  -25.8973   10.5826 C.3       6 UNK         0.0844 
     56 C56       -51.2188  -25.2684    9.2730 C.3       14 UNK        -0.0967 
     57 S57       -52.9870  -24.8254    9.4029 S.3       14 UNK        -0.2604 
     58 C58       -53.7512  -25.8013    8.0672 C.3       14 UNK         0.0134 
     59 N         -49.3333  -26.4548   10.3895 N.am      6 UNK        -0.4116 
     60 C         -48.7173  -27.3099   11.2192 C.2       5 UNK         0.5034 
     61 O         -49.1769  -27.6790   12.2984 O.2       5 UNK        -0.5045 
     62 CA        -47.3571  -27.8557   10.7626 C.3       5 UNK         0.0224 
     63 CB        -47.5284  -28.8323    9.5873 C.3       5 UNK        -0.1978 
     64 N         -46.4754  -26.7627   10.3581 N.am      5 UNK        -0.4737 
     65 C         -45.3886  -26.3638   11.0313 C.2       4 UNK         0.5027 
     66 O         -44.9347  -26.9571   12.0096 O.2       4 UNK        -0.5211 
     67 CA        -44.6767  -25.0853   10.5434 C.3       4 UNK         0.0297 
     68 CB        -43.3858  -25.4469    9.7908 C.3       4 UNK        -0.1993 
     69 N         -45.5003  -24.2252    9.6880 N.am      4 UNK        -0.4486 
     70 C         -46.6283  -23.6069   10.0641 C.2       3 UNK         0.4961 
     71 O         -47.0859  -23.6480   11.2054 O.2       3 UNK        -0.5105 
     72 CA        -47.4194  -22.8744    8.9637 C.3       3 UNK         0.0299 
     73 CB        -47.0054  -21.3958    8.9036 C.3       3 UNK        -0.1972 
     74 N         -47.2933  -23.4693    7.6259 N.am      3 UNK        -0.4305 
     75 C         -47.5798  -24.7390    7.3032 C.2       2 UNK         0.5006 
     76 O         -47.9713  -25.5791    8.1183 O.2       2 UNK        -0.5106 
     77 CA        -47.3116  -25.1403    5.8431 C.3       2 UNK         0.0296 
     78 CB        -45.7995  -25.2870    5.6006 C.3       2 UNK        -0.2002 
     79 N         -47.9588  -26.4008    5.4811 N.am      2 UNK        -0.4032 
     80 C         -49.2755  -26.6102    5.3719 C.2       1 UNK         0.5000 
     81 O         -50.1224  -25.7248    5.5068 O.2       1 UNK        -0.5238 
     82 H82       -48.0684  -29.7479    1.8019 H         1 UNK         0.0889 
     83 H83       -46.9077  -30.7011    2.7279 H         1 UNK         0.0889 
     84 H84       -46.4520  -29.1102    2.1120 H         1 UNK         0.0889 
     85 H85       -49.5880  -28.7822    3.0789 H         1 UNK         0.3028 
     86 H86       -50.7619  -27.9437    4.6937 H         1 UNK         0.0864 
     87 H87       -48.7473  -29.1021    6.6758 H         1 UNK         0.0720 
     88 H88       -50.2713  -28.4162    7.1358 H         1 UNK         0.0720 
     89 H89       -52.8728  -31.0807    5.8299 H         1 UNK         0.0814 
     90 H90       -52.4882  -29.5885    5.0213 H         1 UNK         0.0814 
     91 H91       -52.8468  -27.4897    6.1467 H         1 UNK         0.1469 
     92 H92       -54.1257  -27.4446   10.2379 H         1 UNK         0.1381 
     93 H93       -52.9026  -31.1281    8.4087 H         1 UNK         0.1206 
     94 H94       -53.2180  -29.6116   11.5646 H         1 UNK         0.0813 
     95 H95       -53.4251  -31.1259   10.7129 H         1 UNK         0.0813 
     96 H96       -55.1223  -32.3528   11.9994 H         1 UNK         0.0638 
     97 H97       -56.6956  -31.7873   12.4438 H         1 UNK         0.0638 
     98 H98       -55.6112  -31.9405   14.5042 H         1 UNK         0.0568 
     99 H99       -52.1239  -32.6214   14.1398 H         1 UNK         0.3450 
    100 H100      -53.7047  -33.3386   13.9743 H         1 UNK         0.3450 
    101 H101      -56.0364  -29.2449   13.6314 H         1 UNK         0.2987 
    102 H102      -57.1884  -27.9580   15.5728 H         1 UNK         0.0766 
    103 H103      -56.3483  -26.5578   17.4655 H         1 UNK         0.0798 
    104 H104      -54.9976  -27.6669   17.6927 H         1 UNK         0.0798 
    105 H105      -56.6452  -28.2167   17.9617 H         1 UNK         0.0798 
    106 H106      -54.5274  -26.6935   15.4502 H         1 UNK         0.3198 
    107 H107      -54.1164  -26.2916   12.3902 H         1 UNK         0.0843 
    108 H108      -56.3515  -24.2196   12.6966 H         1 UNK         0.0831 
    109 H109      -56.1119  -25.3223   11.3495 H         1 UNK         0.0831 
    110 H110      -54.9550  -24.0347   11.6365 H         1 UNK         0.0831 
    111 H111      -52.8947  -25.1059   13.7533 H         1 UNK         0.3133 
    112 H112      -52.7210  -22.6992   15.3613 H         1 UNK         0.0566 
    113 H113      -52.7117  -22.9178   17.8619 H         1 UNK         0.0814 
    114 H114      -54.3059  -22.5173   17.2481 H         1 UNK         0.0814 
    115 H115      -53.9558  -24.1632   17.7556 H         1 UNK         0.0814 
    116 H116      -51.0370  -24.0996   15.5647 H         1 UNK         0.3091 
    117 H117      -50.2202  -26.8244   17.0724 H         1 UNK         0.0702 
    118 H118      -51.4902  -28.5754   15.8749 H         1 UNK         0.0785 
    119 H119      -49.8663  -28.4875   15.2136 H         1 UNK         0.0785 
    120 H120      -51.2163  -27.7781   14.3327 H         1 UNK         0.0785 
    121 H121      -49.7428  -25.7220   14.3367 H         1 UNK         0.2998 
    122 H122      -47.2511  -23.5155   15.5300 H         1 UNK         0.0697 
    123 H123      -46.7943  -26.0127   13.8114 H         1 UNK         0.0825 
    124 H124      -45.8567  -25.5645   15.2294 H         1 UNK         0.0825 
    125 H125      -45.7961  -24.5587   13.7903 H         1 UNK         0.0825 
    126 H126      -48.0146  -23.9795   12.8740 H         1 UNK         0.3029 
    127 H127      -51.2193  -22.4532   12.8378 H         1 UNK         0.0897 
    128 H128      -50.1272  -21.0892   11.0424 H         1 UNK         0.0792 
    129 H129      -49.7045  -20.5103   12.6452 H         1 UNK         0.0792 
    130 H130      -48.5424  -21.4529   11.7292 H         1 UNK         0.0792 
    131 H131      -49.6531  -23.5439   10.7474 H         1 UNK         0.3086 
    132 H132      -51.3234  -26.7380   10.8325 H         1 UNK         0.0583 
    133 H133      -50.6535  -24.3816    8.9832 H         1 UNK         0.1020 
    134 H134      -51.0867  -25.9700    8.4474 H         1 UNK         0.1020 
    135 H135      -54.8270  -25.6219    8.0757 H         1 UNK         0.0694 
    136 H136      -53.3826  -25.4209    7.1131 H         1 UNK         0.0694 
    137 H137      -48.8618  -26.1946    9.5254 H         1 UNK         0.2989 
    138 H138      -46.9281  -28.4078   11.6021 H         1 UNK         0.1055 
    139 H139      -48.2285  -29.6309    9.8367 H         1 UNK         0.0806 
    140 H140      -46.5803  -29.3013    9.3241 H         1 UNK         0.0806 
    141 H141      -47.9068  -28.3284    8.6984 H         1 UNK         0.0806 
    142 H142      -46.7815  -26.2113    9.5633 H         1 UNK         0.3061 
    143 H143      -44.4083  -24.5086   11.4310 H         1 UNK         0.0734 
    144 H144      -42.8219  -24.5556    9.5150 H         1 UNK         0.0832 
    145 H145      -42.7315  -26.0611   10.4114 H         1 UNK         0.0832 
    146 H146      -43.5936  -26.0110    8.8806 H         1 UNK         0.0832 
    147 H147      -45.2089  -24.1321    8.7262 H         1 UNK         0.3156 
    148 H148      -48.4744  -22.9194    9.2374 H         1 UNK         0.0589 
    149 H149      -45.9734  -21.2782    8.5707 H         1 UNK         0.0808 
    150 H150      -47.6443  -20.8315    8.2239 H         1 UNK         0.0808 
    151 H151      -47.0838  -20.9230    9.8833 H         1 UNK         0.0808 
    152 H152      -46.9669  -22.8532    6.8945 H         1 UNK         0.3098 
    153 H153      -47.7056  -24.3573    5.1921 H         1 UNK         0.0720 
    154 H154      -45.5900  -25.5582    4.5654 H         1 UNK         0.0791 
    155 H155      -45.3622  -26.0554    6.2402 H         1 UNK         0.0791 
    156 H156      -45.2696  -24.3546    5.7992 H         1 UNK         0.0791 
    157 H157      -47.3584  -27.2132    5.3577 H         1 UNK         0.3028 
@<TRIPOS>BOND
     1    1    2 1    
     2    1   82 1    
     3    1   83 1    
     4    1   84 1    
     5    2    3 2    
     6    2    4 am   BACKBONE|DICT|INTERRES
     7    4    5 1    
     8    4   85 1    
     9    5    6 1    
    10    5   80 1    
    11    5   86 1    
    12    6    7 1    
    13    6   87 1    
    14    6   88 1    
    15    7    8 1    
    16    8    9 1    
    17    8   89 1    
    18    8   90 1    
    19    9   10 ar   
    20    9   14 ar   
    21   10   11 ar   
    22   10   91 1    
    23   11   12 ar   
    24   11   58 1    
    25   12   13 ar   
    26   12   92 1    
    27   13   14 ar   
    28   13   15 1    
    29   14   93 1    
    30   15   16 1    
    31   15   94 1    
    32   15   95 1    
    33   16   17 1    
    34   17   18 1    
    35   17   96 1    
    36   17   97 1    
    37   18   19 1    
    38   18   22 1    
    39   18   98 1    
    40   19   20 am   BACKBONE|DICT|INTERRES
    41   19   21 2    
    42   20   99 1    
    43   20  100 1    
    44   22   23 am   BACKBONE|DICT|INTERRES
    45   22  101 1    
    46   23   24 2    
    47   23   25 1    
    48   25   26 1    
    49   25   27 1    
    50   25  102 1    
    51   26  103 1    
    52   26  104 1    
    53   26  105 1    
    54   27   28 am   BACKBONE|DICT|INTERRES
    55   27  106 1    
    56   28   29 2    
    57   28   30 1    
    58   30   31 1    
    59   30   32 1    
    60   30  107 1    
    61   31  108 1    
    62   31  109 1    
    63   31  110 1    
    64   32   33 am   BACKBONE|DICT|INTERRES
    65   32  111 1    
    66   33   34 2    
    67   33   35 1    
    68   35   36 1    
    69   35   37 1    
    70   35  112 1    
    71   36  113 1    
    72   36  114 1    
    73   36  115 1    
    74   37   38 am   BACKBONE|DICT|INTERRES
    75   37  116 1    
    76   38   39 2    
    77   38   40 1    
    78   40   41 1    
    79   40   42 1    
    80   40  117 1    
    81   41  118 1    
    82   41  119 1    
    83   41  120 1    
    84   42   43 am   BACKBONE|DICT|INTERRES
    85   42  121 1    
    86   43   44 2    
    87   43   45 1    
    88   45   46 1    
    89   45   47 1    
    90   45  122 1    
    91   46  123 1    
    92   46  124 1    
    93   46  125 1    
    94   47   48 am   BACKBONE|DICT|INTERRES
    95   47  126 1    
    96   48   49 2    
    97   48   50 1    
    98   50   51 1    
    99   50   52 1    
   100   50  127 1    
   101   51  128 1    
   102   51  129 1    
   103   51  130 1    
   104   52   53 am   BACKBONE|DICT|INTERRES
   105   52  131 1    
   106   53   54 2    
   107   53   55 1    
   108   55   56 1    
   109   55   59 1    
   110   55  132 1    
   111   56   57 1    
   112   56  133 1    
   113   56  134 1    
   114   57   58 1    
   115   58  135 1    
   116   58  136 1    
   117   59   60 am   BACKBONE|DICT|INTERRES
   118   59  137 1    
   119   60   61 2    
   120   60   62 1    
   121   62   63 1    
   122   62   64 1    
   123   62  138 1    
   124   63  139 1    
   125   63  140 1    
   126   63  141 1    
   127   64   65 am   BACKBONE|DICT|INTERRES
   128   64  142 1    
   129   65   66 2    
   130   65   67 1    
   131   67   68 1    
   132   67   69 1    
   133   67  143 1    
   134   68  144 1    
   135   68  145 1    
   136   68  146 1    
   137   69   70 am   BACKBONE|DICT|INTERRES
   138   69  147 1    
   139   70   71 2    
   140   70   72 1    
   141   72   73 1    
   142   72   74 1    
   143   72  148 1    
   144   73  149 1    
   145   73  150 1    
   146   73  151 1    
   147   74   75 am   BACKBONE|DICT|INTERRES
   148   74  152 1    
   149   75   76 2    
   150   75   77 1    
   151   77   78 1    
   152   77   79 1    
   153   77  153 1    
   154   78  154 1    
   155   78  155 1    
   156   78  156 1    
   157   79   80 am   BACKBONE|DICT|INTERRES
   158   79  157 1    
   159   80   81 2    
@<TRIPOS>SUBSTRUCTURE
     1 UNK         1 GROUP             0       ****    0 ROOT    
