@<TRIPOS>MOLECULE
3R207
157   159    1
SMALL
USER_CHARGES


@<TRIPOS>ATOM
      1 CA        -46.5364  -30.8199    2.8082 C.3       0 UNK        -0.1975 
      2 C         -47.6466  -29.8126    3.0679 C.2       0 UNK         0.4852 
      3 O         -47.8565  -28.9105    2.2563 O.2       0 UNK        -0.5216 
      4 N         -48.3583  -29.9603    4.1935 N.am      1 UNK        -0.4461 
      5 CA        -49.4528  -29.0824    4.6296 C.3       1 UNK         0.0864 
      6 C6        -50.3365  -29.7419    5.7206 C.3       14 UNK        -0.0898 
      7 S7        -49.4179  -30.6003    7.0508 S.3       14 UNK        -0.2598 
      8 C8        -49.3322  -29.3466    8.3660 C.3       14 UNK         0.0286 
      9 C9        -50.7006  -28.9610    8.9021 C.ar      14 UNK        -0.0844 
     10 C10       -51.2536  -27.7236    8.5670 C.ar      14 UNK        -0.0881 
     11 C11       -52.5042  -27.3472    9.0620 C.ar      14 UNK        -0.0643 
     12 C12       -53.2129  -28.2303    9.8815 C.ar      14 UNK        -0.0930 
     13 C13       -52.6717  -29.4755   10.2207 C.ar      14 UNK        -0.0827 
     14 C14       -51.4091  -29.8311    9.7357 C.ar      14 UNK        -0.1249 
     15 C15       -53.4748  -30.4559   11.0633 C.3       14 UNK         0.0141 
     16 S16       -53.8990  -29.7830   12.7011 S.3       14 UNK        -0.2313 
     17 C17       -55.1778  -30.9788   13.2159 C.3       14 UNK        -0.0915 
     18 CA        -56.5797  -30.6501   12.6310 C.3       13 UNK         0.0968 
     19 C         -57.6156  -31.7605   12.9704 C.2       13 UNK         0.5732 
     20 N         -58.7437  -31.4533   13.6003 N.am      13 UNK        -0.7310 
     21 O         -57.3984  -32.9245   12.6421 O.2       13 UNK        -0.5035 
     22 N         -57.0142  -29.2926   12.9955 N.am      13 UNK        -0.4233 
     23 C         -57.7315  -28.4739   12.2154 C.2       13 UNK         0.4989 
     24 O         -58.1213  -28.7751   11.0865 O.2       13 UNK        -0.4996 
     25 CA        -58.0960  -27.0865   12.7839 C.3       12 UNK         0.0216 
     26 CB        -59.6193  -26.9570   12.9599 C.3       12 UNK        -0.1964 
     27 N         -57.4442  -26.7798   14.0628 N.am      12 UNK        -0.4276 
     28 C         -56.1623  -26.4193   14.2018 C.2       12 UNK         0.5020 
     29 O         -55.3828  -26.2560   13.2602 O.2       12 UNK        -0.5489 
     30 CA        -55.6675  -26.2550   15.6423 C.3       11 UNK         0.0294 
     31 CB        -55.5183  -27.6244   16.3345 C.3       11 UNK        -0.2019 
     32 N         -54.3751  -25.5793   15.6299 N.am      11 UNK        -0.4493 
     33 C         -53.8870  -24.8232   16.6186 C.2       11 UNK         0.4932 
     34 O         -54.5078  -24.5701   17.6533 O.2       11 UNK        -0.5029 
     35 CA        -52.4589  -24.2792   16.4168 C.3       10 UNK         0.0280 
     36 CB        -51.8843  -23.6132   17.6849 C.3       10 UNK        -0.1976 
     37 N         -51.5304  -25.2945   15.9048 N.am      10 UNK        -0.4242 
     38 C         -51.2243  -26.4784   16.4607 C.2       10 UNK         0.5072 
     39 O         -51.7077  -26.9044   17.5108 O.2       10 UNK        -0.5224 
     40 CA        -50.1762  -27.3281   15.7230 C.3       9 UNK         0.0343 
     41 CB        -50.8018  -28.0361   14.5087 C.3       9 UNK        -0.2003 
     42 N         -49.0148  -26.5410   15.3002 N.am      9 UNK        -0.4272 
     43 C         -48.1335  -25.9710   16.1368 C.2       9 UNK         0.4988 
     44 O         -48.1571  -26.1127   17.3601 O.2       9 UNK        -0.5108 
     45 CA        -47.0420  -25.0858   15.5095 C.3       8 UNK         0.0248 
     46 CB        -45.8802  -25.9428   14.9825 C.3       8 UNK        -0.2001 
     47 N         -47.5560  -24.2244   14.4414 N.am      8 UNK        -0.4140 
     48 C         -48.4123  -23.2102   14.6356 C.2       8 UNK         0.5028 
     49 O         -48.7913  -22.8364   15.7456 O.2       8 UNK        -0.5428 
     50 CA        -48.9586  -22.4994   13.3855 C.3       7 UNK         0.0264 
     51 CB        -48.0013  -21.3882   12.9263 C.3       7 UNK        -0.1988 
     52 N         -49.2254  -23.4092   12.2693 N.am      7 UNK        -0.4454 
     53 C         -50.1318  -24.3985   12.2844 C.2       7 UNK         0.5027 
     54 O         -50.8632  -24.6402   13.2452 O.2       7 UNK        -0.5083 
     55 CA        -50.1902  -25.2965   11.0300 C.3       6 UNK         0.0844 
     56 C56       -50.9221  -24.5831    9.8620 C.3       14 UNK        -0.0967 
     57 S57       -52.7359  -24.7423    9.9829 S.3       14 UNK        -0.2604 
     58 C58       -53.0905  -25.9899    8.7048 C.3       14 UNK         0.0134 
     59 N         -48.8560  -25.7726   10.6449 N.am      6 UNK        -0.4116 
     60 C         -48.0386  -26.4914   11.4302 C.2       5 UNK         0.5034 
     61 O         -48.3568  -26.9278   12.5349 O.2       5 UNK        -0.5045 
     62 CA        -46.5935  -26.6933   10.9443 C.3       5 UNK         0.0224 
     63 CB        -46.4522  -27.9396   10.0604 C.3       5 UNK        -0.1978 
     64 N         -46.0816  -25.5188   10.2375 N.am      5 UNK        -0.4737 
     65 C         -45.7741  -24.3616   10.8392 C.2       4 UNK         0.5027 
     66 O         -45.8300  -24.1895   12.0559 O.2       4 UNK        -0.5211 
     67 CA        -45.3915  -23.1887    9.9218 C.3       4 UNK         0.0297 
     68 CB        -43.9082  -23.2697    9.5286 C.3       4 UNK        -0.1993 
     69 N         -46.2215  -23.1312    8.7150 N.am      4 UNK        -0.4486 
     70 C         -47.5409  -22.8918    8.7172 C.2       3 UNK         0.4961 
     71 O         -48.1858  -22.6338    9.7323 O.2       3 UNK        -0.5105 
     72 CA        -48.2750  -23.0059    7.3708 C.3       3 UNK         0.0299 
     73 CB        -48.2674  -21.6551    6.6386 C.3       3 UNK        -0.1972 
     74 N         -47.7259  -24.0460    6.4947 N.am      3 UNK        -0.4305 
     75 C         -47.7325  -25.3588    6.7655 C.2       2 UNK         0.5006 
     76 O         -48.1873  -25.8452    7.8032 O.2       2 UNK        -0.5106 
     77 CA        -47.0389  -26.2639    5.7334 C.3       2 UNK         0.0296 
     78 CB        -45.5997  -26.5663    6.1828 C.3       2 UNK        -0.2002 
     79 N         -47.7335  -27.5295    5.4799 N.am      2 UNK        -0.4032 
     80 C         -48.9880  -27.6603    5.0201 C.2       1 UNK         0.5000 
     81 O         -49.7576  -26.7133    4.8457 O.2       1 UNK        -0.5238 
     82 H82       -46.7181  -31.3446    1.8707 H         1 UNK         0.0889 
     83 H83       -46.4643  -31.5618    3.6033 H         1 UNK         0.0889 
     84 H84       -45.5767  -30.3092    2.7328 H         1 UNK         0.0889 
     85 H85       -48.1518  -30.7255    4.8216 H         1 UNK         0.3028 
     86 H86       -50.0959  -28.9389    3.7580 H         1 UNK         0.0864 
     87 H87       -51.0474  -29.0290    6.1395 H         1 UNK         0.0720 
     88 H88       -50.9580  -30.5018    5.2445 H         1 UNK         0.0720 
     89 H89       -48.8114  -28.4695    7.9844 H         1 UNK         0.0814 
     90 H90       -48.7253  -29.7370    9.1833 H         1 UNK         0.0814 
     91 H91       -50.7049  -27.0525    7.9200 H         1 UNK         0.1469 
     92 H92       -54.1863  -27.9478   10.2598 H         1 UNK         0.1381 
     93 H93       -50.9831  -30.7930    9.9866 H         1 UNK         0.1206 
     94 H94       -54.3857  -30.7044   10.5184 H         1 UNK         0.0813 
     95 H95       -52.9310  -31.3921   11.1983 H         1 UNK         0.0813 
     96 H96       -54.8537  -31.9778   12.9179 H         1 UNK         0.0638 
     97 H97       -55.2148  -30.9846   14.3066 H         1 UNK         0.0638 
     98 H98       -56.4870  -30.6882   11.5448 H         1 UNK         0.0568 
     99 H99       -59.4066  -32.1838   13.8069 H         1 UNK         0.3450 
    100 H100      -58.9408  -30.5025   13.8656 H         1 UNK         0.3450 
    101 H101      -56.7298  -28.9666   13.9053 H         1 UNK         0.2987 
    102 H102      -57.7749  -26.3464   12.0476 H         1 UNK         0.0766 
    103 H103      -59.8967  -25.9573   13.2950 H         1 UNK         0.0798 
    104 H104      -60.0067  -27.6746   13.6842 H         1 UNK         0.0798 
    105 H105      -60.1395  -27.1336   12.0172 H         1 UNK         0.0798 
    106 H106      -58.0124  -26.8817   14.8924 H         1 UNK         0.3198 
    107 H107      -56.3936  -25.6436   16.1830 H         1 UNK         0.0843 
    108 H108      -54.8209  -28.2705   15.7987 H         1 UNK         0.0831 
    109 H109      -56.4726  -28.1481   16.3964 H         1 UNK         0.0831 
    110 H110      -55.1484  -27.5140   17.3542 H         1 UNK         0.0831 
    111 H111      -53.8521  -25.6915   14.7691 H         1 UNK         0.3133 
    112 H112      -52.5270  -23.5132   15.6430 H         1 UNK         0.0566 
    113 H113      -50.8850  -23.2167   17.5053 H         1 UNK         0.0814 
    114 H114      -52.5096  -22.7801   18.0078 H         1 UNK         0.0814 
    115 H115      -51.8205  -24.3153   18.5168 H         1 UNK         0.0814 
    116 H116      -51.1157  -25.0775   14.9989 H         1 UNK         0.3091 
    117 H117      -49.8233  -28.0956   16.4150 H         1 UNK         0.0702 
    118 H118      -51.6635  -28.6352   14.8062 H         1 UNK         0.0785 
    119 H119      -51.1440  -27.3274   13.7538 H         1 UNK         0.0785 
    120 H120      -50.0888  -28.7084   14.0313 H         1 UNK         0.0785 
    121 H121      -48.8762  -26.4388   14.2979 H         1 UNK         0.2998 
    122 H122      -46.6494  -24.4368   16.2952 H         1 UNK         0.0697 
    123 H123      -46.2083  -26.6384   14.2107 H         1 UNK         0.0825 
    124 H124      -45.4393  -26.5346   15.7857 H         1 UNK         0.0825 
    125 H125      -45.0873  -25.3238   14.5623 H         1 UNK         0.0825 
    126 H126      -47.2176  -24.4028   13.5009 H         1 UNK         0.3029 
    127 H127      -49.9083  -22.0369   13.6631 H         1 UNK         0.0897 
    128 H128      -48.4162  -20.8292   12.0873 H         1 UNK         0.0792 
    129 H129      -47.0364  -21.7891   12.6150 H         1 UNK         0.0792 
    130 H130      -47.8152  -20.6760   13.7313 H         1 UNK         0.0792 
    131 H131      -48.7022  -23.2427   11.4114 H         1 UNK         0.3086 
    132 H132      -50.7550  -26.1929   11.2966 H         1 UNK         0.0583 
    133 H133      -50.6733  -23.5215    9.8149 H         1 UNK         0.1020 
    134 H134      -50.5993  -24.9858    8.9027 H         1 UNK         0.1020 
    135 H135      -54.1719  -26.0766    8.5890 H         1 UNK         0.0694 
    136 H136      -52.7084  -25.6467    7.7419 H         1 UNK         0.0694 
    137 H137      -48.5286  -25.5223    9.7176 H         1 UNK         0.2989 
    138 H138      -45.9758  -26.8491   11.8312 H         1 UNK         0.1055 
    139 H139      -46.8791  -28.8162   10.5492 H         1 UNK         0.0806 
    140 H140      -45.4041  -28.1613    9.8590 H         1 UNK         0.0806 
    141 H141      -46.9525  -27.8137    9.1028 H         1 UNK         0.0806 
    142 H142      -46.0545  -25.5648    9.2298 H         1 UNK         0.3061 
    143 H143      -45.5474  -22.2645   10.4826 H         1 UNK         0.0734 
    144 H144      -43.6047  -22.4018    8.9428 H         1 UNK         0.0832 
    145 H145      -43.2728  -23.2975   10.4150 H         1 UNK         0.0832 
    146 H146      -43.6897  -24.1641    8.9438 H         1 UNK         0.0832 
    147 H147      -45.7681  -23.3184    7.8329 H         1 UNK         0.3156 
    148 H148      -49.3131  -23.2682    7.5830 H         1 UNK         0.0589 
    149 H149      -48.6934  -20.8703    7.2656 H         1 UNK         0.0808 
    150 H150      -47.2572  -21.3440    6.3694 H         1 UNK         0.0808 
    151 H151      -48.8622  -21.6947    5.7258 H         1 UNK         0.0808 
    152 H152      -47.3236  -23.7332    5.6223 H         1 UNK         0.3098 
    153 H153      -46.9966  -25.7311    4.7812 H         1 UNK         0.0720 
    154 H154      -45.0394  -25.6473    6.3601 H         1 UNK         0.0791 
    155 H155      -45.0571  -27.1291    5.4229 H         1 UNK         0.0791 
    156 H156      -45.5776  -27.1456    7.1066 H         1 UNK         0.0791 
    157 H157      -47.1910  -28.3718    5.5977 H         1 UNK         0.3028 
@<TRIPOS>BOND
     1    1    2 1    
     2    1   82 1    
     3    1   83 1    
     4    1   84 1    
     5    2    3 2    
     6    2    4 am   BACKBONE|DICT|INTERRES
     7    4    5 1    
     8    4   85 1    
     9    5    6 1    
    10    5   80 1    
    11    5   86 1    
    12    6    7 1    
    13    6   87 1    
    14    6   88 1    
    15    7    8 1    
    16    8    9 1    
    17    8   89 1    
    18    8   90 1    
    19    9   10 ar   
    20    9   14 ar   
    21   10   11 ar   
    22   10   91 1    
    23   11   12 ar   
    24   11   58 1    
    25   12   13 ar   
    26   12   92 1    
    27   13   14 ar   
    28   13   15 1    
    29   14   93 1    
    30   15   16 1    
    31   15   94 1    
    32   15   95 1    
    33   16   17 1    
    34   17   18 1    
    35   17   96 1    
    36   17   97 1    
    37   18   19 1    
    38   18   22 1    
    39   18   98 1    
    40   19   20 am   BACKBONE|DICT|INTERRES
    41   19   21 2    
    42   20   99 1    
    43   20  100 1    
    44   22   23 am   BACKBONE|DICT|INTERRES
    45   22  101 1    
    46   23   24 2    
    47   23   25 1    
    48   25   26 1    
    49   25   27 1    
    50   25  102 1    
    51   26  103 1    
    52   26  104 1    
    53   26  105 1    
    54   27   28 am   BACKBONE|DICT|INTERRES
    55   27  106 1    
    56   28   29 2    
    57   28   30 1    
    58   30   31 1    
    59   30   32 1    
    60   30  107 1    
    61   31  108 1    
    62   31  109 1    
    63   31  110 1    
    64   32   33 am   BACKBONE|DICT|INTERRES
    65   32  111 1    
    66   33   34 2    
    67   33   35 1    
    68   35   36 1    
    69   35   37 1    
    70   35  112 1    
    71   36  113 1    
    72   36  114 1    
    73   36  115 1    
    74   37   38 am   BACKBONE|DICT|INTERRES
    75   37  116 1    
    76   38   39 2    
    77   38   40 1    
    78   40   41 1    
    79   40   42 1    
    80   40  117 1    
    81   41  118 1    
    82   41  119 1    
    83   41  120 1    
    84   42   43 am   BACKBONE|DICT|INTERRES
    85   42  121 1    
    86   43   44 2    
    87   43   45 1    
    88   45   46 1    
    89   45   47 1    
    90   45  122 1    
    91   46  123 1    
    92   46  124 1    
    93   46  125 1    
    94   47   48 am   BACKBONE|DICT|INTERRES
    95   47  126 1    
    96   48   49 2    
    97   48   50 1    
    98   50   51 1    
    99   50   52 1    
   100   50  127 1    
   101   51  128 1    
   102   51  129 1    
   103   51  130 1    
   104   52   53 am   BACKBONE|DICT|INTERRES
   105   52  131 1    
   106   53   54 2    
   107   53   55 1    
   108   55   56 1    
   109   55   59 1    
   110   55  132 1    
   111   56   57 1    
   112   56  133 1    
   113   56  134 1    
   114   57   58 1    
   115   58  135 1    
   116   58  136 1    
   117   59   60 am   BACKBONE|DICT|INTERRES
   118   59  137 1    
   119   60   61 2    
   120   60   62 1    
   121   62   63 1    
   122   62   64 1    
   123   62  138 1    
   124   63  139 1    
   125   63  140 1    
   126   63  141 1    
   127   64   65 am   BACKBONE|DICT|INTERRES
   128   64  142 1    
   129   65   66 2    
   130   65   67 1    
   131   67   68 1    
   132   67   69 1    
   133   67  143 1    
   134   68  144 1    
   135   68  145 1    
   136   68  146 1    
   137   69   70 am   BACKBONE|DICT|INTERRES
   138   69  147 1    
   139   70   71 2    
   140   70   72 1    
   141   72   73 1    
   142   72   74 1    
   143   72  148 1    
   144   73  149 1    
   145   73  150 1    
   146   73  151 1    
   147   74   75 am   BACKBONE|DICT|INTERRES
   148   74  152 1    
   149   75   76 2    
   150   75   77 1    
   151   77   78 1    
   152   77   79 1    
   153   77  153 1    
   154   78  154 1    
   155   78  155 1    
   156   78  156 1    
   157   79   80 am   BACKBONE|DICT|INTERRES
   158   79  157 1    
   159   80   81 2    
@<TRIPOS>SUBSTRUCTURE
     1 UNK         1 GROUP             0       ****    0 ROOT    
