@<TRIPOS>MOLECULE
3R207
157   159    1
SMALL
USER_CHARGES


@<TRIPOS>ATOM
      1 CA        -52.4426  -30.2544    2.8991 C.3       0 UNK        -0.1975 
      2 C         -51.8217  -29.4871    4.0573 C.2       0 UNK         0.4852 
      3 O         -52.0018  -28.2720    4.1496 O.2       0 UNK        -0.5216 
      4 N         -51.1000  -30.1894    4.9410 N.am      1 UNK        -0.4461 
      5 CA        -50.3974  -29.6131    6.0909 C.3       1 UNK         0.0864 
      6 C6        -50.1084  -30.7000    7.1614 C.3       14 UNK        -0.0898 
      7 S7        -49.6361  -30.0256    8.7934 S.3       14 UNK        -0.2598 
      8 C8        -51.2239  -29.9362    9.6832 C.3       14 UNK         0.0286 
      9 C9        -52.2233  -29.0205    8.9915 C.ar      14 UNK        -0.0844 
     10 C10       -51.9650  -27.6511    8.8681 C.ar      14 UNK        -0.0881 
     11 C11       -52.8777  -26.8115    8.2208 C.ar      14 UNK        -0.0643 
     12 C12       -54.0589  -27.3533    7.7051 C.ar      14 UNK        -0.0930 
     13 C13       -54.3197  -28.7219    7.8075 C.ar      14 UNK        -0.0827 
     14 C14       -53.3977  -29.5506    8.4518 C.ar      14 UNK        -0.1249 
     15 C15       -55.5788  -29.3051    7.1828 C.3       14 UNK         0.0141 
     16 S16       -57.0141  -29.1922    8.2966 S.3       14 UNK        -0.2313 
     17 C17       -56.6340  -30.4933    9.5186 C.3       14 UNK        -0.0915 
     18 CA        -56.4906  -29.9575   10.9673 C.3       13 UNK         0.0968 
     19 C         -56.2292  -31.1287   11.9617 C.2       13 UNK         0.5732 
     20 N         -55.1009  -31.1859   12.6610 N.am      13 UNK        -0.7310 
     21 O         -57.0774  -32.0062   12.1058 O.2       13 UNK        -0.5035 
     22 N         -55.5292  -28.8468   11.0686 N.am      13 UNK        -0.4233 
     23 C         -55.5043  -27.9818   12.0882 C.2       13 UNK         0.4989 
     24 O         -56.3378  -27.9622   12.9974 O.2       13 UNK        -0.4996 
     25 CA        -54.3350  -26.9839   12.1274 C.3       12 UNK         0.0216 
     26 CB        -54.8611  -25.5394   12.0752 C.3       12 UNK        -0.1964 
     27 N         -53.5436  -27.1633   13.3477 N.am      12 UNK        -0.4276 
     28 C         -52.9143  -28.2939   13.7016 C.2       12 UNK         0.5020 
     29 O         -52.8610  -29.2939   12.9820 O.2       12 UNK        -0.5489 
     30 CA        -52.2885  -28.3333   15.1067 C.3       11 UNK         0.0294 
     31 CB        -50.9911  -29.1605   15.1612 C.3       11 UNK        -0.2019 
     32 N         -52.0243  -26.9934   15.6407 N.am      11 UNK        -0.4493 
     33 C         -52.4323  -26.5515   16.8392 C.2       11 UNK         0.4932 
     34 O         -53.1807  -27.1881   17.5829 O.2       11 UNK        -0.5029 
     35 CA        -51.9040  -25.1705   17.2849 C.3       10 UNK         0.0280 
     36 CB        -52.0609  -24.9225   18.8000 C.3       10 UNK        -0.1976 
     37 N         -50.5211  -24.9260   16.8583 N.am      10 UNK        -0.4242 
     38 C         -49.4328  -25.6635   17.1364 C.2       10 UNK         0.5072 
     39 O         -49.4270  -26.6059   17.9296 O.2       10 UNK        -0.5224 
     40 CA        -48.1356  -25.3283   16.3763 C.3       9 UNK         0.0343 
     41 CB        -47.6677  -26.5483   15.5645 C.3       9 UNK        -0.2003 
     42 N         -48.3107  -24.2017   15.4559 N.am      9 UNK        -0.4272 
     43 C         -47.8545  -22.9584   15.6624 C.2       9 UNK         0.4988 
     44 O         -47.1635  -22.6311   16.6277 O.2       9 UNK        -0.5108 
     45 CA        -48.2518  -21.8839   14.6300 C.3       8 UNK         0.0248 
     46 CB        -47.1703  -21.7687   13.5433 C.3       8 UNK        -0.2001 
     47 N         -49.5502  -22.1224   13.9904 N.am      8 UNK        -0.4140 
     48 C         -50.7291  -22.2066   14.6266 C.2       8 UNK         0.5028 
     49 O         -50.8680  -22.0296   15.8359 O.2       8 UNK        -0.5428 
     50 CA        -51.9487  -22.6434   13.7937 C.3       7 UNK         0.0264 
     51 CB        -52.7346  -21.4192   13.3002 C.3       7 UNK        -0.1988 
     52 N         -51.6099  -23.4949   12.6488 N.am      7 UNK        -0.4454 
     53 C         -50.9692  -24.6712   12.7102 C.2       7 UNK         0.5027 
     54 O         -50.6306  -25.1937   13.7764 O.2       7 UNK        -0.5083 
     55 CA        -50.6328  -25.3609   11.3722 C.3       6 UNK         0.0844 
     56 C56       -50.8654  -24.4823   10.1121 C.3       14 UNK        -0.0967 
     57 S57       -52.6074  -24.3928    9.5829 S.3       14 UNK        -0.2604 
     58 C58       -52.5772  -25.3317    8.0221 C.3       14 UNK         0.0134 
     59 N         -49.2472  -25.8216   11.4037 N.am      6 UNK        -0.4116 
     60 C         -48.8242  -27.0274   11.8034 C.2       5 UNK         0.5034 
     61 O         -49.5738  -27.9083   12.2183 O.2       5 UNK        -0.5045 
     62 CA        -47.3122  -27.3120   11.7164 C.3       5 UNK         0.0224 
     63 CB        -47.0314  -28.6289   10.9729 C.3       5 UNK        -0.1978 
     64 N         -46.5912  -26.2394   11.0292 N.am      5 UNK        -0.4737 
     65 C         -45.7958  -25.3356   11.6140 C.2       4 UNK         0.5027 
     66 O         -45.5487  -25.3178   12.8185 O.2       4 UNK        -0.5211 
     67 CA        -45.1693  -24.2602   10.7059 C.3       4 UNK         0.0297 
     68 CB        -43.7064  -24.6135   10.3930 C.3       4 UNK        -0.1993 
     69 N         -45.8906  -24.0477    9.4464 N.am      4 UNK        -0.4486 
     70 C         -47.1258  -23.5380    9.3495 C.2       3 UNK         0.4961 
     71 O         -47.8065  -23.1996   10.3184 O.2       3 UNK        -0.5105 
     72 CA        -47.7237  -23.4526    7.9341 C.3       3 UNK         0.0299 
     73 CB        -47.2274  -22.1877    7.2160 C.3       3 UNK        -0.1972 
     74 N         -47.4697  -24.6321    7.0928 N.am      3 UNK        -0.4305 
     75 C         -47.8126  -25.8885    7.4092 C.2       2 UNK         0.5006 
     76 O         -48.2770  -26.2205    8.5016 O.2       2 UNK        -0.5106 
     77 CA        -47.6038  -26.9689    6.3456 C.3       2 UNK         0.0296 
     78 CB        -46.2468  -27.6705    6.5360 C.3       2 UNK        -0.2002 
     79 N         -48.6997  -27.9140    6.5165 N.am      2 UNK        -0.4032 
     80 C         -49.1335  -28.8354    5.6530 C.2       1 UNK         0.5000 
     81 O         -48.5889  -29.0758    4.5709 O.2       1 UNK        -0.5238 
     82 H82       -52.0689  -29.8687    1.9510 H         1 UNK         0.0889 
     83 H83       -53.5261  -30.1392    2.9114 H         1 UNK         0.0889 
     84 H84       -52.2145  -31.3192    2.9456 H         1 UNK         0.0889 
     85 H85       -50.9574  -31.1775    4.7901 H         1 UNK         0.3028 
     86 H86       -51.0794  -28.8818    6.5264 H         1 UNK         0.0864 
     87 H87       -50.9897  -31.3277    7.3039 H         1 UNK         0.0720 
     88 H88       -49.3170  -31.3708    6.8220 H         1 UNK         0.0720 
     89 H89       -51.0458  -29.5655   10.6936 H         1 UNK         0.0814 
     90 H90       -51.6272  -30.9435    9.7971 H         1 UNK         0.0814 
     91 H91       -51.0386  -27.2502    9.2540 H         1 UNK         0.1469 
     92 H92       -54.7677  -26.7141    7.1966 H         1 UNK         0.1381 
     93 H93       -53.5847  -30.6132    8.5195 H         1 UNK         0.1206 
     94 H94       -55.8096  -28.7687    6.2612 H         1 UNK         0.0813 
     95 H95       -55.4186  -30.3441    6.8908 H         1 UNK         0.0813 
     96 H96       -57.4450  -31.2222    9.4686 H         1 UNK         0.0638 
     97 H97       -55.7358  -31.0345    9.2215 H         1 UNK         0.0638 
     98 H98       -57.4665  -29.5555   11.2463 H         1 UNK         0.0568 
     99 H99       -54.9613  -31.9547   13.2960 H         1 UNK         0.3450 
    100 H100      -54.3860  -30.4689   12.5795 H         1 UNK         0.3450 
    101 H101      -54.8128  -28.8098   10.3566 H         1 UNK         0.2987 
    102 H102      -53.6804  -27.1526   11.2699 H         1 UNK         0.0766 
    103 H103      -54.0535  -24.8131   12.1446 H         1 UNK         0.0798 
    104 H104      -55.5615  -25.3311   12.8851 H         1 UNK         0.0798 
    105 H105      -55.3834  -25.3528   11.1359 H         1 UNK         0.0798 
    106 H106      -53.5848  -26.4211   14.0296 H         1 UNK         0.3198 
    107 H107      -53.0267  -28.8448   15.7275 H         1 UNK         0.0843 
    108 H108      -50.1971  -28.6998   14.5758 H         1 UNK         0.0831 
    109 H109      -51.1437  -30.1682   14.7729 H         1 UNK         0.0831 
    110 H110      -50.6315  -29.2596   16.1855 H         1 UNK         0.0831 
    111 H111      -51.4274  -26.3957   15.0718 H         1 UNK         0.3133 
    112 H112      -52.5154  -24.4309   16.7663 H         1 UNK         0.0566 
    113 H113      -51.6937  -23.9350   19.0793 H         1 UNK         0.0814 
    114 H114      -53.1085  -24.9736   19.0990 H         1 UNK         0.0814 
    115 H115      -51.5182  -25.6620   19.3898 H         1 UNK         0.0814 
    116 H116      -50.4005  -24.1343   16.2396 H         1 UNK         0.3091 
    117 H117      -47.3718  -25.0995   17.1221 H         1 UNK         0.0702 
    118 H118      -47.4869  -27.4076   16.2115 H         1 UNK         0.0785 
    119 H119      -48.4127  -26.8472   14.8265 H         1 UNK         0.0785 
    120 H120      -46.7355  -26.3389   15.0404 H         1 UNK         0.0785 
    121 H121      -48.8908  -24.3847   14.6451 H         1 UNK         0.2998 
    122 H122      -48.3155  -20.9296   15.1568 H         1 UNK         0.0697 
    123 H123      -47.0722  -22.6941   12.9743 H         1 UNK         0.0825 
    124 H124      -46.1954  -21.5537   13.9831 H         1 UNK         0.0825 
    125 H125      -47.3920  -20.9653   12.8406 H         1 UNK         0.0825 
    126 H126      -49.5377  -22.2761   12.9926 H         1 UNK         0.3029 
    127 H127      -52.5988  -23.2244   14.4511 H         1 UNK         0.0897 
    128 H128      -53.6516  -21.7152   12.7899 H         1 UNK         0.0792 
    129 H129      -52.1469  -20.8113   12.6112 H         1 UNK         0.0792 
    130 H130      -53.0236  -20.7787   14.1350 H         1 UNK         0.0792 
    131 H131      -51.8931  -23.1601   11.7372 H         1 UNK         0.3086 
    132 H132      -51.2883  -26.2312   11.3118 H         1 UNK         0.0583 
    133 H133      -50.4716  -23.4722   10.2384 H         1 UNK         0.1020 
    134 H134      -50.2912  -24.8888    9.2818 H         1 UNK         0.1020 
    135 H135      -53.3169  -24.8865    7.3551 H         1 UNK         0.0694 
    136 H136      -51.6195  -25.2145    7.5134 H         1 UNK         0.0694 
    137 H137      -48.5534  -25.1555   11.0899 H         1 UNK         0.2989 
    138 H138      -46.9530  -27.4184   12.7417 H         1 UNK         0.1055 
    139 H139      -47.5669  -29.4649   11.4252 H         1 UNK         0.0806 
    140 H140      -45.9701  -28.8759   10.9945 H         1 UNK         0.0806 
    141 H141      -47.3382  -28.5691    9.9286 H         1 UNK         0.0806 
    142 H142      -46.7880  -26.1493   10.0386 H         1 UNK         0.3061 
    143 H143      -45.1829  -23.3197   11.2611 H         1 UNK         0.0734 
    144 H144      -43.2185  -23.8226    9.8231 H         1 UNK         0.0832 
    145 H145      -43.1330  -24.7479   11.3115 H         1 UNK         0.0832 
    146 H146      -43.6274  -25.5397    9.8224 H         1 UNK         0.0832 
    147 H147      -45.4160  -24.3149    8.5960 H         1 UNK         0.3156 
    148 H148      -48.8061  -23.3668    8.0460 H         1 UNK         0.0589 
    149 H149      -46.1547  -22.2246    7.0223 H         1 UNK         0.0808 
    150 H150      -47.7365  -22.0464    6.2624 H         1 UNK         0.0808 
    151 H151      -47.4193  -21.2972    7.8167 H         1 UNK         0.0808 
    152 H152      -47.0779  -24.4552    6.1785 H         1 UNK         0.3098 
    153 H153      -47.6643  -26.5232    5.3509 H         1 UNK         0.0720 
    154 H154      -46.0927  -28.4490    5.7888 H         1 UNK         0.0791 
    155 H155      -46.1689  -28.1338    7.5207 H         1 UNK         0.0791 
    156 H156      -45.4226  -26.9628    6.4397 H         1 UNK         0.0791 
    157 H157      -49.1762  -27.8090    7.4054 H         1 UNK         0.3028 
@<TRIPOS>BOND
     1    1    2 1    
     2    1   82 1    
     3    1   83 1    
     4    1   84 1    
     5    2    3 2    
     6    2    4 am   BACKBONE|DICT|INTERRES
     7    4    5 1    
     8    4   85 1    
     9    5    6 1    
    10    5   80 1    
    11    5   86 1    
    12    6    7 1    
    13    6   87 1    
    14    6   88 1    
    15    7    8 1    
    16    8    9 1    
    17    8   89 1    
    18    8   90 1    
    19    9   10 ar   
    20    9   14 ar   
    21   10   11 ar   
    22   10   91 1    
    23   11   12 ar   
    24   11   58 1    
    25   12   13 ar   
    26   12   92 1    
    27   13   14 ar   
    28   13   15 1    
    29   14   93 1    
    30   15   16 1    
    31   15   94 1    
    32   15   95 1    
    33   16   17 1    
    34   17   18 1    
    35   17   96 1    
    36   17   97 1    
    37   18   19 1    
    38   18   22 1    
    39   18   98 1    
    40   19   20 am   BACKBONE|DICT|INTERRES
    41   19   21 2    
    42   20   99 1    
    43   20  100 1    
    44   22   23 am   BACKBONE|DICT|INTERRES
    45   22  101 1    
    46   23   24 2    
    47   23   25 1    
    48   25   26 1    
    49   25   27 1    
    50   25  102 1    
    51   26  103 1    
    52   26  104 1    
    53   26  105 1    
    54   27   28 am   BACKBONE|DICT|INTERRES
    55   27  106 1    
    56   28   29 2    
    57   28   30 1    
    58   30   31 1    
    59   30   32 1    
    60   30  107 1    
    61   31  108 1    
    62   31  109 1    
    63   31  110 1    
    64   32   33 am   BACKBONE|DICT|INTERRES
    65   32  111 1    
    66   33   34 2    
    67   33   35 1    
    68   35   36 1    
    69   35   37 1    
    70   35  112 1    
    71   36  113 1    
    72   36  114 1    
    73   36  115 1    
    74   37   38 am   BACKBONE|DICT|INTERRES
    75   37  116 1    
    76   38   39 2    
    77   38   40 1    
    78   40   41 1    
    79   40   42 1    
    80   40  117 1    
    81   41  118 1    
    82   41  119 1    
    83   41  120 1    
    84   42   43 am   BACKBONE|DICT|INTERRES
    85   42  121 1    
    86   43   44 2    
    87   43   45 1    
    88   45   46 1    
    89   45   47 1    
    90   45  122 1    
    91   46  123 1    
    92   46  124 1    
    93   46  125 1    
    94   47   48 am   BACKBONE|DICT|INTERRES
    95   47  126 1    
    96   48   49 2    
    97   48   50 1    
    98   50   51 1    
    99   50   52 1    
   100   50  127 1    
   101   51  128 1    
   102   51  129 1    
   103   51  130 1    
   104   52   53 am   BACKBONE|DICT|INTERRES
   105   52  131 1    
   106   53   54 2    
   107   53   55 1    
   108   55   56 1    
   109   55   59 1    
   110   55  132 1    
   111   56   57 1    
   112   56  133 1    
   113   56  134 1    
   114   57   58 1    
   115   58  135 1    
   116   58  136 1    
   117   59   60 am   BACKBONE|DICT|INTERRES
   118   59  137 1    
   119   60   61 2    
   120   60   62 1    
   121   62   63 1    
   122   62   64 1    
   123   62  138 1    
   124   63  139 1    
   125   63  140 1    
   126   63  141 1    
   127   64   65 am   BACKBONE|DICT|INTERRES
   128   64  142 1    
   129   65   66 2    
   130   65   67 1    
   131   67   68 1    
   132   67   69 1    
   133   67  143 1    
   134   68  144 1    
   135   68  145 1    
   136   68  146 1    
   137   69   70 am   BACKBONE|DICT|INTERRES
   138   69  147 1    
   139   70   71 2    
   140   70   72 1    
   141   72   73 1    
   142   72   74 1    
   143   72  148 1    
   144   73  149 1    
   145   73  150 1    
   146   73  151 1    
   147   74   75 am   BACKBONE|DICT|INTERRES
   148   74  152 1    
   149   75   76 2    
   150   75   77 1    
   151   77   78 1    
   152   77   79 1    
   153   77  153 1    
   154   78  154 1    
   155   78  155 1    
   156   78  156 1    
   157   79   80 am   BACKBONE|DICT|INTERRES
   158   79  157 1    
   159   80   81 2    
@<TRIPOS>SUBSTRUCTURE
     1 UNK         1 GROUP             0       ****    0 ROOT    
