@<TRIPOS>MOLECULE
3R207
157   159    1
SMALL
USER_CHARGES


@<TRIPOS>ATOM
      1 CA        -48.9400  -26.7793   10.6902 C.3       0 UNK        -0.1975 
      2 C         -48.9760  -27.0881    9.2017 C.2       0 UNK         0.4852 
      3 O         -48.4661  -26.2894    8.4151 O.2       0 UNK        -0.5216 
      4 N         -49.5700  -28.2349    8.8384 N.am      1 UNK        -0.4461 
      5 CA        -49.7818  -28.7717    7.4869 C.3       1 UNK         0.0864 
      6 C6        -50.9687  -28.0934    6.7498 C.3       14 UNK        -0.0898 
      7 S7        -52.5440  -28.8563    7.2550 S.3       14 UNK        -0.2598 
      8 C8        -53.7545  -27.6727    6.5908 C.3       14 UNK         0.0286 
      9 C9        -53.9255  -26.4718    7.5070 C.ar      14 UNK        -0.0844 
     10 C10       -53.6220  -25.1828    7.0603 C.ar      14 UNK        -0.0881 
     11 C11       -53.8063  -24.0813    7.9019 C.ar      14 UNK        -0.0643 
     12 C12       -54.2819  -24.2785    9.2024 C.ar      14 UNK        -0.0930 
     13 C13       -54.5682  -25.5655    9.6640 C.ar      14 UNK        -0.0827 
     14 C14       -54.4083  -26.6540    8.8051 C.ar      14 UNK        -0.1249 
     15 C15       -55.0494  -25.7824   11.0894 C.3       14 UNK         0.0141 
     16 S16       -53.6949  -25.6276   12.2970 S.3       14 UNK        -0.2313 
     17 C17       -52.5632  -26.9857   11.8304 C.3       14 UNK        -0.0915 
     18 CA        -53.1549  -28.4208   11.9398 C.3       13 UNK         0.0968 
     19 C         -52.0707  -29.5159   11.7126 C.2       13 UNK         0.5732 
     20 N         -52.0437  -30.6069   12.4699 N.am      13 UNK        -0.7310 
     21 O         -51.2276  -29.3789   10.8299 O.2       13 UNK        -0.5035 
     22 N         -53.9143  -28.6217   13.1820 N.am      13 UNK        -0.4233 
     23 C         -55.1189  -29.2005   13.2589 C.2       13 UNK         0.4989 
     24 O         -55.7675  -29.5632   12.2754 O.2       13 UNK        -0.4996 
     25 CA        -55.6954  -29.4147   14.6741 C.3       12 UNK         0.0216 
     26 CB        -56.8217  -30.4697   14.7090 C.3       12 UNK        -0.1964 
     27 N         -54.6747  -29.7215   15.6843 N.am      12 UNK        -0.4276 
     28 C         -53.7887  -30.7319   15.6677 C.2       12 UNK         0.5020 
     29 O         -53.7318  -31.5685   14.7649 O.2       12 UNK        -0.5489 
     30 CA        -52.7641  -30.8039   16.8167 C.3       11 UNK         0.0294 
     31 CB        -51.3543  -31.1160   16.2820 C.3       11 UNK        -0.2019 
     32 N         -52.7106  -29.5460   17.5627 N.am      11 UNK        -0.4493 
     33 C         -53.2204  -29.3406   18.7849 C.2       11 UNK         0.4932 
     34 O         -53.7322  -30.2250   19.4712 O.2       11 UNK        -0.5029 
     35 CA        -53.1753  -27.8998   19.3335 C.3       10 UNK         0.0280 
     36 CB        -51.9946  -27.7346   20.3038 C.3       10 UNK        -0.1976 
     37 N         -53.0891  -26.8697   18.2922 N.am      10 UNK        -0.4242 
     38 C         -54.0275  -26.6265   17.3652 C.2       10 UNK         0.5072 
     39 O         -55.1071  -27.2159   17.3147 O.2       10 UNK        -0.5224 
     40 CA        -53.6672  -25.6175   16.2608 C.3       9 UNK         0.0343 
     41 CB        -54.0853  -24.1952   16.6623 C.3       9 UNK        -0.2003 
     42 N         -52.2449  -25.6258   15.9012 N.am      9 UNK        -0.4272 
     43 C         -51.5721  -26.6768   15.4160 C.2       9 UNK         0.4988 
     44 O         -52.0889  -27.7816   15.2380 O.2       9 UNK        -0.5108 
     45 CA        -50.0790  -26.4639   15.0958 C.3       8 UNK         0.0248 
     46 CB        -49.4298  -27.7044   14.4521 C.3       8 UNK        -0.2001 
     47 N         -49.8249  -25.2895   14.2516 N.am      8 UNK        -0.4140 
     48 C         -49.8234  -24.0189   14.6786 C.2       8 UNK         0.5028 
     49 O         -50.1444  -23.6883   15.8214 O.2       8 UNK        -0.5428 
     50 CA        -49.3719  -22.9348   13.6895 C.3       7 UNK         0.0264 
     51 CB        -47.8708  -22.6521   13.8673 C.3       7 UNK        -0.1988 
     52 N         -49.6231  -23.2672   12.2851 N.am      7 UNK        -0.4454 
     53 C         -50.7568  -22.9735   11.6297 C.2       7 UNK         0.5027 
     54 O         -51.7634  -22.5465   12.1967 O.2       7 UNK        -0.5083 
     55 CA        -50.7645  -23.1493   10.0864 C.3       6 UNK         0.0844 
     56 C56       -51.6040  -22.0363    9.3943 C.3       14 UNK        -0.0967 
     57 S57       -51.7406  -22.2638    7.5866 S.3       14 UNK        -0.2604 
     58 C58       -53.5012  -22.6798    7.3974 C.3       14 UNK         0.0134 
     59 N         -49.4158  -23.2854    9.5067 N.am      6 UNK        -0.4116 
     60 C         -48.4558  -22.3454    9.5006 C.2       5 UNK         0.5034 
     61 O         -48.5721  -21.2346   10.0182 O.2       5 UNK        -0.5045 
     62 CA        -47.1219  -22.7117    8.8430 C.3       5 UNK         0.0224 
     63 CB        -46.1423  -23.2477    9.9009 C.3       5 UNK        -0.1978 
     64 N         -47.2735  -23.7135    7.7889 N.am      5 UNK        -0.4737 
     65 C         -47.3091  -23.4484    6.4772 C.2       4 UNK         0.5027 
     66 O         -47.3304  -22.3093    6.0077 O.2       4 UNK        -0.5211 
     67 CA        -47.2675  -24.6770    5.5438 C.3       4 UNK         0.0297 
     68 CB        -46.8539  -24.3288    4.0987 C.3       4 UNK        -0.1993 
     69 N         -46.4289  -25.7548    6.0881 N.am      4 UNK        -0.4486 
     70 C         -45.1274  -25.6869    6.4202 C.2       3 UNK         0.4961 
     71 O         -44.3975  -24.7310    6.1557 O.2       3 UNK        -0.5105 
     72 CA        -44.5395  -26.8538    7.2356 C.3       3 UNK         0.0299 
     73 CB        -44.3767  -26.4404    8.7082 C.3       3 UNK        -0.1972 
     74 N         -45.3562  -28.0652    7.1804 N.am      3 UNK        -0.4305 
     75 C         -45.3642  -28.9295    6.1582 C.2       2 UNK         0.5006 
     76 O         -44.6267  -28.8412    5.1759 O.2       2 UNK        -0.5106 
     77 CA        -46.3785  -30.0834    6.2390 C.3       2 UNK         0.0296 
     78 CB        -45.7212  -31.3335    6.8469 C.3       2 UNK        -0.2002 
     79 N         -47.6030  -29.7663    6.9863 N.am      2 UNK        -0.4032 
     80 C         -48.4909  -28.8196    6.6451 C.2       1 UNK         0.5000 
     81 O         -48.3166  -28.0207    5.7228 O.2       1 UNK        -0.5238 
     82 H82       -47.9769  -26.3499   10.9647 H         1 UNK         0.0889 
     83 H83       -49.0862  -27.6800   11.2853 H         1 UNK         0.0889 
     84 H84       -49.7241  -26.0676   10.9413 H         1 UNK         0.0889 
     85 H85       -50.0229  -28.7812    9.5701 H         1 UNK         0.3028 
     86 H86       -50.0462  -29.8208    7.6331 H         1 UNK         0.0864 
     87 H87       -50.9884  -27.0184    6.9380 H         1 UNK         0.0720 
     88 H88       -50.8992  -28.2158    5.6672 H         1 UNK         0.0720 
     89 H89       -54.7172  -28.1754    6.4884 H         1 UNK         0.0814 
     90 H90       -53.4579  -27.3693    5.5855 H         1 UNK         0.0814 
     91 H91       -53.2493  -25.0320    6.0564 H         1 UNK         0.1469 
     92 H92       -54.4218  -23.4346    9.8634 H         1 UNK         0.1381 
     93 H93       -54.6453  -27.6517    9.1469 H         1 UNK         0.1206 
     94 H94       -55.8168  -25.0449   11.3278 H         1 UNK         0.0813 
     95 H95       -55.5252  -26.7580   11.1971 H         1 UNK         0.0813 
     96 H96       -51.6859  -26.8922   12.4677 H         1 UNK         0.0638 
     97 H97       -52.2113  -26.8015   10.8138 H         1 UNK         0.0638 
     98 H98       -53.8319  -28.5403   11.0951 H         1 UNK         0.0568 
     99 H99       -51.3318  -31.2973   12.2973 H         1 UNK         0.3450 
    100 H100      -52.7342  -30.7696   13.1943 H         1 UNK         0.3450 
    101 H101      -53.4172  -28.3750   14.0336 H         1 UNK         0.2987 
    102 H102      -56.1312  -28.4578   14.9652 H         1 UNK         0.0766 
    103 H103      -57.6485  -30.1840   14.0576 H         1 UNK         0.0798 
    104 H104      -57.2283  -30.5823   15.7140 H         1 UNK         0.0798 
    105 H105      -56.4691  -31.4472   14.3780 H         1 UNK         0.0798 
    106 H106      -54.6343  -29.0648   16.4565 H         1 UNK         0.3198 
    107 H107      -53.0715  -31.6229   17.4700 H         1 UNK         0.0843 
    108 H108      -51.0344  -30.3816   15.5421 H         1 UNK         0.0831 
    109 H109      -51.3248  -32.0944   15.8009 H         1 UNK         0.0831 
    110 H110      -50.6172  -31.1297   17.0848 H         1 UNK         0.0831 
    111 H111      -52.3438  -28.7557   17.0432 H         1 UNK         0.3133 
    112 H112      -54.1008  -27.7330   19.8885 H         1 UNK         0.0566 
    113 H113      -51.9952  -26.7478   20.7673 H         1 UNK         0.0814 
    114 H114      -51.0359  -27.8713   19.8017 H         1 UNK         0.0814 
    115 H115      -52.0467  -28.4679   21.1100 H         1 UNK         0.0814 
    116 H116      -52.2339  -26.3343   18.2511 H         1 UNK         0.3091 
    117 H117      -54.2303  -25.8995   15.3686 H         1 UNK         0.0702 
    118 H118      -53.9226  -23.4913   15.8456 H         1 UNK         0.0785 
    119 H119      -53.5274  -23.8388   17.5291 H         1 UNK         0.0785 
    120 H120      -55.1458  -24.1564   16.9157 H         1 UNK         0.0785 
    121 H121      -51.7269  -24.7580   16.0143 H         1 UNK         0.2998 
    122 H122      -49.5790  -26.3030   16.0533 H         1 UNK         0.0697 
    123 H123      -49.9264  -27.9966   13.5278 H         1 UNK         0.0825 
    124 H124      -49.4797  -28.5598   15.1264 H         1 UNK         0.0825 
    125 H125      -48.3758  -27.5356   14.2310 H         1 UNK         0.0825 
    126 H126      -49.5834  -25.4652   13.2895 H         1 UNK         0.3029 
    127 H127      -49.9148  -22.0205   13.9413 H         1 UNK         0.0897 
    128 H128      -47.2607  -23.5250   13.6309 H         1 UNK         0.0792 
    129 H129      -47.6464  -22.3672   14.8964 H         1 UNK         0.0792 
    130 H130      -47.5443  -21.8310   13.2282 H         1 UNK         0.0792 
    131 H131      -48.8331  -23.5855   11.7452 H         1 UNK         0.3086 
    132 H132      -51.2660  -24.1015    9.9048 H         1 UNK         0.0583 
    133 H133      -52.6049  -21.9824    9.8232 H         1 UNK         0.1020 
    134 H134      -51.1643  -21.0546    9.5770 H         1 UNK         0.1020 
    135 H135      -54.1146  -21.9400    7.9142 H         1 UNK         0.0694 
    136 H136      -53.7661  -22.6060    6.3416 H         1 UNK         0.0694 
    137 H137      -49.2286  -24.1538    9.0226 H         1 UNK         0.2989 
    138 H138      -46.7010  -21.7940    8.4252 H         1 UNK         0.1055 
    139 H139      -46.4934  -24.1776   10.3493 H         1 UNK         0.0806 
    140 H140      -46.0033  -22.5265   10.7079 H         1 UNK         0.0806 
    141 H141      -45.1604  -23.4356    9.4662 H         1 UNK         0.0806 
    142 H142      -47.3433  -24.6876    8.0693 H         1 UNK         0.3061 
    143 H143      -48.2848  -25.0709    5.5140 H         1 UNK         0.0734 
    144 H144      -45.8648  -23.8718    4.0588 H         1 UNK         0.0832 
    145 H145      -46.8403  -25.2167    3.4667 H         1 UNK         0.0832 
    146 H146      -47.5555  -23.6237    3.6517 H         1 UNK         0.0832 
    147 H147      -46.9420  -26.6000    6.3189 H         1 UNK         0.3156 
    148 H148      -43.5492  -27.0749    6.8315 H         1 UNK         0.0589 
    149 H149      -43.8976  -27.2271    9.2911 H         1 UNK         0.0808 
    150 H150      -43.7535  -25.5494    8.7975 H         1 UNK         0.0808 
    151 H151      -45.3373  -26.2146    9.1728 H         1 UNK         0.0808 
    152 H152      -45.9973  -28.2208    7.9446 H         1 UNK         0.3098 
    153 H153      -46.6754  -30.3199    5.2150 H         1 UNK         0.0720 
    154 H154      -44.8206  -31.6084    6.2956 H         1 UNK         0.0791 
    155 H155      -46.3921  -32.1921    6.8133 H         1 UNK         0.0791 
    156 H156      -45.4305  -31.1730    7.8859 H         1 UNK         0.0791 
    157 H157      -47.8160  -30.3626    7.7735 H         1 UNK         0.3028 
@<TRIPOS>BOND
     1    1    2 1    
     2    1   82 1    
     3    1   83 1    
     4    1   84 1    
     5    2    3 2    
     6    2    4 am   BACKBONE|DICT|INTERRES
     7    4    5 1    
     8    4   85 1    
     9    5    6 1    
    10    5   80 1    
    11    5   86 1    
    12    6    7 1    
    13    6   87 1    
    14    6   88 1    
    15    7    8 1    
    16    8    9 1    
    17    8   89 1    
    18    8   90 1    
    19    9   10 ar   
    20    9   14 ar   
    21   10   11 ar   
    22   10   91 1    
    23   11   12 ar   
    24   11   58 1    
    25   12   13 ar   
    26   12   92 1    
    27   13   14 ar   
    28   13   15 1    
    29   14   93 1    
    30   15   16 1    
    31   15   94 1    
    32   15   95 1    
    33   16   17 1    
    34   17   18 1    
    35   17   96 1    
    36   17   97 1    
    37   18   19 1    
    38   18   22 1    
    39   18   98 1    
    40   19   20 am   BACKBONE|DICT|INTERRES
    41   19   21 2    
    42   20   99 1    
    43   20  100 1    
    44   22   23 am   BACKBONE|DICT|INTERRES
    45   22  101 1    
    46   23   24 2    
    47   23   25 1    
    48   25   26 1    
    49   25   27 1    
    50   25  102 1    
    51   26  103 1    
    52   26  104 1    
    53   26  105 1    
    54   27   28 am   BACKBONE|DICT|INTERRES
    55   27  106 1    
    56   28   29 2    
    57   28   30 1    
    58   30   31 1    
    59   30   32 1    
    60   30  107 1    
    61   31  108 1    
    62   31  109 1    
    63   31  110 1    
    64   32   33 am   BACKBONE|DICT|INTERRES
    65   32  111 1    
    66   33   34 2    
    67   33   35 1    
    68   35   36 1    
    69   35   37 1    
    70   35  112 1    
    71   36  113 1    
    72   36  114 1    
    73   36  115 1    
    74   37   38 am   BACKBONE|DICT|INTERRES
    75   37  116 1    
    76   38   39 2    
    77   38   40 1    
    78   40   41 1    
    79   40   42 1    
    80   40  117 1    
    81   41  118 1    
    82   41  119 1    
    83   41  120 1    
    84   42   43 am   BACKBONE|DICT|INTERRES
    85   42  121 1    
    86   43   44 2    
    87   43   45 1    
    88   45   46 1    
    89   45   47 1    
    90   45  122 1    
    91   46  123 1    
    92   46  124 1    
    93   46  125 1    
    94   47   48 am   BACKBONE|DICT|INTERRES
    95   47  126 1    
    96   48   49 2    
    97   48   50 1    
    98   50   51 1    
    99   50   52 1    
   100   50  127 1    
   101   51  128 1    
   102   51  129 1    
   103   51  130 1    
   104   52   53 am   BACKBONE|DICT|INTERRES
   105   52  131 1    
   106   53   54 2    
   107   53   55 1    
   108   55   56 1    
   109   55   59 1    
   110   55  132 1    
   111   56   57 1    
   112   56  133 1    
   113   56  134 1    
   114   57   58 1    
   115   58  135 1    
   116   58  136 1    
   117   59   60 am   BACKBONE|DICT|INTERRES
   118   59  137 1    
   119   60   61 2    
   120   60   62 1    
   121   62   63 1    
   122   62   64 1    
   123   62  138 1    
   124   63  139 1    
   125   63  140 1    
   126   63  141 1    
   127   64   65 am   BACKBONE|DICT|INTERRES
   128   64  142 1    
   129   65   66 2    
   130   65   67 1    
   131   67   68 1    
   132   67   69 1    
   133   67  143 1    
   134   68  144 1    
   135   68  145 1    
   136   68  146 1    
   137   69   70 am   BACKBONE|DICT|INTERRES
   138   69  147 1    
   139   70   71 2    
   140   70   72 1    
   141   72   73 1    
   142   72   74 1    
   143   72  148 1    
   144   73  149 1    
   145   73  150 1    
   146   73  151 1    
   147   74   75 am   BACKBONE|DICT|INTERRES
   148   74  152 1    
   149   75   76 2    
   150   75   77 1    
   151   77   78 1    
   152   77   79 1    
   153   77  153 1    
   154   78  154 1    
   155   78  155 1    
   156   78  156 1    
   157   79   80 am   BACKBONE|DICT|INTERRES
   158   79  157 1    
   159   80   81 2    
@<TRIPOS>SUBSTRUCTURE
     1 UNK         1 GROUP             0       ****    0 ROOT    
