@<TRIPOS>MOLECULE
3R207
157   159    1
SMALL
USER_CHARGES


@<TRIPOS>ATOM
      1 CA        -49.5505  -32.2972    8.1890 C.3       0 UNK        -0.1975 
      2 C         -49.8970  -30.8961    7.7104 C.2       0 UNK         0.4852 
      3 O         -49.6630  -29.9324    8.4371 O.2       0 UNK        -0.5216 
      4 N         -50.4430  -30.7754    6.4919 N.am      1 UNK        -0.4461 
      5 CA        -50.9018  -29.5479    5.8221 C.3       1 UNK         0.0864 
      6 C6        -52.0285  -28.8086    6.5955 C.3       14 UNK        -0.0898 
      7 S7        -53.0991  -27.8416    5.4813 S.3       14 UNK        -0.2598 
      8 C8        -54.7392  -28.0623    6.2488 C.3       14 UNK         0.0286 
      9 C9        -54.9248  -27.3023    7.5611 C.ar      14 UNK        -0.0844 
     10 C10       -54.4295  -26.0030    7.7287 C.ar      14 UNK        -0.0881 
     11 C11       -54.6747  -25.2903    8.9062 C.ar      14 UNK        -0.0643 
     12 C12       -55.4263  -25.8882    9.9232 C.ar      14 UNK        -0.0930 
     13 C13       -55.9220  -27.1873    9.7759 C.ar      14 UNK        -0.0827 
     14 C14       -55.6702  -27.8844    8.5912 C.ar      14 UNK        -0.1249 
     15 C15       -56.7648  -27.8144   10.8794 C.3       14 UNK         0.0141 
     16 S16       -55.7772  -28.1107   12.3784 S.3       14 UNK        -0.2313 
     17 C17       -55.9033  -29.9216   12.6167 C.3       14 UNK        -0.0915 
     18 CA        -54.8720  -30.7682   11.8113 C.3       13 UNK         0.0968 
     19 C         -55.4308  -31.2287   10.4282 C.2       13 UNK         0.5732 
     20 N         -54.7373  -31.0361    9.3137 N.am      13 UNK        -0.7310 
     21 O         -56.5193  -31.7954   10.3675 O.2       13 UNK        -0.5035 
     22 N         -53.5530  -30.1195   11.8150 N.am      13 UNK        -0.4233 
     23 C         -52.3889  -30.6187   11.3912 C.2       13 UNK         0.4989 
     24 O         -52.2263  -31.7679   10.9815 O.2       13 UNK        -0.4996 
     25 CA        -51.2151  -29.6273   11.4053 C.3       12 UNK         0.0216 
     26 CB        -51.5286  -28.4356   10.4774 C.3       12 UNK        -0.1964 
     27 N         -50.8939  -29.1250   12.7439 N.am      12 UNK        -0.4276 
     28 C         -50.6336  -29.8573   13.8372 C.2       12 UNK         0.5020 
     29 O         -50.5440  -31.0854   13.8445 O.2       12 UNK        -0.5489 
     30 CA        -50.4429  -29.0874   15.1576 C.3       11 UNK         0.0294 
     31 CB        -48.9488  -28.9589   15.4964 C.3       11 UNK        -0.2019 
     32 N         -51.0583  -27.7554   15.1447 N.am      11 UNK        -0.4493 
     33 C         -52.3802  -27.5277   15.1429 C.2       11 UNK         0.4932 
     34 O         -53.2202  -28.4256   15.2164 O.2       11 UNK        -0.5029 
     35 CA        -52.8318  -26.0593   15.0044 C.3       10 UNK         0.0280 
     36 CB        -54.3221  -25.8485   15.3478 C.3       10 UNK        -0.1976 
     37 N         -51.9890  -25.1126   15.7451 N.am      10 UNK        -0.4242 
     38 C         -51.7864  -25.0875   17.0722 C.2       10 UNK         0.5072 
     39 O         -52.2945  -25.8891   17.8595 O.2       10 UNK        -0.5224 
     40 CA        -50.8741  -23.9658   17.6114 C.3       9 UNK         0.0343 
     41 CB        -50.4727  -24.1791   19.0869 C.3       9 UNK        -0.2003 
     42 N         -49.6784  -23.7221   16.7967 N.am      9 UNK        -0.4272 
     43 C         -48.7254  -24.5977   16.4484 C.2       9 UNK         0.4988 
     44 O         -48.7654  -25.7968   16.7251 O.2       9 UNK        -0.5108 
     45 CA        -47.5213  -24.0260   15.6679 C.3       8 UNK         0.0248 
     46 CB        -46.4862  -25.1108   15.3161 C.3       8 UNK        -0.2001 
     47 N         -47.9175  -23.3300   14.4398 N.am      8 UNK        -0.4140 
     48 C         -48.5314  -22.1403   14.3713 C.2       8 UNK         0.5028 
     49 O         -48.7733  -21.4415   15.3573 O.2       8 UNK        -0.5428 
     50 CA        -49.0113  -21.6732   12.9864 C.3       7 UNK         0.0264 
     51 CB        -47.8963  -20.9089   12.2560 C.3       7 UNK        -0.1988 
     52 N         -49.5067  -22.7612   12.1359 N.am      7 UNK        -0.4454 
     53 C         -50.5355  -23.5697   12.4393 C.2       7 UNK         0.5027 
     54 O         -51.1830  -23.4867   13.4853 O.2       7 UNK        -0.5083 
     55 CA        -50.8590  -24.6978   11.4318 C.3       6 UNK         0.0844 
     56 C56       -51.6115  -24.1929   10.1762 C.3       14 UNK        -0.0967 
     57 S57       -53.2673  -23.5375   10.5778 S.3       14 UNK        -0.2604 
     58 C58       -54.1930  -23.8501    9.0410 C.3       14 UNK         0.0134 
     59 N         -49.6453  -25.4402   11.0860 N.am      6 UNK        -0.4116 
     60 C         -48.9584  -26.1958   11.9544 C.2       5 UNK         0.5034 
     61 O         -49.3585  -26.4612   13.0871 O.2       5 UNK        -0.5045 
     62 CA        -47.5887  -26.7233   11.4993 C.3       5 UNK         0.0224 
     63 CB        -47.7132  -28.1006   10.8309 C.3       5 UNK        -0.1978 
     64 N         -46.9055  -25.7913   10.5985 N.am      5 UNK        -0.4737 
     65 C         -46.3661  -24.6302   10.9960 C.2       4 UNK         0.5027 
     66 O         -46.3605  -24.2481   12.1641 O.2       4 UNK        -0.5211 
     67 CA        -45.7695  -23.7254    9.9055 C.3       4 UNK         0.0297 
     68 CB        -44.3270  -24.1470    9.5852 C.3       4 UNK        -0.1993 
     69 N         -46.5645  -23.7167    8.6757 N.am      4 UNK        -0.4486 
     70 C         -47.8200  -23.2551    8.5817 C.2       3 UNK         0.4961 
     71 O         -48.4363  -22.7446    9.5157 O.2       3 UNK        -0.5105 
     72 CA        -48.5289  -23.4531    7.2317 C.3       3 UNK         0.0299 
     73 CB        -48.2250  -22.2826    6.2839 C.3       3 UNK        -0.1972 
     74 N         -48.1809  -24.7222    6.5830 N.am      3 UNK        -0.4305 
     75 C         -48.4398  -25.9299    7.1019 C.2       2 UNK         0.5006 
     76 O         -48.9974  -26.1041    8.1894 O.2       2 UNK        -0.5106 
     77 CA        -47.9361  -27.1383    6.3054 C.3       2 UNK         0.0296 
     78 CB        -46.6058  -27.6434    6.8880 C.3       2 UNK        -0.2002 
     79 N         -48.9312  -28.1988    6.4004 N.am      2 UNK        -0.4032 
     80 C         -49.7624  -28.5811    5.4267 C.2       1 UNK         0.5000 
     81 O         -49.6692  -28.1991    4.2580 O.2       1 UNK        -0.5238 
     82 H82       -48.4843  -32.3667    8.4020 H         1 UNK         0.0889 
     83 H83       -49.8012  -33.0566    7.4488 H         1 UNK         0.0889 
     84 H84       -50.0967  -32.5217    9.1051 H         1 UNK         0.0889 
     85 H85       -50.5678  -31.6152    5.9433 H         1 UNK         0.3028 
     86 H86       -51.3294  -29.9098    4.8852 H         1 UNK         0.0864 
     87 H87       -51.6240  -28.1427    7.3598 H         1 UNK         0.0720 
     88 H88       -52.6504  -29.5322    7.1244 H         1 UNK         0.0720 
     89 H89       -54.9228  -29.1287    6.3892 H         1 UNK         0.0814 
     90 H90       -55.4965  -27.7134    5.5458 H         1 UNK         0.0814 
     91 H91       -53.8755  -25.5333    6.9279 H         1 UNK         0.1469 
     92 H92       -55.6343  -25.3373   10.8304 H         1 UNK         0.1381 
     93 H93       -56.0808  -28.8752    8.4592 H         1 UNK         0.1206 
     94 H94       -57.2247  -28.7425   10.5376 H         1 UNK         0.0813 
     95 H95       -57.5872  -27.1423   11.1276 H         1 UNK         0.0813 
     96 H96       -55.7287  -30.0944   13.6798 H         1 UNK         0.0638 
     97 H97       -56.9320  -30.2445   12.4471 H         1 UNK         0.0638 
     98 H98       -54.7370  -31.7025   12.3587 H         1 UNK         0.0568 
     99 H99       -55.1135  -31.3659    8.4401 H         1 UNK         0.3450 
    100 H100      -53.8236  -30.6181    9.3508 H         1 UNK         0.3450 
    101 H101      -53.5720  -29.1596   12.1269 H         1 UNK         0.2987 
    102 H102      -50.3374  -30.1514   11.0233 H         1 UNK         0.0766 
    103 H103      -52.2238  -27.7253   10.9267 H         1 UNK         0.0798 
    104 H104      -51.9798  -28.7758    9.5459 H         1 UNK         0.0798 
    105 H105      -50.6259  -27.8955   10.2010 H         1 UNK         0.0798 
    106 H106      -50.8564  -28.1208   12.8604 H         1 UNK         0.3198 
    107 H107      -50.9216  -29.6721   15.9460 H         1 UNK         0.0843 
    108 H108      -48.8040  -28.5099   16.4790 H         1 UNK         0.0831 
    109 H109      -48.4179  -28.3459   14.7673 H         1 UNK         0.0831 
    110 H110      -48.4658  -29.9367   15.5147 H         1 UNK         0.0831 
    111 H111      -50.4244  -26.9688   15.0589 H         1 UNK         0.3133 
    112 H112      -52.7089  -25.8102   13.9505 H         1 UNK         0.0566 
    113 H113      -54.6188  -24.8096   15.2040 H         1 UNK         0.0814 
    114 H114      -54.9617  -26.4562   14.7083 H         1 UNK         0.0814 
    115 H115      -54.5442  -26.1232   16.3793 H         1 UNK         0.0814 
    116 H116      -51.5284  -24.4133   15.1669 H         1 UNK         0.3091 
    117 H117      -51.4653  -23.0504   17.5612 H         1 UNK         0.0702 
    118 H118      -49.8622  -23.3549   19.4555 H         1 UNK         0.0785 
    119 H119      -49.9067  -25.1019   19.2201 H         1 UNK         0.0785 
    120 H120      -51.3524  -24.2402   19.7289 H         1 UNK         0.0785 
    121 H121      -49.5480  -22.7664   16.4713 H         1 UNK         0.2998 
    122 H122      -47.0317  -23.3036   16.3241 H         1 UNK         0.0697 
    123 H123      -45.6181  -24.6848   14.8130 H         1 UNK         0.0825 
    124 H124      -46.1245  -25.6149   16.2131 H         1 UNK         0.0825 
    125 H125      -46.9130  -25.8725   14.6628 H         1 UNK         0.0825 
    126 H126      -47.6910  -23.7997   13.5683 H         1 UNK         0.3029 
    127 H127      -49.8449  -20.9863   13.1473 H         1 UNK         0.0897 
    128 H128      -48.2468  -20.5076   11.3049 H         1 UNK         0.0792 
    129 H129      -47.5439  -20.0671   12.8535 H         1 UNK         0.0792 
    130 H130      -47.0367  -21.5477   12.0533 H         1 UNK         0.0792 
    131 H131      -49.0487  -22.8706   11.2321 H         1 UNK         0.3086 
    132 H132      -51.5207  -25.4029   11.9382 H         1 UNK         0.0583 
    133 H133      -51.0419  -23.4216    9.6557 H         1 UNK         0.1020 
    134 H134      -51.7273  -25.0153    9.4674 H         1 UNK         0.1020 
    135 H135      -55.0657  -23.1960    9.0259 H         1 UNK         0.0694 
    136 H136      -53.5771  -23.5575    8.1890 H         1 UNK         0.0694 
    137 H137      -49.2819  -25.3293   10.1462 H         1 UNK         0.2989 
    138 H138      -46.9760  -26.8419   12.3956 H         1 UNK         0.1055 
    139 H139      -48.2923  -28.0566    9.9089 H         1 UNK         0.0806 
    140 H140      -48.2073  -28.8125   11.4930 H         1 UNK         0.0806 
    141 H141      -46.7340  -28.5137   10.5895 H         1 UNK         0.0806 
    142 H142      -46.9194  -26.0114    9.6134 H         1 UNK         0.3061 
    143 H143      -45.7479  -22.7058   10.2956 H         1 UNK         0.0734 
    144 H144      -43.8614  -23.4634    8.8751 H         1 UNK         0.0832 
    145 H145      -43.7120  -24.1421   10.4865 H         1 UNK         0.0832 
    146 H146      -44.2804  -25.1527    9.1655 H         1 UNK         0.0832 
    147 H147      -46.1387  -24.1139    7.8513 H         1 UNK         0.3156 
    148 H148      -49.6040  -23.4644    7.4240 H         1 UNK         0.0589 
    149 H149      -47.1661  -22.2312    6.0271 H         1 UNK         0.0808 
    150 H150      -48.7926  -22.3646    5.3568 H         1 UNK         0.0808 
    151 H151      -48.4951  -21.3303    6.7429 H         1 UNK         0.0808 
    152 H152      -47.7156  -24.6634    5.6880 H         1 UNK         0.3098 
    153 H153      -47.7793  -26.8478    5.2645 H         1 UNK         0.0720 
    154 H154      -46.7083  -27.9491    7.9297 H         1 UNK         0.0791 
    155 H155      -45.8375  -26.8704    6.8454 H         1 UNK         0.0791 
    156 H156      -46.2329  -28.5008    6.3274 H         1 UNK         0.0791 
    157 H157      -49.1111  -28.5709    7.3320 H         1 UNK         0.3028 
@<TRIPOS>BOND
     1    1    2 1    
     2    1   82 1    
     3    1   83 1    
     4    1   84 1    
     5    2    3 2    
     6    2    4 am   BACKBONE|DICT|INTERRES
     7    4    5 1    
     8    4   85 1    
     9    5    6 1    
    10    5   80 1    
    11    5   86 1    
    12    6    7 1    
    13    6   87 1    
    14    6   88 1    
    15    7    8 1    
    16    8    9 1    
    17    8   89 1    
    18    8   90 1    
    19    9   10 ar   
    20    9   14 ar   
    21   10   11 ar   
    22   10   91 1    
    23   11   12 ar   
    24   11   58 1    
    25   12   13 ar   
    26   12   92 1    
    27   13   14 ar   
    28   13   15 1    
    29   14   93 1    
    30   15   16 1    
    31   15   94 1    
    32   15   95 1    
    33   16   17 1    
    34   17   18 1    
    35   17   96 1    
    36   17   97 1    
    37   18   19 1    
    38   18   22 1    
    39   18   98 1    
    40   19   20 am   BACKBONE|DICT|INTERRES
    41   19   21 2    
    42   20   99 1    
    43   20  100 1    
    44   22   23 am   BACKBONE|DICT|INTERRES
    45   22  101 1    
    46   23   24 2    
    47   23   25 1    
    48   25   26 1    
    49   25   27 1    
    50   25  102 1    
    51   26  103 1    
    52   26  104 1    
    53   26  105 1    
    54   27   28 am   BACKBONE|DICT|INTERRES
    55   27  106 1    
    56   28   29 2    
    57   28   30 1    
    58   30   31 1    
    59   30   32 1    
    60   30  107 1    
    61   31  108 1    
    62   31  109 1    
    63   31  110 1    
    64   32   33 am   BACKBONE|DICT|INTERRES
    65   32  111 1    
    66   33   34 2    
    67   33   35 1    
    68   35   36 1    
    69   35   37 1    
    70   35  112 1    
    71   36  113 1    
    72   36  114 1    
    73   36  115 1    
    74   37   38 am   BACKBONE|DICT|INTERRES
    75   37  116 1    
    76   38   39 2    
    77   38   40 1    
    78   40   41 1    
    79   40   42 1    
    80   40  117 1    
    81   41  118 1    
    82   41  119 1    
    83   41  120 1    
    84   42   43 am   BACKBONE|DICT|INTERRES
    85   42  121 1    
    86   43   44 2    
    87   43   45 1    
    88   45   46 1    
    89   45   47 1    
    90   45  122 1    
    91   46  123 1    
    92   46  124 1    
    93   46  125 1    
    94   47   48 am   BACKBONE|DICT|INTERRES
    95   47  126 1    
    96   48   49 2    
    97   48   50 1    
    98   50   51 1    
    99   50   52 1    
   100   50  127 1    
   101   51  128 1    
   102   51  129 1    
   103   51  130 1    
   104   52   53 am   BACKBONE|DICT|INTERRES
   105   52  131 1    
   106   53   54 2    
   107   53   55 1    
   108   55   56 1    
   109   55   59 1    
   110   55  132 1    
   111   56   57 1    
   112   56  133 1    
   113   56  134 1    
   114   57   58 1    
   115   58  135 1    
   116   58  136 1    
   117   59   60 am   BACKBONE|DICT|INTERRES
   118   59  137 1    
   119   60   61 2    
   120   60   62 1    
   121   62   63 1    
   122   62   64 1    
   123   62  138 1    
   124   63  139 1    
   125   63  140 1    
   126   63  141 1    
   127   64   65 am   BACKBONE|DICT|INTERRES
   128   64  142 1    
   129   65   66 2    
   130   65   67 1    
   131   67   68 1    
   132   67   69 1    
   133   67  143 1    
   134   68  144 1    
   135   68  145 1    
   136   68  146 1    
   137   69   70 am   BACKBONE|DICT|INTERRES
   138   69  147 1    
   139   70   71 2    
   140   70   72 1    
   141   72   73 1    
   142   72   74 1    
   143   72  148 1    
   144   73  149 1    
   145   73  150 1    
   146   73  151 1    
   147   74   75 am   BACKBONE|DICT|INTERRES
   148   74  152 1    
   149   75   76 2    
   150   75   77 1    
   151   77   78 1    
   152   77   79 1    
   153   77  153 1    
   154   78  154 1    
   155   78  155 1    
   156   78  156 1    
   157   79   80 am   BACKBONE|DICT|INTERRES
   158   79  157 1    
   159   80   81 2    
@<TRIPOS>SUBSTRUCTURE
     1 UNK         1 GROUP             0       ****    0 ROOT    
