@<TRIPOS>MOLECULE
3R207
157   159    1
SMALL
USER_CHARGES


@<TRIPOS>ATOM
      1 CA        -50.7517  -26.8700    1.4065 C.3       0 UNK        -0.1975 
      2 C         -50.1847  -26.4817    2.7643 C.2       0 UNK         0.4852 
      3 O         -49.5536  -25.4306    2.8850 O.2       0 UNK        -0.5216 
      4 N         -50.4144  -27.3164    3.7852 N.am      1 UNK        -0.4461 
      5 CA        -49.8840  -27.1508    5.1415 C.3       1 UNK         0.0864 
      6 C6        -50.8076  -27.8128    6.1939 C.3       14 UNK        -0.0898 
      7 S7        -51.0295  -29.6159    5.9946 S.3       14 UNK        -0.2598 
      8 C8        -52.6109  -29.8805    6.8642 C.3       14 UNK         0.0286 
      9 C9        -52.6047  -29.2752    8.2619 C.ar      14 UNK        -0.0844 
     10 C10       -53.4088  -28.1696    8.5535 C.ar      14 UNK        -0.0881 
     11 C11       -53.3738  -27.5825    9.8203 C.ar      14 UNK        -0.0643 
     12 C12       -52.5317  -28.1141   10.8001 C.ar      14 UNK        -0.0930 
     13 C13       -51.7171  -29.2207   10.5239 C.ar      14 UNK        -0.0827 
     14 C14       -51.7695  -29.7989    9.2526 C.ar      14 UNK        -0.1249 
     15 C15       -50.7253  -29.7807   11.5424 C.3       14 UNK         0.0141 
     16 S16       -51.1433  -29.4447   13.2845 S.3       14 UNK        -0.2313 
     17 C17       -52.3402  -30.7712   13.6474 C.3       14 UNK        -0.0915 
     18 CA        -53.7982  -30.4595   13.2159 C.3       13 UNK         0.0968 
     19 C         -54.7287  -31.6603   13.5638 C.2       13 UNK         0.5732 
     20 N         -55.6696  -31.5393   14.4948 N.am      13 UNK        -0.7310 
     21 O         -54.5927  -32.7285   12.9719 O.2       13 UNK        -0.5035 
     22 N         -54.2607  -29.1590   13.7229 N.am      13 UNK        -0.4233 
     23 C         -55.3710  -28.5316   13.3115 C.2       13 UNK         0.4989 
     24 O         -56.0594  -28.9109   12.3628 O.2       13 UNK        -0.4996 
     25 CA        -55.7882  -27.2771   14.1056 C.3       12 UNK         0.0216 
     26 CB        -57.3004  -26.9871   14.0112 C.3       12 UNK        -0.1964 
     27 N         -55.3587  -27.3089   15.5090 N.am      12 UNK        -0.4276 
     28 C         -55.6389  -28.2297   16.4446 C.2       12 UNK         0.5020 
     29 O         -56.3539  -29.2131   16.2468 O.2       12 UNK        -0.5489 
     30 CA        -54.9616  -28.0600   17.8167 C.3       11 UNK         0.0294 
     31 CB        -53.8672  -29.1262   17.9992 C.3       11 UNK        -0.2019 
     32 N         -54.3576  -26.7335   17.9746 N.am      11 UNK        -0.4493 
     33 C         -54.9720  -25.6725   18.5170 C.2       11 UNK         0.4932 
     34 O         -56.0896  -25.7167   19.0315 O.2       11 UNK        -0.5029 
     35 CA        -54.2227  -24.3264   18.4640 C.3       10 UNK         0.0280 
     36 CB        -53.3656  -24.1401   19.7263 C.3       10 UNK        -0.1976 
     37 N         -53.3764  -24.1763   17.2756 N.am      10 UNK        -0.4242 
     38 C         -53.8302  -24.1015   16.0154 C.2       10 UNK         0.5072 
     39 O         -55.0240  -24.0801   15.7188 O.2       10 UNK        -0.5224 
     40 CA        -52.7835  -24.1090   14.8854 C.3       9 UNK         0.0343 
     41 CB        -52.4445  -22.6719   14.4600 C.3       9 UNK        -0.2003 
     42 N         -51.5419  -24.8275   15.2000 N.am      9 UNK        -0.4272 
     43 C         -51.4555  -26.1092   15.5828 C.2       9 UNK         0.4988 
     44 O         -52.4316  -26.8473   15.7248 O.2       9 UNK        -0.5108 
     45 CA        -50.0403  -26.6443   15.8183 C.3       8 UNK         0.0248 
     46 CB        -50.0215  -27.9870   16.5736 C.3       8 UNK        -0.2001 
     47 N         -49.4072  -26.7904   14.5117 N.am      8 UNK        -0.4140 
     48 C         -48.2084  -26.3025   14.1740 C.2       8 UNK         0.5028 
     49 O         -47.4283  -25.7797   14.9712 O.2       8 UNK        -0.5428 
     50 CA        -47.8203  -26.3791   12.6850 C.3       7 UNK         0.0264 
     51 CB        -47.0936  -27.6996   12.3834 C.3       7 UNK        -0.1988 
     52 N         -48.9351  -26.2101   11.7423 N.am      7 UNK        -0.4454 
     53 C         -49.7493  -25.1452   11.6835 C.2       7 UNK         0.5027 
     54 O         -49.7195  -24.2062   12.4806 O.2       7 UNK        -0.5083 
     55 CA        -50.7442  -25.1033   10.5095 C.3       6 UNK         0.0844 
     56 C56       -52.1499  -24.6468   10.9712 C.3       14 UNK        -0.0967 
     57 S57       -53.4005  -24.8141    9.6534 S.3       14 UNK        -0.2604 
     58 C58       -54.2354  -26.3650   10.1222 C.3       14 UNK         0.0134 
     59 N         -50.1824  -24.2338    9.4766 N.am      6 UNK        -0.4116 
     60 C         -49.2370  -24.6204    8.6128 C.2       5 UNK         0.5034 
     61 O         -48.8678  -25.7894    8.4864 O.2       5 UNK        -0.5045 
     62 CA        -48.5568  -23.5428    7.7514 C.3       5 UNK         0.0224 
     63 CB        -49.2385  -22.1551    7.7847 C.3       5 UNK        -0.1978 
     64 N         -47.1296  -23.4605    8.0888 N.am      5 UNK        -0.4737 
     65 C         -46.5893  -23.0846    9.2605 C.2       4 UNK         0.5027 
     66 O         -47.2494  -22.6281   10.1938 O.2       4 UNK        -0.5211 
     67 CA        -45.0670  -23.2646    9.4477 C.3       4 UNK         0.0297 
     68 CB        -44.7375  -23.8004   10.8540 C.3       4 UNK        -0.1993 
     69 N         -44.4865  -24.1775    8.4614 N.am      4 UNK        -0.4486 
     70 C         -43.8651  -23.8237    7.3286 C.2       3 UNK         0.4961 
     71 O         -43.6321  -22.6589    7.0058 O.2       3 UNK        -0.5105 
     72 CA        -43.4641  -24.9705    6.3757 C.3       3 UNK         0.0299 
     73 CB        -41.9910  -25.3541    6.5887 C.3       3 UNK        -0.1972 
     74 N         -44.3038  -26.1712    6.5068 N.am      3 UNK        -0.4305 
     75 C         -45.6259  -26.1988    6.2855 C.2       2 UNK         0.5006 
     76 O         -46.2594  -25.2189    5.8839 O.2       2 UNK        -0.5106 
     77 CA        -46.3588  -27.5063    6.6364 C.3       2 UNK         0.0296 
     78 CB        -46.1610  -27.8742    8.1201 C.3       2 UNK        -0.2002 
     79 N         -47.7916  -27.3473    6.3946 N.am      2 UNK        -0.4032 
     80 C         -48.4140  -27.6205    5.2426 C.2       1 UNK         0.5000 
     81 O         -47.8745  -28.2068    4.2979 O.2       1 UNK        -0.5238 
     82 H82       -49.9457  -26.9784    0.6813 H         1 UNK         0.0889 
     83 H83       -51.4315  -26.0973    1.0485 H         1 UNK         0.0889 
     84 H84       -51.2997  -27.8112    1.4475 H         1 UNK         0.0889 
     85 H85       -50.9056  -28.1840    3.6225 H         1 UNK         0.3028 
     86 H86       -49.8716  -26.0812    5.3641 H         1 UNK         0.0864 
     87 H87       -50.4443  -27.6219    7.2053 H         1 UNK         0.0720 
     88 H88       -51.7887  -27.3377    6.1465 H         1 UNK         0.0720 
     89 H89       -53.4198  -29.4622    6.2633 H         1 UNK         0.0814 
     90 H90       -52.8041  -30.9518    6.9349 H         1 UNK         0.0814 
     91 H91       -54.0496  -27.7507    7.7897 H         1 UNK         0.1469 
     92 H92       -52.5027  -27.6451   11.7721 H         1 UNK         0.1381 
     93 H93       -51.1343  -30.6424    9.0182 H         1 UNK         0.1206 
     94 H94       -49.7498  -29.3410   11.3348 H         1 UNK         0.0813 
     95 H95       -50.6082  -30.8567   11.4052 H         1 UNK         0.0813 
     96 H96       -51.9888  -31.6920   13.1783 H         1 UNK         0.0638 
     97 H97       -52.3023  -30.9506   14.7236 H         1 UNK         0.0638 
     98 H98       -53.8078  -30.3920   12.1270 H         1 UNK         0.0568 
     99 H99       -55.8121  -30.6684   14.9961 H         1 UNK         0.3450 
    100 H100      -56.2585  -32.3307   14.6980 H         1 UNK         0.3450 
    101 H101      -53.7352  -28.7670   14.4913 H         1 UNK         0.2987 
    102 H102      -55.2609  -26.4396   13.6469 H         1 UNK         0.0766 
    103 H103      -57.5644  -26.0860   14.5650 H         1 UNK         0.0798 
    104 H104      -57.6075  -26.8309   12.9764 H         1 UNK         0.0798 
    105 H105      -57.8945  -27.8114   14.4073 H         1 UNK         0.0798 
    106 H106      -54.7120  -26.5787   15.7752 H         1 UNK         0.3198 
    107 H107      -55.7242  -28.2161   18.5829 H         1 UNK         0.0843 
    108 H108      -54.2845  -30.1313   17.9224 H         1 UNK         0.0831 
    109 H109      -53.3957  -29.0469   18.9788 H         1 UNK         0.0831 
    110 H110      -53.0858  -29.0409   17.2430 H         1 UNK         0.0831 
    111 H111      -53.4503  -26.6078   17.5406 H         1 UNK         0.3133 
    112 H112      -54.9725  -23.5326   18.4413 H         1 UNK         0.0566 
    113 H113      -52.5797  -24.8931   19.7981 H         1 UNK         0.0814 
    114 H114      -53.9763  -24.2206   20.6269 H         1 UNK         0.0814 
    115 H115      -52.8937  -23.1575   19.7452 H         1 UNK         0.0814 
    116 H116      -52.3776  -24.1711   17.4229 H         1 UNK         0.3091 
    117 H117      -53.2409  -24.6169   14.0348 H         1 UNK         0.0702 
    118 H118      -51.7719  -22.6574   13.6025 H         1 UNK         0.0785 
    119 H119      -51.9686  -22.1139   15.2674 H         1 UNK         0.0785 
    120 H120      -53.3448  -22.1266   14.1725 H         1 UNK         0.0785 
    121 H121      -50.6823  -24.3143   15.0578 H         1 UNK         0.2998 
    122 H122      -49.5106  -25.9062   16.4243 H         1 UNK         0.0697 
    123 H123      -50.5677  -28.7664   16.0432 H         1 UNK         0.0825 
    124 H124      -50.4802  -27.8848   17.5577 H         1 UNK         0.0825 
    125 H125      -49.0015  -28.3397   16.7252 H         1 UNK         0.0825 
    126 H126      -49.9770  -27.2145   13.7920 H         1 UNK         0.3029 
    127 H127      -47.1245  -25.5585   12.4977 H         1 UNK         0.0897 
    128 H128      -46.7329  -27.7318   11.3551 H         1 UNK         0.0792 
    129 H129      -46.2252  -27.8220   13.0324 H         1 UNK         0.0792 
    130 H130      -47.7406  -28.5629   12.5426 H         1 UNK         0.0792 
    131 H131      -49.0098  -26.9003   11.0081 H         1 UNK         0.3086 
    132 H132      -50.8358  -26.1117   10.1030 H         1 UNK         0.0583 
    133 H133      -52.4733  -25.2174   11.8425 H         1 UNK         0.1020 
    134 H134      -52.1299  -23.6036   11.2918 H         1 UNK         0.1020 
    135 H135      -54.5086  -26.3367   11.1776 H         1 UNK         0.0694 
    136 H136      -55.1746  -26.4371    9.5717 H         1 UNK         0.0694 
    137 H137      -50.4010  -23.2516    9.5485 H         1 UNK         0.2989 
    138 H138      -48.6079  -23.9057    6.7233 H         1 UNK         0.1055 
    139 H139      -48.7373  -21.4616    7.1094 H         1 UNK         0.0806 
    140 H140      -49.2332  -21.7040    8.7771 H         1 UNK         0.0806 
    141 H141      -50.2771  -22.2212    7.4574 H         1 UNK         0.0806 
    142 H142      -46.5149  -23.8631    7.3884 H         1 UNK         0.3061 
    143 H143      -44.6151  -22.2756    9.3483 H         1 UNK         0.0734 
    144 H144      -45.0911  -23.1195   11.6295 H         1 UNK         0.0832 
    145 H145      -45.2022  -24.7703   11.0351 H         1 UNK         0.0832 
    146 H146      -43.6622  -23.9118   10.9939 H         1 UNK         0.0832 
    147 H147      -44.6287  -25.1626    8.6291 H         1 UNK         0.3156 
    148 H148      -43.5761  -24.5993    5.3548 H         1 UNK         0.0589 
    149 H149      -41.8174  -25.7559    7.5878 H         1 UNK         0.0808 
    150 H150      -41.6651  -26.1002    5.8637 H         1 UNK         0.0808 
    151 H151      -41.3410  -24.4858    6.4700 H         1 UNK         0.0808 
    152 H152      -43.8438  -27.0136    6.8227 H         1 UNK         0.3098 
    153 H153      -45.9580  -28.3083    6.0131 H         1 UNK         0.0720 
    154 H154      -45.1201  -28.1124    8.3405 H         1 UNK         0.0791 
    155 H155      -46.4606  -27.0610    8.7829 H         1 UNK         0.0791 
    156 H156      -46.7499  -28.7516    8.3890 H         1 UNK         0.0791 
    157 H157      -48.2927  -26.8328    7.1170 H         1 UNK         0.3028 
@<TRIPOS>BOND
     1    1    2 1    
     2    1   82 1    
     3    1   83 1    
     4    1   84 1    
     5    2    3 2    
     6    2    4 am   BACKBONE|DICT|INTERRES
     7    4    5 1    
     8    4   85 1    
     9    5    6 1    
    10    5   80 1    
    11    5   86 1    
    12    6    7 1    
    13    6   87 1    
    14    6   88 1    
    15    7    8 1    
    16    8    9 1    
    17    8   89 1    
    18    8   90 1    
    19    9   10 ar   
    20    9   14 ar   
    21   10   11 ar   
    22   10   91 1    
    23   11   12 ar   
    24   11   58 1    
    25   12   13 ar   
    26   12   92 1    
    27   13   14 ar   
    28   13   15 1    
    29   14   93 1    
    30   15   16 1    
    31   15   94 1    
    32   15   95 1    
    33   16   17 1    
    34   17   18 1    
    35   17   96 1    
    36   17   97 1    
    37   18   19 1    
    38   18   22 1    
    39   18   98 1    
    40   19   20 am   BACKBONE|DICT|INTERRES
    41   19   21 2    
    42   20   99 1    
    43   20  100 1    
    44   22   23 am   BACKBONE|DICT|INTERRES
    45   22  101 1    
    46   23   24 2    
    47   23   25 1    
    48   25   26 1    
    49   25   27 1    
    50   25  102 1    
    51   26  103 1    
    52   26  104 1    
    53   26  105 1    
    54   27   28 am   BACKBONE|DICT|INTERRES
    55   27  106 1    
    56   28   29 2    
    57   28   30 1    
    58   30   31 1    
    59   30   32 1    
    60   30  107 1    
    61   31  108 1    
    62   31  109 1    
    63   31  110 1    
    64   32   33 am   BACKBONE|DICT|INTERRES
    65   32  111 1    
    66   33   34 2    
    67   33   35 1    
    68   35   36 1    
    69   35   37 1    
    70   35  112 1    
    71   36  113 1    
    72   36  114 1    
    73   36  115 1    
    74   37   38 am   BACKBONE|DICT|INTERRES
    75   37  116 1    
    76   38   39 2    
    77   38   40 1    
    78   40   41 1    
    79   40   42 1    
    80   40  117 1    
    81   41  118 1    
    82   41  119 1    
    83   41  120 1    
    84   42   43 am   BACKBONE|DICT|INTERRES
    85   42  121 1    
    86   43   44 2    
    87   43   45 1    
    88   45   46 1    
    89   45   47 1    
    90   45  122 1    
    91   46  123 1    
    92   46  124 1    
    93   46  125 1    
    94   47   48 am   BACKBONE|DICT|INTERRES
    95   47  126 1    
    96   48   49 2    
    97   48   50 1    
    98   50   51 1    
    99   50   52 1    
   100   50  127 1    
   101   51  128 1    
   102   51  129 1    
   103   51  130 1    
   104   52   53 am   BACKBONE|DICT|INTERRES
   105   52  131 1    
   106   53   54 2    
   107   53   55 1    
   108   55   56 1    
   109   55   59 1    
   110   55  132 1    
   111   56   57 1    
   112   56  133 1    
   113   56  134 1    
   114   57   58 1    
   115   58  135 1    
   116   58  136 1    
   117   59   60 am   BACKBONE|DICT|INTERRES
   118   59  137 1    
   119   60   61 2    
   120   60   62 1    
   121   62   63 1    
   122   62   64 1    
   123   62  138 1    
   124   63  139 1    
   125   63  140 1    
   126   63  141 1    
   127   64   65 am   BACKBONE|DICT|INTERRES
   128   64  142 1    
   129   65   66 2    
   130   65   67 1    
   131   67   68 1    
   132   67   69 1    
   133   67  143 1    
   134   68  144 1    
   135   68  145 1    
   136   68  146 1    
   137   69   70 am   BACKBONE|DICT|INTERRES
   138   69  147 1    
   139   70   71 2    
   140   70   72 1    
   141   72   73 1    
   142   72   74 1    
   143   72  148 1    
   144   73  149 1    
   145   73  150 1    
   146   73  151 1    
   147   74   75 am   BACKBONE|DICT|INTERRES
   148   74  152 1    
   149   75   76 2    
   150   75   77 1    
   151   77   78 1    
   152   77   79 1    
   153   77  153 1    
   154   78  154 1    
   155   78  155 1    
   156   78  156 1    
   157   79   80 am   BACKBONE|DICT|INTERRES
   158   79  157 1    
   159   80   81 2    
@<TRIPOS>SUBSTRUCTURE
     1 UNK         1 GROUP             0       ****    0 ROOT    
