@<TRIPOS>MOLECULE
3R207
157   159    1
SMALL
USER_CHARGES


@<TRIPOS>ATOM
      1 CA        -45.7136  -32.2939    7.3999 C.3       0 UNK        -0.1975 
      2 C         -46.4248  -30.9582    7.2428 C.2       0 UNK         0.4852 
      3 O         -46.2999  -30.1058    8.1211 O.2       0 UNK        -0.5216 
      4 N         -47.1402  -30.7813    6.1208 N.am      1 UNK        -0.4461 
      5 CA        -47.9819  -29.6540    5.6712 C.3       1 UNK         0.0864 
      6 C6        -49.3896  -29.6027    6.3271 C.3       14 UNK        -0.0898 
      7 S7        -49.4399  -29.1753    8.1025 S.3       14 UNK        -0.2598 
      8 C8        -51.1372  -29.6796    8.5523 C.3       14 UNK         0.0286 
      9 C9        -52.1545  -28.5382    8.5733 C.ar      14 UNK        -0.0844 
     10 C10       -52.0937  -27.4846    7.6556 C.ar      14 UNK        -0.0881 
     11 C11       -53.0477  -26.4667    7.6712 C.ar      14 UNK        -0.0643 
     12 C12       -54.0866  -26.5135    8.6048 C.ar      14 UNK        -0.0930 
     13 C13       -54.1815  -27.5647    9.5237 C.ar      14 UNK        -0.0827 
     14 C14       -53.1989  -28.5662    9.5055 C.ar      14 UNK        -0.1249 
     15 C15       -55.3673  -27.5681   10.4957 C.3       14 UNK         0.0141 
     16 S16       -55.6619  -29.1339   11.3933 S.3       14 UNK        -0.2313 
     17 C17       -57.3599  -28.8821   12.0173 C.3       14 UNK        -0.0915 
     18 CA        -57.4291  -28.2800   13.4469 C.3       13 UNK         0.0968 
     19 C         -58.9063  -27.9872   13.8428 C.2       13 UNK         0.5732 
     20 N         -59.4880  -28.6818   14.8136 N.am      13 UNK        -0.7310 
     21 O         -59.5348  -27.1085   13.2573 O.2       13 UNK        -0.5035 
     22 N         -56.6704  -29.0828   14.4206 N.am      13 UNK        -0.4233 
     23 C         -56.2932  -28.6616   15.6353 C.2       13 UNK         0.4989 
     24 O         -56.5822  -27.5571   16.0991 O.2       13 UNK        -0.4996 
     25 CA        -55.4288  -29.6121   16.4771 C.3       12 UNK         0.0216 
     26 CB        -55.3279  -31.0515   15.9265 C.3       12 UNK        -0.1964 
     27 N         -54.0950  -29.0295   16.5698 N.am      12 UNK        -0.4276 
     28 C         -53.2655  -29.1184   17.6174 C.2       12 UNK         0.5020 
     29 O         -53.5564  -29.7044   18.6626 O.2       12 UNK        -0.5489 
     30 CA        -51.8832  -28.4364   17.4850 C.3       11 UNK         0.0294 
     31 CB        -50.8039  -29.0853   18.3778 C.3       11 UNK        -0.2019 
     32 N         -51.4192  -28.3183   16.0965 N.am      11 UNK        -0.4493 
     33 C         -51.1884  -29.3178   15.2271 C.2       11 UNK         0.4932 
     34 O         -51.1744  -30.5076   15.5461 O.2       11 UNK        -0.5029 
     35 CA        -50.9703  -28.9319   13.7449 C.3       10 UNK         0.0280 
     36 CB        -51.4995  -30.0123   12.7819 C.3       10 UNK        -0.1976 
     37 N         -51.5178  -27.6213   13.3685 N.am      10 UNK        -0.4242 
     38 C         -52.7730  -27.1783   13.5404 C.2       10 UNK         0.5072 
     39 O         -53.6769  -27.8697   14.0057 O.2       10 UNK        -0.5224 
     40 CA        -53.0344  -25.6917   13.2281 C.3       9 UNK         0.0343 
     41 CB        -54.3070  -25.1557   13.9153 C.3       9 UNK        -0.2003 
     42 N         -51.8899  -24.8244   13.5374 N.am      9 UNK        -0.4272 
     43 C         -51.2181  -24.7212   14.6964 C.2       9 UNK         0.4988 
     44 O         -51.5251  -25.3429   15.7155 O.2       9 UNK        -0.5108 
     45 CA        -49.9554  -23.8337   14.7249 C.3       8 UNK         0.0248 
     46 CB        -48.7167  -24.6821   15.0613 C.3       8 UNK        -0.2001 
     47 N         -49.7049  -23.1211   13.4684 N.am      8 UNK        -0.4140 
     48 C         -50.3391  -22.0082   13.0757 C.2       8 UNK         0.5028 
     49 O         -51.1430  -21.3937   13.7774 O.2       8 UNK        -0.5428 
     50 CA        -50.0711  -21.5291   11.6365 C.3       7 UNK         0.0264 
     51 CB        -48.8279  -20.6274   11.5839 C.3       7 UNK        -0.1988 
     52 N         -49.9314  -22.6294   10.6732 N.am      7 UNK        -0.4454 
     53 C         -50.8954  -23.5220   10.3963 C.2       7 UNK         0.5027 
     54 O         -52.0124  -23.4860   10.9123 O.2       7 UNK        -0.5083 
     55 CA        -50.5489  -24.6830    9.4384 C.3       6 UNK         0.0844 
     56 C56       -50.6356  -24.2724    7.9465 C.3       14 UNK        -0.0967 
     57 S57       -52.3222  -23.7942    7.4252 S.3       14 UNK        -0.2604 
     58 C58       -52.9554  -25.3245    6.6692 C.3       14 UNK         0.0134 
     59 N         -49.2552  -25.2881    9.7618 N.am      6 UNK        -0.4116 
     60 C         -48.9585  -25.9037   10.9153 C.2       5 UNK         0.5034 
     61 O         -49.7691  -26.1080   11.8166 O.2       5 UNK        -0.5045 
     62 CA        -47.4904  -26.2943   11.1409 C.3       5 UNK         0.0224 
     63 CB        -47.1570  -27.6418   10.4848 C.3       5 UNK        -0.1978 
     64 N         -46.5710  -25.2592   10.6652 N.am      5 UNK        -0.4737 
     65 C         -46.4411  -24.0533   11.2358 C.2       4 UNK         0.5027 
     66 O         -47.0431  -23.7117   12.2533 O.2       4 UNK        -0.5211 
     67 CA        -45.5159  -23.0493   10.5281 C.3       4 UNK         0.0297 
     68 CB        -44.0548  -23.2725   10.9485 C.3       4 UNK        -0.1993 
     69 N         -45.6246  -23.1148    9.0679 N.am      4 UNK        -0.4486 
     70 C         -46.7197  -22.7708    8.3745 C.2       3 UNK         0.4961 
     71 O         -47.7416  -22.3186    8.8880 O.2       3 UNK        -0.5105 
     72 CA        -46.6896  -23.0272    6.8578 C.3       3 UNK         0.0299 
     73 CB        -46.0046  -21.8633    6.1246 C.3       3 UNK        -0.1972 
     74 N         -46.0394  -24.2930    6.4996 N.am      3 UNK        -0.4305 
     75 C         -46.4678  -25.5009    6.8914 C.2       2 UNK         0.5006 
     76 O         -47.4589  -25.6742    7.6032 O.2       2 UNK        -0.5106 
     77 CA        -45.5966  -26.6982    6.4798 C.3       2 UNK         0.0296 
     78 CB        -44.4253  -26.8657    7.4625 C.3       2 UNK        -0.2002 
     79 N         -46.3513  -27.9508    6.4379 N.am      2 UNK        -0.4032 
     80 C         -47.3098  -28.2626    5.5596 C.2       1 UNK         0.5000 
     81 O         -47.6485  -27.5140    4.6396 O.2       1 UNK        -0.5238 
     82 H82       -44.6383  -32.1382    7.4826 H         1 UNK         0.0889 
     83 H83       -45.8966  -32.9586    6.5559 H         1 UNK         0.0889 
     84 H84       -46.0558  -32.7943    8.3054 H         1 UNK         0.0889 
     85 H85       -47.1274  -31.5446    5.4585 H         1 UNK         0.3028 
     86 H86       -48.1726  -29.9168    4.6291 H         1 UNK         0.0864 
     87 H87       -50.0219  -28.9007    5.7824 H         1 UNK         0.0720 
     88 H88       -49.8650  -30.5762    6.2003 H         1 UNK         0.0720 
     89 H89       -51.0855  -30.1484    9.5341 H         1 UNK         0.0814 
     90 H90       -51.4929  -30.4548    7.8731 H         1 UNK         0.0814 
     91 H91       -51.2988  -27.4445    6.9268 H         1 UNK         0.1469 
     92 H92       -54.8278  -25.7256    8.6102 H         1 UNK         0.1381 
     93 H93       -53.2461  -29.3859   10.2075 H         1 UNK         0.1206 
     94 H94       -55.2301  -26.7707   11.2263 H         1 UNK         0.0813 
     95 H95       -56.2684  -27.3214    9.9324 H         1 UNK         0.0813 
     96 H96       -57.8619  -29.8511   11.9989 H         1 UNK         0.0638 
     97 H97       -57.9031  -28.2550   11.3081 H         1 UNK         0.0638 
     98 H98       -56.9427  -27.3045   13.4048 H         1 UNK         0.0568 
     99 H99       -60.4435  -28.4790   15.0614 H         1 UNK         0.3450 
    100 H100      -58.9816  -29.4035   15.3000 H         1 UNK         0.3450 
    101 H101      -56.3643  -29.9893   14.1019 H         1 UNK         0.2987 
    102 H102      -55.8827  -29.6497   17.4695 H         1 UNK         0.0766 
    103 H103      -54.7672  -31.6891   16.6103 H         1 UNK         0.0798 
    104 H104      -54.8194  -31.0854   14.9617 H         1 UNK         0.0798 
    105 H105      -56.3138  -31.5030   15.8082 H         1 UNK         0.0798 
    106 H106      -53.8007  -28.5150   15.7388 H         1 UNK         0.3198 
    107 H107      -52.0252  -27.4129   17.8355 H         1 UNK         0.0843 
    108 H108      -49.8436  -28.5814   18.2699 H         1 UNK         0.0831 
    109 H109      -50.6601  -30.1394   18.1392 H         1 UNK         0.0831 
    110 H110      -51.0817  -29.0276   19.4308 H         1 UNK         0.0831 
    111 H111      -51.4087  -27.3667   15.7391 H         1 UNK         0.3133 
    112 H112      -49.8911  -28.8587   13.6051 H         1 UNK         0.0566 
    113 H113      -51.3077  -29.7326   11.7484 H         1 UNK         0.0814 
    114 H114      -51.0119  -30.9725   12.9532 H         1 UNK         0.0814 
    115 H115      -52.5739  -30.1631   12.8956 H         1 UNK         0.0814 
    116 H116      -50.8541  -26.9802   12.9319 H         1 UNK         0.3091 
    117 H117      -53.1826  -25.6322   12.1492 H         1 UNK         0.0702 
    118 H118      -55.1878  -25.7150   13.6010 H         1 UNK         0.0785 
    119 H119      -54.4817  -24.1096   13.6641 H         1 UNK         0.0785 
    120 H120      -54.2425  -25.2360   15.0011 H         1 UNK         0.0785 
    121 H121      -51.5568  -24.2830   12.7479 H         1 UNK         0.2998 
    122 H122      -50.0931  -23.1001   15.5216 H         1 UNK         0.0697 
    123 H123      -48.5426  -25.4535   14.3105 H         1 UNK         0.0825 
    124 H124      -48.8303  -25.1826   16.0239 H         1 UNK         0.0825 
    125 H125      -47.8187  -24.0668   15.1212 H         1 UNK         0.0825 
    126 H126      -48.9993  -23.5173   12.8546 H         1 UNK         0.3029 
    127 H127      -50.9332  -20.9347   11.3262 H         1 UNK         0.0897 
    128 H128      -48.6715  -20.2248   10.5829 H         1 UNK         0.0792 
    129 H129      -48.9325  -19.7793   12.2619 H         1 UNK         0.0792 
    130 H130      -47.9254  -21.1658   11.8728 H         1 UNK         0.0792 
    131 H131      -49.0547  -22.6758   10.1568 H         1 UNK         0.3086 
    132 H132      -51.2927  -25.4626    9.6130 H         1 UNK         0.0583 
    133 H133      -49.9629  -23.4386    7.7400 H         1 UNK         0.1020 
    134 H134      -50.2890  -25.0908    7.3132 H         1 UNK         0.1020 
    135 H135      -53.9451  -25.1279    6.2545 H         1 UNK         0.0694 
    136 H136      -52.3212  -25.5976    5.8243 H         1 UNK         0.0694 
    137 H137      -48.5350  -25.2396    9.0445 H         1 UNK         0.2989 
    138 H138      -47.3460  -26.4028   12.2182 H         1 UNK         0.1055 
    139 H139      -47.8386  -28.4218   10.8274 H         1 UNK         0.0806 
    140 H140      -46.1458  -27.9660   10.7301 H         1 UNK         0.0806 
    141 H141      -47.2383  -27.5986    9.3991 H         1 UNK         0.0806 
    142 H142      -46.0809  -25.4428    9.8028 H         1 UNK         0.3061 
    143 H143      -45.8116  -22.0464   10.8432 H         1 UNK         0.0734 
    144 H144      -43.3975  -22.5172   10.5173 H         1 UNK         0.0832 
    145 H145      -43.9491  -23.2097   12.0326 H         1 UNK         0.0832 
    146 H146      -43.6881  -24.2531   10.6425 H         1 UNK         0.0832 
    147 H147      -44.8270  -23.4701    8.5615 H         1 UNK         0.3156 
    148 H148      -47.7245  -23.0814    6.5136 H         1 UNK         0.0589 
    149 H149      -44.9525  -21.7726    6.3977 H         1 UNK         0.0808 
    150 H150      -46.0621  -21.9866    5.0430 H         1 UNK         0.0808 
    151 H151      -46.4864  -20.9145    6.3658 H         1 UNK         0.0808 
    152 H152      -45.2127  -24.2323    5.9220 H         1 UNK         0.3098 
    153 H153      -45.1982  -26.5109    5.4806 H         1 UNK         0.0720 
    154 H154      -43.7694  -27.6816    7.1579 H         1 UNK         0.0791 
    155 H155      -44.7743  -27.0817    8.4731 H         1 UNK         0.0791 
    156 H156      -43.8138  -25.9639    7.5112 H         1 UNK         0.0791 
    157 H157      -46.1937  -28.6212    7.1897 H         1 UNK         0.3028 
@<TRIPOS>BOND
     1    1    2 1    
     2    1   82 1    
     3    1   83 1    
     4    1   84 1    
     5    2    3 2    
     6    2    4 am   BACKBONE|DICT|INTERRES
     7    4    5 1    
     8    4   85 1    
     9    5    6 1    
    10    5   80 1    
    11    5   86 1    
    12    6    7 1    
    13    6   87 1    
    14    6   88 1    
    15    7    8 1    
    16    8    9 1    
    17    8   89 1    
    18    8   90 1    
    19    9   10 ar   
    20    9   14 ar   
    21   10   11 ar   
    22   10   91 1    
    23   11   12 ar   
    24   11   58 1    
    25   12   13 ar   
    26   12   92 1    
    27   13   14 ar   
    28   13   15 1    
    29   14   93 1    
    30   15   16 1    
    31   15   94 1    
    32   15   95 1    
    33   16   17 1    
    34   17   18 1    
    35   17   96 1    
    36   17   97 1    
    37   18   19 1    
    38   18   22 1    
    39   18   98 1    
    40   19   20 am   BACKBONE|DICT|INTERRES
    41   19   21 2    
    42   20   99 1    
    43   20  100 1    
    44   22   23 am   BACKBONE|DICT|INTERRES
    45   22  101 1    
    46   23   24 2    
    47   23   25 1    
    48   25   26 1    
    49   25   27 1    
    50   25  102 1    
    51   26  103 1    
    52   26  104 1    
    53   26  105 1    
    54   27   28 am   BACKBONE|DICT|INTERRES
    55   27  106 1    
    56   28   29 2    
    57   28   30 1    
    58   30   31 1    
    59   30   32 1    
    60   30  107 1    
    61   31  108 1    
    62   31  109 1    
    63   31  110 1    
    64   32   33 am   BACKBONE|DICT|INTERRES
    65   32  111 1    
    66   33   34 2    
    67   33   35 1    
    68   35   36 1    
    69   35   37 1    
    70   35  112 1    
    71   36  113 1    
    72   36  114 1    
    73   36  115 1    
    74   37   38 am   BACKBONE|DICT|INTERRES
    75   37  116 1    
    76   38   39 2    
    77   38   40 1    
    78   40   41 1    
    79   40   42 1    
    80   40  117 1    
    81   41  118 1    
    82   41  119 1    
    83   41  120 1    
    84   42   43 am   BACKBONE|DICT|INTERRES
    85   42  121 1    
    86   43   44 2    
    87   43   45 1    
    88   45   46 1    
    89   45   47 1    
    90   45  122 1    
    91   46  123 1    
    92   46  124 1    
    93   46  125 1    
    94   47   48 am   BACKBONE|DICT|INTERRES
    95   47  126 1    
    96   48   49 2    
    97   48   50 1    
    98   50   51 1    
    99   50   52 1    
   100   50  127 1    
   101   51  128 1    
   102   51  129 1    
   103   51  130 1    
   104   52   53 am   BACKBONE|DICT|INTERRES
   105   52  131 1    
   106   53   54 2    
   107   53   55 1    
   108   55   56 1    
   109   55   59 1    
   110   55  132 1    
   111   56   57 1    
   112   56  133 1    
   113   56  134 1    
   114   57   58 1    
   115   58  135 1    
   116   58  136 1    
   117   59   60 am   BACKBONE|DICT|INTERRES
   118   59  137 1    
   119   60   61 2    
   120   60   62 1    
   121   62   63 1    
   122   62   64 1    
   123   62  138 1    
   124   63  139 1    
   125   63  140 1    
   126   63  141 1    
   127   64   65 am   BACKBONE|DICT|INTERRES
   128   64  142 1    
   129   65   66 2    
   130   65   67 1    
   131   67   68 1    
   132   67   69 1    
   133   67  143 1    
   134   68  144 1    
   135   68  145 1    
   136   68  146 1    
   137   69   70 am   BACKBONE|DICT|INTERRES
   138   69  147 1    
   139   70   71 2    
   140   70   72 1    
   141   72   73 1    
   142   72   74 1    
   143   72  148 1    
   144   73  149 1    
   145   73  150 1    
   146   73  151 1    
   147   74   75 am   BACKBONE|DICT|INTERRES
   148   74  152 1    
   149   75   76 2    
   150   75   77 1    
   151   77   78 1    
   152   77   79 1    
   153   77  153 1    
   154   78  154 1    
   155   78  155 1    
   156   78  156 1    
   157   79   80 am   BACKBONE|DICT|INTERRES
   158   79  157 1    
   159   80   81 2    
@<TRIPOS>SUBSTRUCTURE
     1 UNK         1 GROUP             0       ****    0 ROOT    
