@<TRIPOS>MOLECULE
3R207
157   159    1
SMALL
USER_CHARGES


@<TRIPOS>ATOM
      1 CA        -45.8167  -26.4574    4.4005 C.3       0 UNK        -0.1975 
      2 C         -47.3008  -26.4145    4.7305 C.2       0 UNK         0.4852 
      3 O         -47.9909  -25.4843    4.3088 O.2       0 UNK        -0.5216 
      4 N         -47.7995  -27.4083    5.4821 N.am      1 UNK        -0.4461 
      5 CA        -49.2003  -27.5162    5.9060 C.3       1 UNK         0.0864 
      6 C6        -49.4838  -28.8433    6.6524 C.3       14 UNK        -0.0898 
      7 S7        -51.2477  -29.2897    6.5565 S.3       14 UNK        -0.2598 
      8 C8        -51.2519  -30.9189    7.3658 C.3       14 UNK         0.0286 
      9 C9        -51.2025  -30.8048    8.8826 C.ar      14 UNK        -0.0844 
     10 C10       -50.0406  -31.1440    9.5851 C.ar      14 UNK        -0.0881 
     11 C11       -50.0098  -31.0709   10.9828 C.ar      14 UNK        -0.0643 
     12 C12       -51.1637  -30.6778   11.6668 C.ar      14 UNK        -0.0930 
     13 C13       -52.3351  -30.3402   10.9829 C.ar      14 UNK        -0.0827 
     14 C14       -52.3403  -30.3934    9.5852 C.ar      14 UNK        -0.1249 
     15 C15       -53.5591  -29.9005   11.7848 C.3       14 UNK         0.0141 
     16 S16       -55.1552  -30.4744   11.1209 S.3       14 UNK        -0.2313 
     17 C17       -56.2670  -30.0973   12.5223 C.3       14 UNK        -0.0915 
     18 CA        -57.0297  -28.7569   12.3458 C.3       13 UNK         0.0968 
     19 C         -58.2059  -28.6128   13.3572 C.2       13 UNK         0.5732 
     20 N         -58.3560  -27.5028   14.0723 N.am      13 UNK        -0.7310 
     21 O         -59.0223  -29.5230   13.4820 O.2       13 UNK        -0.5035 
     22 N         -56.1091  -27.6117   12.3700 N.am      13 UNK        -0.4233 
     23 C         -56.1817  -26.5551   11.5513 C.2       13 UNK         0.4989 
     24 O         -56.9854  -26.4643   10.6213 O.2       13 UNK        -0.4996 
     25 CA        -55.1861  -25.4056   11.8128 C.3       12 UNK         0.0216 
     26 CB        -55.6666  -24.0534   11.2452 C.3       12 UNK        -0.1964 
     27 N         -54.7929  -25.2632   13.2203 N.am      12 UNK        -0.4276 
     28 C         -55.5966  -25.0526   14.2724 C.2       12 UNK         0.5020 
     29 O         -56.8221  -24.9514   14.1827 O.2       12 UNK        -0.5489 
     30 CA        -54.9200  -24.9855   15.6579 C.3       11 UNK         0.0294 
     31 CB        -55.9298  -25.1539   16.8128 C.3       11 UNK        -0.2019 
     32 N         -53.8029  -25.9247   15.8326 N.am      11 UNK        -0.4493 
     33 C         -53.8159  -27.2555   15.6513 C.2       11 UNK         0.4932 
     34 O         -54.7834  -27.8750   15.2041 O.2       11 UNK        -0.5029 
     35 CA        -52.5341  -28.0254   16.0230 C.3       10 UNK         0.0280 
     36 CB        -52.2803  -29.2077   15.0782 C.3       10 UNK        -0.1976 
     37 N         -51.3475  -27.1702   16.0065 N.am      10 UNK        -0.4242 
     38 C         -50.6632  -26.7591   17.0813 C.2       10 UNK         0.5072 
     39 O         -50.9812  -27.0245   18.2412 O.2       10 UNK        -0.5224 
     40 CA        -49.4055  -25.9069   16.8275 C.3       9 UNK         0.0343 
     41 CB        -48.1443  -26.7796   16.9297 C.3       9 UNK        -0.2003 
     42 N         -49.4086  -25.2228   15.5312 N.am      9 UNK        -0.4272 
     43 C         -50.2287  -24.2129   15.2067 C.2       9 UNK         0.4988 
     44 O         -51.0617  -23.7324   15.9762 O.2       9 UNK        -0.5108 
     45 CA        -50.1392  -23.6847   13.7648 C.3       8 UNK         0.0248 
     46 CB        -48.9300  -22.7515   13.5995 C.3       8 UNK        -0.2001 
     47 N         -50.0864  -24.7536   12.7618 N.am      8 UNK        -0.4140 
     48 C         -51.0543  -25.6639   12.5779 C.2       8 UNK         0.5028 
     49 O         -52.0814  -25.7171   13.2512 O.2       8 UNK        -0.5428 
     50 CA        -50.8424  -26.7083   11.4775 C.3       7 UNK         0.0264 
     51 CB        -51.2670  -26.1547   10.1133 C.3       7 UNK        -0.1988 
     52 N         -49.4600  -27.1677   11.4062 N.am      7 UNK        -0.4454 
     53 C         -48.8917  -27.9673   12.3201 C.2       7 UNK         0.5027 
     54 O         -49.4608  -28.3713   13.3351 O.2       7 UNK        -0.5083 
     55 CA        -47.4191  -28.3416   12.0612 C.3       6 UNK         0.0844 
     56 C56       -47.2829  -29.2088   10.7720 C.3       14 UNK        -0.0967 
     57 S57       -47.1625  -31.0056   11.0595 S.3       14 UNK        -0.2604 
     58 C58       -48.7730  -31.4552   11.7958 C.3       14 UNK         0.0134 
     59 N         -46.5608  -27.1525   11.9984 N.am      6 UNK        -0.4116 
     60 C         -46.5166  -26.1203   12.8572 C.2       5 UNK         0.5034 
     61 O         -47.1757  -26.0413   13.8930 O.2       5 UNK        -0.5045 
     62 CA        -45.5978  -24.9458   12.4727 C.3       5 UNK         0.0224 
     63 CB        -44.2557  -25.0510   13.2139 C.3       5 UNK        -0.1978 
     64 N         -45.3515  -24.8371   11.0300 N.am      5 UNK        -0.4737 
     65 C         -46.2939  -24.6071   10.1052 C.2       4 UNK         0.5027 
     66 O         -47.4858  -24.4278   10.3696 O.2       4 UNK        -0.5211 
     67 CA        -45.8096  -24.6710    8.6514 C.3       4 UNK         0.0297 
     68 CB        -45.5889  -26.1355    8.2317 C.3       4 UNK        -0.1993 
     69 N         -46.7825  -24.0600    7.7473 N.am      4 UNK        -0.4486 
     70 C         -46.6697  -22.8281    7.2307 C.2       3 UNK         0.4961 
     71 O         -45.7224  -22.0780    7.4714 O.2       3 UNK        -0.5105 
     72 CA        -47.7625  -22.3364    6.2614 C.3       3 UNK         0.0299 
     73 CB        -47.1831  -22.1476    4.8486 C.3       3 UNK        -0.1972 
     74 N         -48.9130  -23.2379    6.1834 N.am      3 UNK        -0.4305 
     75 C         -49.9762  -23.1808    6.9993 C.2       2 UNK         0.5006 
     76 O         -50.1261  -22.3191    7.8660 O.2       2 UNK        -0.5106 
     77 CA        -51.0622  -24.2629    6.8325 C.3       2 UNK         0.0296 
     78 CB        -52.2266  -23.7248    5.9852 C.3       2 UNK        -0.2002 
     79 N         -50.5874  -25.5223    6.2495 N.am      2 UNK        -0.4032 
     80 C         -49.6100  -26.2927    6.7480 C.2       1 UNK         0.5000 
     81 O         -48.9962  -26.0446    7.7876 O.2       1 UNK        -0.5238 
     82 H82       -45.3277  -25.5523    4.7599 H         1 UNK         0.0889 
     83 H83       -45.6757  -26.5144    3.3216 H         1 UNK         0.0889 
     84 H84       -45.3218  -27.3161    4.8535 H         1 UNK         0.0889 
     85 H85       -47.1827  -28.1348    5.8152 H         1 UNK         0.3028 
     86 H86       -49.7860  -27.5148    4.9837 H         1 UNK         0.0864 
     87 H87       -48.9191  -29.6577    6.1959 H         1 UNK         0.0720 
     88 H88       -49.1676  -28.8001    7.6968 H         1 UNK         0.0720 
     89 H89       -50.4238  -31.5211    6.9889 H         1 UNK         0.0814 
     90 H90       -52.1628  -31.4471    7.0804 H         1 UNK         0.0814 
     91 H91       -49.1635  -31.4722    9.0449 H         1 UNK         0.1469 
     92 H92       -51.1447  -30.6323   12.7468 H         1 UNK         0.1381 
     93 H93       -53.2336  -30.1259    9.0378 H         1 UNK         0.1206 
     94 H94       -53.5680  -28.8132   11.8611 H         1 UNK         0.0813 
     95 H95       -53.4789  -30.2932   12.7970 H         1 UNK         0.0813 
     96 H96       -55.7102  -30.1015   13.4610 H         1 UNK         0.0638 
     97 H97       -56.9685  -30.9307   12.5886 H         1 UNK         0.0638 
     98 H98       -57.5147  -28.8000   11.3691 H         1 UNK         0.0568 
     99 H99       -59.1316  -27.4383   14.7113 H         1 UNK         0.3450 
    100 H100      -57.7196  -26.7180   13.9788 H         1 UNK         0.3450 
    101 H101      -55.4757  -27.5809   13.1603 H         1 UNK         0.2987 
    102 H102      -54.2780  -25.6813   11.2787 H         1 UNK         0.0766 
    103 H103      -54.9295  -23.2686   11.4150 H         1 UNK         0.0798 
    104 H104      -56.6056  -23.7366   11.7003 H         1 UNK         0.0798 
    105 H105      -55.8299  -24.1136   10.1685 H         1 UNK         0.0798 
    106 H106      -53.7927  -25.3856   13.3981 H         1 UNK         0.3198 
    107 H107      -54.4916  -23.9848   15.7335 H         1 UNK         0.0843 
    108 H108      -56.4278  -26.1235   16.7720 H         1 UNK         0.0831 
    109 H109      -56.7051  -24.3877   16.7727 H         1 UNK         0.0831 
    110 H110      -55.4421  -25.0673   17.7836 H         1 UNK         0.0831 
    111 H111      -52.9315  -25.5094   16.1356 H         1 UNK         0.3133 
    112 H112      -52.6955  -28.4291   17.0243 H         1 UNK         0.0566 
    113 H113      -52.1372  -28.8588   14.0559 H         1 UNK         0.0814 
    114 H114      -51.3869  -29.7615   15.3672 H         1 UNK         0.0814 
    115 H115      -53.1139  -29.9106   15.0891 H         1 UNK         0.0814 
    116 H116      -51.0251  -26.8797   15.0919 H         1 UNK         0.3091 
    117 H117      -49.3608  -25.1468   17.6103 H         1 UNK         0.0702 
    118 H118      -47.2388  -26.1815   16.8258 H         1 UNK         0.0785 
    119 H119      -48.1265  -27.5493   16.1564 H         1 UNK         0.0785 
    120 H120      -48.0919  -27.2834   17.8959 H         1 UNK         0.0785 
    121 H121      -48.7289  -25.5491   14.8467 H         1 UNK         0.2998 
    122 H122      -51.0433  -23.1044   13.5688 H         1 UNK         0.0697 
    123 H123      -47.9963  -23.2551   13.8467 H         1 UNK         0.0825 
    124 H124      -49.0150  -21.8875   14.2599 H         1 UNK         0.0825 
    125 H125      -48.8510  -22.3741   12.5795 H         1 UNK         0.0825 
    126 H126      -49.2741  -24.7829   12.1598 H         1 UNK         0.3029 
    127 H127      -51.4752  -27.5667   11.7095 H         1 UNK         0.0897 
    128 H128      -52.2929  -25.7895   10.1303 H         1 UNK         0.0792 
    129 H129      -51.2103  -26.9234    9.3418 H         1 UNK         0.0792 
    130 H130      -50.6284  -25.3232    9.8134 H         1 UNK         0.0792 
    131 H131      -48.9124  -26.8381   10.6222 H         1 UNK         0.3086 
    132 H132      -47.0691  -28.9171   12.9204 H         1 UNK         0.0583 
    133 H133      -48.0749  -29.0202   10.0445 H         1 UNK         0.1020 
    134 H134      -46.3656  -28.9482   10.2418 H         1 UNK         0.1020 
    135 H135      -48.7885  -32.5356   11.9436 H         1 UNK         0.0694 
    136 H136      -48.8219  -31.0156   12.7930 H         1 UNK         0.0694 
    137 H137      -45.9570  -27.0890   11.1940 H         1 UNK         0.2989 
    138 H138      -46.0923  -24.0269   12.7909 H         1 UNK         0.1055 
    139 H139      -44.4098  -25.1060   14.2928 H         1 UNK         0.0806 
    140 H140      -43.6271  -24.1808   13.0239 H         1 UNK         0.0806 
    141 H141      -43.6979  -25.9409   12.9192 H         1 UNK         0.0806 
    142 H142      -44.3966  -24.9680   10.7257 H         1 UNK         0.3061 
    143 H143      -44.8524  -24.1492    8.5862 H         1 UNK         0.0734 
    144 H144      -45.2229  -26.1983    7.2084 H         1 UNK         0.0832 
    145 H145      -44.8436  -26.6223    8.8616 H         1 UNK         0.0832 
    146 H146      -46.5052  -26.7225    8.2983 H         1 UNK         0.0832 
    147 H147      -47.6427  -24.5844    7.6148 H         1 UNK         0.3156 
    148 H148      -48.0943  -21.3587    6.6168 H         1 UNK         0.0589 
    149 H149      -46.7822  -23.0786    4.4470 H         1 UNK         0.0808 
    150 H150      -47.9391  -21.7803    4.1545 H         1 UNK         0.0808 
    151 H151      -46.3700  -21.4205    4.8536 H         1 UNK         0.0808 
    152 H152      -48.8484  -23.9898    5.5038 H         1 UNK         0.3098 
    153 H153      -51.4502  -24.4867    7.8260 H         1 UNK         0.0720 
    154 H154      -53.0500  -24.4379    5.9417 H         1 UNK         0.0791 
    155 H155      -51.9147  -23.5061    4.9630 H         1 UNK         0.0791 
    156 H156      -52.6239  -22.8012    6.4090 H         1 UNK         0.0791 
    157 H157      -51.0156  -25.7972    5.3772 H         1 UNK         0.3028 
@<TRIPOS>BOND
     1    1    2 1    
     2    1   82 1    
     3    1   83 1    
     4    1   84 1    
     5    2    3 2    
     6    2    4 am   BACKBONE|DICT|INTERRES
     7    4    5 1    
     8    4   85 1    
     9    5    6 1    
    10    5   80 1    
    11    5   86 1    
    12    6    7 1    
    13    6   87 1    
    14    6   88 1    
    15    7    8 1    
    16    8    9 1    
    17    8   89 1    
    18    8   90 1    
    19    9   10 ar   
    20    9   14 ar   
    21   10   11 ar   
    22   10   91 1    
    23   11   12 ar   
    24   11   58 1    
    25   12   13 ar   
    26   12   92 1    
    27   13   14 ar   
    28   13   15 1    
    29   14   93 1    
    30   15   16 1    
    31   15   94 1    
    32   15   95 1    
    33   16   17 1    
    34   17   18 1    
    35   17   96 1    
    36   17   97 1    
    37   18   19 1    
    38   18   22 1    
    39   18   98 1    
    40   19   20 am   BACKBONE|DICT|INTERRES
    41   19   21 2    
    42   20   99 1    
    43   20  100 1    
    44   22   23 am   BACKBONE|DICT|INTERRES
    45   22  101 1    
    46   23   24 2    
    47   23   25 1    
    48   25   26 1    
    49   25   27 1    
    50   25  102 1    
    51   26  103 1    
    52   26  104 1    
    53   26  105 1    
    54   27   28 am   BACKBONE|DICT|INTERRES
    55   27  106 1    
    56   28   29 2    
    57   28   30 1    
    58   30   31 1    
    59   30   32 1    
    60   30  107 1    
    61   31  108 1    
    62   31  109 1    
    63   31  110 1    
    64   32   33 am   BACKBONE|DICT|INTERRES
    65   32  111 1    
    66   33   34 2    
    67   33   35 1    
    68   35   36 1    
    69   35   37 1    
    70   35  112 1    
    71   36  113 1    
    72   36  114 1    
    73   36  115 1    
    74   37   38 am   BACKBONE|DICT|INTERRES
    75   37  116 1    
    76   38   39 2    
    77   38   40 1    
    78   40   41 1    
    79   40   42 1    
    80   40  117 1    
    81   41  118 1    
    82   41  119 1    
    83   41  120 1    
    84   42   43 am   BACKBONE|DICT|INTERRES
    85   42  121 1    
    86   43   44 2    
    87   43   45 1    
    88   45   46 1    
    89   45   47 1    
    90   45  122 1    
    91   46  123 1    
    92   46  124 1    
    93   46  125 1    
    94   47   48 am   BACKBONE|DICT|INTERRES
    95   47  126 1    
    96   48   49 2    
    97   48   50 1    
    98   50   51 1    
    99   50   52 1    
   100   50  127 1    
   101   51  128 1    
   102   51  129 1    
   103   51  130 1    
   104   52   53 am   BACKBONE|DICT|INTERRES
   105   52  131 1    
   106   53   54 2    
   107   53   55 1    
   108   55   56 1    
   109   55   59 1    
   110   55  132 1    
   111   56   57 1    
   112   56  133 1    
   113   56  134 1    
   114   57   58 1    
   115   58  135 1    
   116   58  136 1    
   117   59   60 am   BACKBONE|DICT|INTERRES
   118   59  137 1    
   119   60   61 2    
   120   60   62 1    
   121   62   63 1    
   122   62   64 1    
   123   62  138 1    
   124   63  139 1    
   125   63  140 1    
   126   63  141 1    
   127   64   65 am   BACKBONE|DICT|INTERRES
   128   64  142 1    
   129   65   66 2    
   130   65   67 1    
   131   67   68 1    
   132   67   69 1    
   133   67  143 1    
   134   68  144 1    
   135   68  145 1    
   136   68  146 1    
   137   69   70 am   BACKBONE|DICT|INTERRES
   138   69  147 1    
   139   70   71 2    
   140   70   72 1    
   141   72   73 1    
   142   72   74 1    
   143   72  148 1    
   144   73  149 1    
   145   73  150 1    
   146   73  151 1    
   147   74   75 am   BACKBONE|DICT|INTERRES
   148   74  152 1    
   149   75   76 2    
   150   75   77 1    
   151   77   78 1    
   152   77   79 1    
   153   77  153 1    
   154   78  154 1    
   155   78  155 1    
   156   78  156 1    
   157   79   80 am   BACKBONE|DICT|INTERRES
   158   79  157 1    
   159   80   81 2    
@<TRIPOS>SUBSTRUCTURE
     1 UNK         1 GROUP             0       ****    0 ROOT    
