@<TRIPOS>MOLECULE
3R207
157   159    1
SMALL
USER_CHARGES


@<TRIPOS>ATOM
      1 CA        -52.1443  -31.6561    7.7864 C.3       0 UNK        -0.1975 
      2 C         -51.1752  -30.5713    7.3409 C.2       0 UNK         0.4852 
      3 O         -50.8813  -29.6717    8.1272 O.2       0 UNK        -0.5216 
      4 N         -50.6837  -30.6617    6.0935 N.am      1 UNK        -0.4461 
      5 CA        -49.7534  -29.7733    5.3638 C.3       1 UNK         0.0864 
      6 C6        -50.3659  -28.4707    4.7470 C.3       14 UNK        -0.0898 
      7 S7        -51.8762  -27.7820    5.5074 S.3       14 UNK        -0.2598 
      8 C8        -51.1874  -26.5983    6.7020 C.3       14 UNK         0.0286 
      9 C9        -52.3012  -25.9638    7.5206 C.ar      14 UNK        -0.0844 
     10 C10       -52.8176  -24.7154    7.1651 C.ar      14 UNK        -0.0881 
     11 C11       -53.8291  -24.1230    7.9276 C.ar      14 UNK        -0.0643 
     12 C12       -54.3541  -24.8115    9.0267 C.ar      14 UNK        -0.0930 
     13 C13       -53.8516  -26.0652    9.3934 C.ar      14 UNK        -0.0827 
     14 C14       -52.8132  -26.6264    8.6400 C.ar      14 UNK        -0.1249 
     15 C15       -54.4106  -26.7574   10.6360 C.3       14 UNK         0.0141 
     16 S16       -54.6618  -28.5566   10.4615 S.3       14 UNK        -0.2313 
     17 C17       -53.0435  -29.2172   10.9897 C.3       14 UNK        -0.0915 
     18 CA        -53.1506  -30.2479   12.1416 C.3       13 UNK         0.0968 
     19 C         -51.7673  -30.8964   12.4161 C.2       13 UNK         0.5732 
     20 N         -51.0250  -30.4563   13.4254 N.am      13 UNK        -0.7310 
     21 O         -51.3697  -31.8199   11.7105 O.2       13 UNK        -0.5035 
     22 N         -53.7530  -29.6774   13.3581 N.am      13 UNK        -0.4233 
     23 C         -54.6165  -30.3345   14.1430 C.2       13 UNK         0.4989 
     24 O         -55.0663  -31.4528   13.8828 O.2       13 UNK        -0.4996 
     25 CA        -55.0486  -29.6168   15.4373 C.3       12 UNK         0.0216 
     26 CB        -55.9938  -30.4642   16.3162 C.3       12 UNK        -0.1964 
     27 N         -53.9125  -29.1252   16.2257 N.am      12 UNK        -0.4276 
     28 C         -52.8957  -29.8376   16.7409 C.2       12 UNK         0.5020 
     29 O         -52.8048  -31.0624   16.6514 O.2       12 UNK        -0.5489 
     30 CA        -51.7827  -29.0626   17.4770 C.3       11 UNK         0.0294 
     31 CB        -50.3869  -29.4654   16.9674 C.3       11 UNK        -0.2019 
     32 N         -51.9294  -27.6147   17.3219 N.am      11 UNK        -0.4493 
     33 C         -52.3963  -26.7722   18.2538 C.2       11 UNK         0.4932 
     34 O         -52.6804  -27.1080   19.4033 O.2       11 UNK        -0.5029 
     35 CA        -52.6129  -25.3073   17.8229 C.3       10 UNK         0.0280 
     36 CB        -51.4134  -24.4432   18.2418 C.3       10 UNK        -0.1976 
     37 N         -52.8440  -25.1520   16.3819 N.am      10 UNK        -0.4242 
     38 C         -53.9010  -25.6554   15.7227 C.2       10 UNK         0.5072 
     39 O         -54.8294  -26.2433   16.2763 O.2       10 UNK        -0.5224 
     40 CA        -53.8883  -25.5791   14.1861 C.3       9 UNK         0.0343 
     41 CB        -54.6975  -24.3687   13.6984 C.3       9 UNK        -0.2003 
     42 N         -52.5343  -25.5325   13.6264 N.am      9 UNK        -0.4272 
     43 C         -51.6268  -26.5161   13.7453 C.2       9 UNK         0.4988 
     44 O         -51.8907  -27.6146   14.2392 O.2       9 UNK        -0.5108 
     45 CA        -50.1823  -26.2380   13.2878 C.3       8 UNK         0.0248 
     46 CB        -49.8259  -27.0959   12.0660 C.3       8 UNK        -0.2001 
     47 N         -49.9051  -24.8300   12.9875 N.am      8 UNK        -0.4140 
     48 C         -49.9129  -23.8323   13.8880 C.2       8 UNK         0.5028 
     49 O         -50.1144  -24.0077   15.0903 O.2       8 UNK        -0.5428 
     50 CA        -49.7476  -22.3937   13.3572 C.3       7 UNK         0.0264 
     51 CB        -48.2919  -21.9266   13.5018 C.3       7 UNK        -0.1988 
     52 N         -50.1785  -22.2424   11.9626 N.am      7 UNK        -0.4454 
     53 C         -51.4374  -22.4431   11.5402 C.2       7 UNK         0.5027 
     54 O         -52.3769  -22.6340   12.3121 O.2       7 UNK        -0.5083 
     55 CA        -51.6991  -22.5330   10.0224 C.3       6 UNK         0.0844 
     56 C56       -52.6771  -21.4315    9.5373 C.3       14 UNK        -0.0967 
     57 S57       -53.0006  -21.4725    7.7364 S.3       14 UNK        -0.2604 
     58 C58       -54.3235  -22.7228    7.5882 C.3       14 UNK         0.0134 
     59 N         -50.4916  -22.6414    9.1960 N.am      6 UNK        -0.4116 
     60 C         -49.6591  -23.6904    9.2001 C.2       5 UNK         0.5034 
     61 O         -49.7511  -24.6238   10.0000 O.2       5 UNK        -0.5045 
     62 CA        -48.5289  -23.7102    8.1550 C.3       5 UNK         0.0224 
     63 CB        -48.3206  -22.3748    7.4042 C.3       5 UNK        -0.1978 
     64 N         -47.2740  -24.1830    8.7448 N.am      5 UNK        -0.4737 
     65 C         -46.5978  -23.6275    9.7633 C.2       4 UNK         0.5027 
     66 O         -46.9229  -22.5676   10.2998 O.2       4 UNK        -0.5211 
     67 CA        -45.3657  -24.3839   10.3017 C.3       4 UNK         0.0297 
     68 CB        -45.6532  -24.9337   11.7096 C.3       4 UNK        -0.1993 
     69 N         -44.9388  -25.4931    9.4453 N.am      4 UNK        -0.4486 
     70 C         -44.3275  -25.3674    8.2592 C.2       3 UNK         0.4961 
     71 O         -43.9463  -24.2927    7.7954 O.2       3 UNK        -0.5105 
     72 CA        -44.1323  -26.6565    7.4370 C.3       3 UNK         0.0299 
     73 CB        -42.6862  -27.1617    7.5678 C.3       3 UNK        -0.1972 
     74 N         -45.0574  -27.7424    7.7903 N.am      3 UNK        -0.4305 
     75 C         -46.3894  -27.7043    7.6400 C.2       2 UNK         0.5006 
     76 O         -47.0067  -26.7256    7.2132 O.2       2 UNK        -0.5106 
     77 CA        -47.1598  -28.9418    8.1288 C.3       2 UNK         0.0296 
     78 CB        -47.6006  -28.7394    9.5870 C.3       2 UNK        -0.2002 
     79 N         -48.3476  -29.2239    7.3240 N.am      2 UNK        -0.4032 
     80 C         -48.3746  -29.5265    6.0229 C.2       1 UNK         0.5000 
     81 O         -47.3578  -29.6380    5.3338 O.2       1 UNK        -0.5238 
     82 H82       -52.2684  -32.4316    7.0310 H         1 UNK         0.0889 
     83 H83       -53.1215  -31.2194    7.9910 H         1 UNK         0.0889 
     84 H84       -51.7843  -32.1261    8.7015 H         1 UNK         0.0889 
     85 H85       -50.9825  -31.4558    5.5446 H         1 UNK         0.3028 
     86 H86       -49.4932  -30.3912    4.5020 H         1 UNK         0.0864 
     87 H87       -49.6239  -27.6732    4.6657 H         1 UNK         0.0720 
     88 H88       -50.6404  -28.6843    3.7127 H         1 UNK         0.0720 
     89 H89       -50.6181  -25.8345    6.1706 H         1 UNK         0.0814 
     90 H90       -50.4835  -27.1046    7.3642 H         1 UNK         0.0814 
     91 H91       -52.4160  -24.1890    6.3101 H         1 UNK         0.1469 
     92 H92       -55.1349  -24.3533    9.6182 H         1 UNK         0.1381 
     93 H93       -52.3998  -27.5864    8.9116 H         1 UNK         0.1206 
     94 H94       -55.3731  -26.3197   10.9047 H         1 UNK         0.0813 
     95 H95       -53.7446  -26.5593   11.4715 H         1 UNK         0.0813 
     96 H96       -52.5915  -29.6840   10.1145 H         1 UNK         0.0638 
     97 H97       -52.3795  -28.4004   11.2724 H         1 UNK         0.0638 
     98 H98       -53.7891  -31.0536   11.7743 H         1 UNK         0.0568 
     99 H99       -50.1357  -30.8917   13.6072 H         1 UNK         0.3450 
    100 H100      -51.3300  -29.6652   13.9740 H         1 UNK         0.3450 
    101 H101      -53.3564  -28.8015   13.6789 H         1 UNK         0.2987 
    102 H102      -55.6052  -28.7336   15.1201 H         1 UNK         0.0766 
    103 H103      -55.5180  -31.3859   16.6527 H         1 UNK         0.0798 
    104 H104      -56.3153  -29.9113   17.1988 H         1 UNK         0.0798 
    105 H105      -56.8927  -30.7447   15.7656 H         1 UNK         0.0798 
    106 H106      -53.9150  -28.1248   16.3881 H         1 UNK         0.3198 
    107 H107      -51.8510  -29.3397   18.5311 H         1 UNK         0.0843 
    108 H108      -50.2242  -30.5397   17.0639 H         1 UNK         0.0831 
    109 H109      -49.6017  -28.9700   17.5385 H         1 UNK         0.0831 
    110 H110      -50.2485  -29.2058   15.9179 H         1 UNK         0.0831 
    111 H111      -51.7406  -27.2565   16.3937 H         1 UNK         0.3133 
    112 H112      -53.4990  -24.9383   18.3437 H         1 UNK         0.0566 
    113 H113      -51.5736  -23.3933   17.9958 H         1 UNK         0.0814 
    114 H114      -51.2465  -24.5018   19.3183 H         1 UNK         0.0814 
    115 H115      -50.4936  -24.7649   17.7513 H         1 UNK         0.0814 
    116 H116      -52.1069  -24.6983   15.8533 H         1 UNK         0.3091 
    117 H117      -54.3724  -26.4837   13.8129 H         1 UNK         0.0702 
    118 H118      -54.7192  -24.3138   12.6099 H         1 UNK         0.0785 
    119 H119      -54.2841  -23.4309   14.0718 H         1 UNK         0.0785 
    120 H120      -55.7315  -24.4277   14.0411 H         1 UNK         0.0785 
    121 H121      -52.2543  -24.6548   13.2049 H         1 UNK         0.2998 
    122 H122      -49.5281  -26.5335   14.1103 H         1 UNK         0.0697 
    123 H123      -50.4661  -26.8721   11.2116 H         1 UNK         0.0825 
    124 H124      -49.9300  -28.1587   12.2831 H         1 UNK         0.0825 
    125 H125      -48.7928  -26.9295   11.7635 H         1 UNK         0.0825 
    126 H126      -49.7637  -24.6064   12.0060 H         1 UNK         0.3029 
    127 H127      -50.3768  -21.7468   13.9726 H         1 UNK         0.0897 
    128 H128      -48.1734  -20.8891   13.1888 H         1 UNK         0.0792 
    129 H129      -47.9629  -21.9918   14.5399 H         1 UNK         0.0792 
    130 H130      -47.6131  -22.5361   12.9063 H         1 UNK         0.0792 
    131 H131      -49.4510  -22.1141   11.2718 H         1 UNK         0.3086 
    132 H132      -52.2080  -23.4882    9.9132 H         1 UNK         0.0583 
    133 H133      -53.6294  -21.5075   10.0662 H         1 UNK         0.1020 
    134 H134      -52.2790  -20.4440    9.7785 H         1 UNK         0.1020 
    135 H135      -55.1631  -22.4355    8.2231 H         1 UNK         0.0694 
    136 H136      -54.6974  -22.7196    6.5636 H         1 UNK         0.0694 
    137 H137      -50.3522  -21.9088    8.5160 H         1 UNK         0.2989 
    138 H138      -48.8171  -24.4633    7.4201 H         1 UNK         0.1055 
    139 H139      -47.4929  -22.4511    6.6988 H         1 UNK         0.0806 
    140 H140      -48.0974  -21.5505    8.0827 H         1 UNK         0.0806 
    141 H141      -49.2032  -22.1021    6.8241 H         1 UNK         0.0806 
    142 H142      -46.9505  -25.0738    8.3812 H         1 UNK         0.3061 
    143 H143      -44.5451  -23.6667   10.3711 H         1 UNK         0.0734 
    144 H144      -45.8908  -24.1259   12.4022 H         1 UNK         0.0832 
    145 H145      -46.4998  -25.6217   11.7104 H         1 UNK         0.0832 
    146 H146      -44.7896  -25.4591   12.1175 H         1 UNK         0.0832 
    147 H147      -45.1977  -26.4211    9.7449 H         1 UNK         0.3156 
    148 H148      -44.3109  -26.4009    6.3904 H         1 UNK         0.0589 
    149 H149      -42.4515  -27.4566    8.5914 H         1 UNK         0.0808 
    150 H150      -42.5037  -28.0189    6.9193 H         1 UNK         0.0808 
    151 H151      -41.9743  -26.3859    7.2817 H         1 UNK         0.0808 
    152 H152      -44.6381  -28.5829    8.1632 H         1 UNK         0.3098 
    153 H153      -46.5060  -29.8143    8.0713 H         1 UNK         0.0720 
    154 H154      -48.1243  -29.6155    9.9707 H         1 UNK         0.0791 
    155 H155      -48.2726  -27.8849    9.6763 H         1 UNK         0.0791 
    156 H156      -46.7470  -28.5590   10.2414 H         1 UNK         0.0791 
    157 H157      -49.2499  -29.2018    7.8001 H         1 UNK         0.3028 
@<TRIPOS>BOND
     1    1    2 1    
     2    1   82 1    
     3    1   83 1    
     4    1   84 1    
     5    2    3 2    
     6    2    4 am   BACKBONE|DICT|INTERRES
     7    4    5 1    
     8    4   85 1    
     9    5    6 1    
    10    5   80 1    
    11    5   86 1    
    12    6    7 1    
    13    6   87 1    
    14    6   88 1    
    15    7    8 1    
    16    8    9 1    
    17    8   89 1    
    18    8   90 1    
    19    9   10 ar   
    20    9   14 ar   
    21   10   11 ar   
    22   10   91 1    
    23   11   12 ar   
    24   11   58 1    
    25   12   13 ar   
    26   12   92 1    
    27   13   14 ar   
    28   13   15 1    
    29   14   93 1    
    30   15   16 1    
    31   15   94 1    
    32   15   95 1    
    33   16   17 1    
    34   17   18 1    
    35   17   96 1    
    36   17   97 1    
    37   18   19 1    
    38   18   22 1    
    39   18   98 1    
    40   19   20 am   BACKBONE|DICT|INTERRES
    41   19   21 2    
    42   20   99 1    
    43   20  100 1    
    44   22   23 am   BACKBONE|DICT|INTERRES
    45   22  101 1    
    46   23   24 2    
    47   23   25 1    
    48   25   26 1    
    49   25   27 1    
    50   25  102 1    
    51   26  103 1    
    52   26  104 1    
    53   26  105 1    
    54   27   28 am   BACKBONE|DICT|INTERRES
    55   27  106 1    
    56   28   29 2    
    57   28   30 1    
    58   30   31 1    
    59   30   32 1    
    60   30  107 1    
    61   31  108 1    
    62   31  109 1    
    63   31  110 1    
    64   32   33 am   BACKBONE|DICT|INTERRES
    65   32  111 1    
    66   33   34 2    
    67   33   35 1    
    68   35   36 1    
    69   35   37 1    
    70   35  112 1    
    71   36  113 1    
    72   36  114 1    
    73   36  115 1    
    74   37   38 am   BACKBONE|DICT|INTERRES
    75   37  116 1    
    76   38   39 2    
    77   38   40 1    
    78   40   41 1    
    79   40   42 1    
    80   40  117 1    
    81   41  118 1    
    82   41  119 1    
    83   41  120 1    
    84   42   43 am   BACKBONE|DICT|INTERRES
    85   42  121 1    
    86   43   44 2    
    87   43   45 1    
    88   45   46 1    
    89   45   47 1    
    90   45  122 1    
    91   46  123 1    
    92   46  124 1    
    93   46  125 1    
    94   47   48 am   BACKBONE|DICT|INTERRES
    95   47  126 1    
    96   48   49 2    
    97   48   50 1    
    98   50   51 1    
    99   50   52 1    
   100   50  127 1    
   101   51  128 1    
   102   51  129 1    
   103   51  130 1    
   104   52   53 am   BACKBONE|DICT|INTERRES
   105   52  131 1    
   106   53   54 2    
   107   53   55 1    
   108   55   56 1    
   109   55   59 1    
   110   55  132 1    
   111   56   57 1    
   112   56  133 1    
   113   56  134 1    
   114   57   58 1    
   115   58  135 1    
   116   58  136 1    
   117   59   60 am   BACKBONE|DICT|INTERRES
   118   59  137 1    
   119   60   61 2    
   120   60   62 1    
   121   62   63 1    
   122   62   64 1    
   123   62  138 1    
   124   63  139 1    
   125   63  140 1    
   126   63  141 1    
   127   64   65 am   BACKBONE|DICT|INTERRES
   128   64  142 1    
   129   65   66 2    
   130   65   67 1    
   131   67   68 1    
   132   67   69 1    
   133   67  143 1    
   134   68  144 1    
   135   68  145 1    
   136   68  146 1    
   137   69   70 am   BACKBONE|DICT|INTERRES
   138   69  147 1    
   139   70   71 2    
   140   70   72 1    
   141   72   73 1    
   142   72   74 1    
   143   72  148 1    
   144   73  149 1    
   145   73  150 1    
   146   73  151 1    
   147   74   75 am   BACKBONE|DICT|INTERRES
   148   74  152 1    
   149   75   76 2    
   150   75   77 1    
   151   77   78 1    
   152   77   79 1    
   153   77  153 1    
   154   78  154 1    
   155   78  155 1    
   156   78  156 1    
   157   79   80 am   BACKBONE|DICT|INTERRES
   158   79  157 1    
   159   80   81 2    
@<TRIPOS>SUBSTRUCTURE
     1 UNK         1 GROUP             0       ****    0 ROOT    
