@<TRIPOS>MOLECULE
3R207
157   159    1
SMALL
USER_CHARGES


@<TRIPOS>ATOM
      1 CA        -49.0816  -29.8558    3.4657 C.3       0 UNK        -0.1975 
      2 C         -48.6447  -28.7709    4.4392 C.2       0 UNK         0.4852 
      3 O         -47.9052  -27.8644    4.0533 O.2       0 UNK        -0.5216 
      4 N         -49.1045  -28.8535    5.6932 N.am      1 UNK        -0.4461 
      5 CA        -48.7309  -27.9537    6.7879 C.3       1 UNK         0.0864 
      6 C6        -49.8298  -27.8664    7.8804 C.3       14 UNK        -0.0898 
      7 S7        -50.5254  -29.4649    8.4295 S.3       14 UNK        -0.2598 
      8 C8        -52.1390  -29.4919    7.5766 C.3       14 UNK         0.0286 
      9 C9        -53.0888  -28.4215    8.0982 C.ar      14 UNK        -0.0844 
     10 C10       -53.2878  -27.2406    7.3772 C.ar      14 UNK        -0.0881 
     11 C11       -54.1325  -26.2425    7.8678 C.ar      14 UNK        -0.0643 
     12 C12       -54.8149  -26.4511    9.0707 C.ar      14 UNK        -0.0930 
     13 C13       -54.6520  -27.6403    9.7897 C.ar      14 UNK        -0.0827 
     14 C14       -53.7755  -28.6159    9.2996 C.ar      14 UNK        -0.1249 
     15 C15       -55.4025  -27.8291   11.1063 C.3       14 UNK         0.0141 
     16 S16       -56.2200  -29.4490   11.2738 S.3       14 UNK        -0.2313 
     17 C17       -54.9190  -30.4407   12.0875 C.3       14 UNK        -0.0915 
     18 CA        -55.3202  -30.9027   13.5144 C.3       13 UNK         0.0968 
     19 C         -54.3384  -31.9697   14.0844 C.2       13 UNK         0.5732 
     20 N         -53.9363  -31.9137   15.3491 N.am      13 UNK        -0.7310 
     21 O         -53.9430  -32.8883   13.3703 O.2       13 UNK        -0.5035 
     22 N         -55.5206  -29.7617   14.4237 N.am      13 UNK        -0.4233 
     23 C         -56.5460  -29.6402   15.2763 C.2       13 UNK         0.4989 
     24 O         -57.4922  -30.4291   15.3255 O.2       13 UNK        -0.4996 
     25 CA        -56.4976  -28.4433   16.2502 C.3       12 UNK         0.0216 
     26 CB        -57.5134  -28.5684   17.4055 C.3       12 UNK        -0.1964 
     27 N         -55.1562  -28.1712   16.7830 N.am      12 UNK        -0.4276 
     28 C         -54.3420  -29.0234   17.4285 C.2       12 UNK         0.5020 
     29 O         -54.6398  -30.1936   17.6710 O.2       12 UNK        -0.5489 
     30 CA        -52.9445  -28.5168   17.8377 C.3       11 UNK         0.0294 
     31 CB        -51.8469  -29.4584   17.3093 C.3       11 UNK        -0.2019 
     32 N         -52.6781  -27.1682   17.3366 N.am      11 UNK        -0.4493 
     33 C         -52.8445  -26.0319   18.0268 C.2       11 UNK         0.4932 
     34 O         -53.1616  -25.9900   19.2152 O.2       11 UNK        -0.5029 
     35 CA        -52.6567  -24.7152   17.2482 C.3       10 UNK         0.0280 
     36 CB        -51.2449  -24.1527   17.4753 C.3       10 UNK        -0.1976 
     37 N         -52.9028  -24.8628   15.8084 N.am      10 UNK        -0.4242 
     38 C         -54.1097  -25.1180   15.2750 C.2       10 UNK         0.5072 
     39 O         -55.1423  -25.1931   15.9405 O.2       10 UNK        -0.5224 
     40 CA        -54.1782  -25.4279   13.7694 C.3       9 UNK         0.0343 
     41 CB        -54.4900  -24.1594   12.9627 C.3       9 UNK        -0.2003 
     42 N         -52.9542  -26.0536   13.2619 N.am      9 UNK        -0.4272 
     43 C         -52.5121  -27.2642   13.6417 C.2       9 UNK         0.4988 
     44 O         -53.1709  -28.0228   14.3539 O.2       9 UNK        -0.5108 
     45 CA        -51.1023  -27.7034   13.2011 C.3       8 UNK         0.0248 
     46 CB        -51.1839  -28.8415   12.1732 C.3       8 UNK        -0.2001 
     47 N         -50.2731  -26.6266   12.6557 N.am      8 UNK        -0.4140 
     48 C         -49.8735  -25.5310   13.3181 C.2       8 UNK         0.5028 
     49 O         -50.1442  -25.3070   14.4982 O.2       8 UNK        -0.5428 
     50 CA        -49.1073  -24.4792   12.4986 C.3       7 UNK         0.0264 
     51 CB        -47.5952  -24.7314   12.5827 C.3       7 UNK        -0.1988 
     52 N         -49.5139  -24.4390   11.0889 N.am      7 UNK        -0.4454 
     53 C         -50.7380  -24.1276   10.6401 C.2       7 UNK         0.5027 
     54 O         -51.6657  -23.8380   11.3966 O.2       7 UNK        -0.5083 
     55 CA        -50.9747  -24.1807    9.1098 C.3       6 UNK         0.0844 
     56 C56       -52.3738  -23.6366    8.7141 C.3       14 UNK        -0.0967 
     57 S57       -52.7701  -23.9758    6.9637 S.3       14 UNK        -0.2604 
     58 C58       -54.3133  -24.9421    7.0942 C.3       14 UNK         0.0134 
     59 N         -49.9088  -23.5249    8.3367 N.am      6 UNK        -0.4116 
     60 C         -48.6605  -23.9715    8.1483 C.2       5 UNK         0.5034 
     61 O         -48.2310  -25.0116    8.6517 O.2       5 UNK        -0.5045 
     62 CA        -47.7211  -23.1453    7.2518 C.3       5 UNK         0.0224 
     63 CB        -48.3307  -21.8298    6.7134 C.3       5 UNK        -0.1978 
     64 N         -46.4297  -22.9070    7.9083 N.am      5 UNK        -0.4737 
     65 C         -46.1978  -22.1926    9.0209 C.2       4 UNK         0.5027 
     66 O         -47.0807  -21.6041    9.6461 O.2       4 UNK        -0.5211 
     67 CA        -44.7388  -22.1216    9.5211 C.3       4 UNK         0.0297 
     68 CB        -44.6492  -21.9149   11.0449 C.3       4 UNK        -0.1993 
     69 N         -43.9802  -23.3222    9.1627 N.am      4 UNK        -0.4486 
     70 C         -43.1245  -23.4342    8.1377 C.2       3 UNK         0.4961 
     71 O         -42.8127  -22.5012    7.3977 O.2       3 UNK        -0.5105 
     72 CA        -42.5395  -24.8371    7.8707 C.3       3 UNK         0.0299 
     73 CB        -41.1476  -24.9668    8.5101 C.3       3 UNK        -0.1972 
     74 N         -43.3931  -25.9390    8.3380 N.am      3 UNK        -0.4305 
     75 C         -44.6339  -26.1845    7.8928 C.2       2 UNK         0.5006 
     76 O         -45.1702  -25.5276    6.9957 O.2       2 UNK        -0.5106 
     77 CA        -45.4086  -27.3113    8.5991 C.3       2 UNK         0.0296 
     78 CB        -45.4718  -27.0757   10.1203 C.3       2 UNK        -0.2002 
     79 N         -46.7760  -27.3316    8.0904 N.am      2 UNK        -0.4032 
     80 C         -47.3411  -28.2985    7.3633 C.2       1 UNK         0.5000 
     81 O         -46.8181  -29.3954    7.1417 O.2       1 UNK        -0.5238 
     82 H82       -49.6060  -29.4120    2.6198 H         1 UNK         0.0889 
     83 H83       -49.7469  -30.5808    3.9344 H         1 UNK         0.0889 
     84 H84       -48.2115  -30.3904    3.0855 H         1 UNK         0.0889 
     85 H85       -49.6639  -29.6469    5.9710 H         1 UNK         0.3028 
     86 H86       -48.6341  -26.9508    6.3643 H         1 UNK         0.0864 
     87 H87       -49.4667  -27.3461    8.7675 H         1 UNK         0.0720 
     88 H88       -50.6309  -27.2359    7.5022 H         1 UNK         0.0720 
     89 H89       -52.5925  -30.4744    7.7157 H         1 UNK         0.0814 
     90 H90       -51.9861  -29.3794    6.5023 H         1 UNK         0.0814 
     91 H91       -52.7676  -27.0827    6.4422 H         1 UNK         0.1469 
     92 H92       -55.4745  -25.6821    9.4490 H         1 UNK         0.1381 
     93 H93       -53.6205  -29.5330    9.8481 H         1 UNK         0.1206 
     94 H94       -54.7116  -27.6893   11.9316 H         1 UNK         0.0813 
     95 H95       -56.1679  -27.0599   11.2184 H         1 UNK         0.0813 
     96 H96       -54.7308  -31.2991   11.4405 H         1 UNK         0.0638 
     97 H97       -53.9857  -29.8805   12.1259 H         1 UNK         0.0638 
     98 H98       -56.2636  -31.4404   13.4071 H         1 UNK         0.0568 
     99 H99       -54.2888  -31.2113   15.9899 H         1 UNK         0.3450 
    100 H100      -53.3086  -32.6241   15.6885 H         1 UNK         0.3450 
    101 H101      -54.7517  -29.0982   14.4711 H         1 UNK         0.2987 
    102 H102      -56.7742  -27.5675   15.6614 H         1 UNK         0.0766 
    103 H103      -57.3201  -29.4495   18.0185 H         1 UNK         0.0798 
    104 H104      -57.4828  -27.6941   18.0559 H         1 UNK         0.0798 
    105 H105      -58.5326  -28.6517   17.0261 H         1 UNK         0.0798 
    106 H106      -54.8213  -27.2285   16.6254 H         1 UNK         0.3198 
    107 H107      -52.9045  -28.5237   18.9290 H         1 UNK         0.0843 
    108 H108      -51.9619  -30.4631   17.7182 H         1 UNK         0.0831 
    109 H109      -50.8537  -29.1091   17.5916 H         1 UNK         0.0831 
    110 H110      -51.8764  -29.5462   16.2225 H         1 UNK         0.0831 
    111 H111      -52.4403  -27.1052   16.3558 H         1 UNK         0.3133 
    112 H112      -53.3766  -23.9935   17.6400 H         1 UNK         0.0566 
    113 H113      -51.1035  -23.2070   16.9519 H         1 UNK         0.0814 
    114 H114      -51.0661  -23.9665   18.5352 H         1 UNK         0.0814 
    115 H115      -50.4741  -24.8442   17.1330 H         1 UNK         0.0814 
    116 H116      -52.0847  -24.8567   15.2067 H         1 UNK         0.3091 
    117 H117      -55.0017  -26.1294   13.6254 H         1 UNK         0.0702 
    118 H118      -54.5700  -24.3758   11.8971 H         1 UNK         0.0785 
    119 H119      -53.7194  -23.3987   13.0935 H         1 UNK         0.0785 
    120 H120      -55.4376  -23.7206   13.2776 H         1 UNK         0.0785 
    121 H121      -52.3687  -25.4771   12.6685 H         1 UNK         0.2998 
    122 H122      -50.5968  -28.0840   14.0909 H         1 UNK         0.0697 
    123 H123      -51.7140  -28.5328   11.2720 H         1 UNK         0.0825 
    124 H124      -51.7067  -29.7040   12.5875 H         1 UNK         0.0825 
    125 H125      -50.1927  -29.1848   11.8763 H         1 UNK         0.0825 
    126 H126      -50.0066  -26.7111   11.6861 H         1 UNK         0.3029 
    127 H127      -49.3212  -23.5004   12.9333 H         1 UNK         0.0897 
    128 H128      -47.0400  -23.9926   12.0062 H         1 UNK         0.0792 
    129 H129      -47.2471  -24.6686   13.6147 H         1 UNK         0.0792 
    130 H130      -47.3307  -25.7211   12.2096 H         1 UNK         0.0792 
    131 H131      -48.8123  -24.6748   10.3915 H         1 UNK         0.3086 
    132 H132      -50.9600  -25.2414    8.8541 H         1 UNK         0.0583 
    133 H133      -53.1524  -24.0753    9.3403 H         1 UNK         0.1020 
    134 H134      -52.4302  -22.5602    8.8855 H         1 UNK         0.1020 
    135 H135      -55.0823  -24.3187    7.5532 H         1 UNK         0.0694 
    136 H136      -54.6683  -25.1744    6.0892 H         1 UNK         0.0694 
    137 H137      -50.1660  -22.6525    7.8997 H         1 UNK         0.2989 
    138 H138      -47.5062  -23.7817    6.3915 H         1 UNK         0.1055 
    139 H139      -47.6205  -21.3064    6.0730 H         1 UNK         0.0806 
    140 H140      -48.6156  -21.1448    7.5127 H         1 UNK         0.0806 
    141 H141      -49.2169  -22.0224    6.1069 H         1 UNK         0.0806 
    142 H142      -45.6541  -23.4264    7.5137 H         1 UNK         0.3061 
    143 H143      -44.2933  -21.2459    9.0446 H         1 UNK         0.0734 
    144 H144      -45.1669  -21.0052   11.3522 H         1 UNK         0.0832 
    145 H145      -45.0921  -22.7453   11.5937 H         1 UNK         0.0832 
    146 H146      -43.6130  -21.8163   11.3687 H         1 UNK         0.0832 
    147 H147      -44.1794  -24.1528    9.7008 H         1 UNK         0.3156 
    148 H148      -42.4290  -24.9421    6.7894 H         1 UNK         0.0589 
    149 H149      -41.1931  -24.8943    9.5975 H         1 UNK         0.0808 
    150 H150      -40.6792  -25.9176    8.2547 H         1 UNK         0.0808 
    151 H151      -40.4821  -24.1767    8.1591 H         1 UNK         0.0808 
    152 H152      -43.0118  -26.5281    9.0647 H         1 UNK         0.3098 
    153 H153      -44.9033  -28.2574    8.3953 H         1 UNK         0.0720 
    154 H154      -46.1159  -27.8093   10.6060 H         1 UNK         0.0791 
    155 H155      -45.8627  -26.0849   10.3543 H         1 UNK         0.0791 
    156 H156      -44.4886  -27.1620   10.5836 H         1 UNK         0.0791 
    157 H157      -47.2810  -26.4531    8.2031 H         1 UNK         0.3028 
@<TRIPOS>BOND
     1    1    2 1    
     2    1   82 1    
     3    1   83 1    
     4    1   84 1    
     5    2    3 2    
     6    2    4 am   BACKBONE|DICT|INTERRES
     7    4    5 1    
     8    4   85 1    
     9    5    6 1    
    10    5   80 1    
    11    5   86 1    
    12    6    7 1    
    13    6   87 1    
    14    6   88 1    
    15    7    8 1    
    16    8    9 1    
    17    8   89 1    
    18    8   90 1    
    19    9   10 ar   
    20    9   14 ar   
    21   10   11 ar   
    22   10   91 1    
    23   11   12 ar   
    24   11   58 1    
    25   12   13 ar   
    26   12   92 1    
    27   13   14 ar   
    28   13   15 1    
    29   14   93 1    
    30   15   16 1    
    31   15   94 1    
    32   15   95 1    
    33   16   17 1    
    34   17   18 1    
    35   17   96 1    
    36   17   97 1    
    37   18   19 1    
    38   18   22 1    
    39   18   98 1    
    40   19   20 am   BACKBONE|DICT|INTERRES
    41   19   21 2    
    42   20   99 1    
    43   20  100 1    
    44   22   23 am   BACKBONE|DICT|INTERRES
    45   22  101 1    
    46   23   24 2    
    47   23   25 1    
    48   25   26 1    
    49   25   27 1    
    50   25  102 1    
    51   26  103 1    
    52   26  104 1    
    53   26  105 1    
    54   27   28 am   BACKBONE|DICT|INTERRES
    55   27  106 1    
    56   28   29 2    
    57   28   30 1    
    58   30   31 1    
    59   30   32 1    
    60   30  107 1    
    61   31  108 1    
    62   31  109 1    
    63   31  110 1    
    64   32   33 am   BACKBONE|DICT|INTERRES
    65   32  111 1    
    66   33   34 2    
    67   33   35 1    
    68   35   36 1    
    69   35   37 1    
    70   35  112 1    
    71   36  113 1    
    72   36  114 1    
    73   36  115 1    
    74   37   38 am   BACKBONE|DICT|INTERRES
    75   37  116 1    
    76   38   39 2    
    77   38   40 1    
    78   40   41 1    
    79   40   42 1    
    80   40  117 1    
    81   41  118 1    
    82   41  119 1    
    83   41  120 1    
    84   42   43 am   BACKBONE|DICT|INTERRES
    85   42  121 1    
    86   43   44 2    
    87   43   45 1    
    88   45   46 1    
    89   45   47 1    
    90   45  122 1    
    91   46  123 1    
    92   46  124 1    
    93   46  125 1    
    94   47   48 am   BACKBONE|DICT|INTERRES
    95   47  126 1    
    96   48   49 2    
    97   48   50 1    
    98   50   51 1    
    99   50   52 1    
   100   50  127 1    
   101   51  128 1    
   102   51  129 1    
   103   51  130 1    
   104   52   53 am   BACKBONE|DICT|INTERRES
   105   52  131 1    
   106   53   54 2    
   107   53   55 1    
   108   55   56 1    
   109   55   59 1    
   110   55  132 1    
   111   56   57 1    
   112   56  133 1    
   113   56  134 1    
   114   57   58 1    
   115   58  135 1    
   116   58  136 1    
   117   59   60 am   BACKBONE|DICT|INTERRES
   118   59  137 1    
   119   60   61 2    
   120   60   62 1    
   121   62   63 1    
   122   62   64 1    
   123   62  138 1    
   124   63  139 1    
   125   63  140 1    
   126   63  141 1    
   127   64   65 am   BACKBONE|DICT|INTERRES
   128   64  142 1    
   129   65   66 2    
   130   65   67 1    
   131   67   68 1    
   132   67   69 1    
   133   67  143 1    
   134   68  144 1    
   135   68  145 1    
   136   68  146 1    
   137   69   70 am   BACKBONE|DICT|INTERRES
   138   69  147 1    
   139   70   71 2    
   140   70   72 1    
   141   72   73 1    
   142   72   74 1    
   143   72  148 1    
   144   73  149 1    
   145   73  150 1    
   146   73  151 1    
   147   74   75 am   BACKBONE|DICT|INTERRES
   148   74  152 1    
   149   75   76 2    
   150   75   77 1    
   151   77   78 1    
   152   77   79 1    
   153   77  153 1    
   154   78  154 1    
   155   78  155 1    
   156   78  156 1    
   157   79   80 am   BACKBONE|DICT|INTERRES
   158   79  157 1    
   159   80   81 2    
@<TRIPOS>SUBSTRUCTURE
     1 UNK         1 GROUP             0       ****    0 ROOT    
