@<TRIPOS>MOLECULE
3R207
157   159    1
SMALL
USER_CHARGES


@<TRIPOS>ATOM
      1 CA        -49.4477  -27.8185    4.0240 C.3       0 UNK        -0.1975 
      2 C         -49.3755  -28.1390    5.5139 C.2       0 UNK         0.4852 
      3 O         -49.2513  -29.3089    5.8702 O.2       0 UNK        -0.5216 
      4 N         -49.4449  -27.1525    6.4159 N.am      1 UNK        -0.4461 
      5 CA        -49.5275  -25.7095    6.1682 C.3       1 UNK         0.0864 
      6 C6        -50.9064  -25.1230    6.5622 C.3       14 UNK        -0.0898 
      7 S7        -52.2879  -25.7883    5.5723 S.3       14 UNK        -0.2598 
      8 C8        -53.6734  -25.7447    6.7705 C.3       14 UNK         0.0286 
      9 C9        -53.4998  -26.6027    8.0268 C.ar      14 UNK        -0.0844 
     10 C10       -52.5938  -27.6680    8.0849 C.ar      14 UNK        -0.0881 
     11 C11       -52.4215  -28.3990    9.2608 C.ar      14 UNK        -0.0643 
     12 C12       -53.1955  -28.0941   10.3820 C.ar      14 UNK        -0.0930 
     13 C13       -54.1332  -27.0586   10.3324 C.ar      14 UNK        -0.0827 
     14 C14       -54.2728  -26.3130    9.1570 C.ar      14 UNK        -0.1249 
     15 C15       -54.9902  -26.7421   11.5515 C.3       14 UNK         0.0141 
     16 S16       -56.7285  -27.2398   11.3134 S.3       14 UNK        -0.2313 
     17 C17       -56.5828  -29.0480   11.1017 C.3       14 UNK        -0.0915 
     18 CA        -57.3419  -29.8698   12.1737 C.3       13 UNK         0.0968 
     19 C         -57.1671  -31.3908   11.8874 C.2       13 UNK         0.5732 
     20 N         -56.3032  -32.1032   12.6043 N.am      13 UNK        -0.7310 
     21 O         -57.8270  -31.9286   11.0014 O.2       13 UNK        -0.5035 
     22 N         -56.9566  -29.4803   13.5370 N.am      13 UNK        -0.4233 
     23 C         -57.5731  -29.8894   14.6517 C.2       13 UNK         0.4989 
     24 O         -58.6599  -30.4707   14.6488 O.2       13 UNK        -0.4996 
     25 CA        -56.8661  -29.6207   15.9980 C.3       12 UNK         0.0216 
     26 CB        -56.9550  -30.8447   16.9335 C.3       12 UNK        -0.1964 
     27 N         -55.4688  -29.1651   15.9076 N.am      12 UNK        -0.4276 
     28 C         -54.4201  -29.7637   15.3256 C.2       12 UNK         0.5020 
     29 O         -54.5163  -30.8001   14.6637 O.2       12 UNK        -0.5489 
     30 CA        -53.0419  -29.0804   15.4944 C.3       11 UNK         0.0294 
     31 CB        -51.9668  -29.7173   14.5951 C.3       11 UNK        -0.2019 
     32 N         -53.0322  -27.6277   15.2671 N.am      11 UNK        -0.4493 
     33 C         -53.5879  -26.6900   16.0475 C.2       11 UNK         0.4932 
     34 O         -54.2830  -26.9422   17.0338 O.2       11 UNK        -0.5029 
     35 CA        -53.2876  -25.2324   15.6618 C.3       10 UNK         0.0280 
     36 CB        -54.0291  -24.2027   16.5395 C.3       10 UNK        -0.1976 
     37 N         -51.8460  -24.9700   15.6504 N.am      10 UNK        -0.4242 
     38 C         -50.9719  -25.0855   16.6637 C.2       10 UNK         0.5072 
     39 O         -51.2790  -25.3942   17.8157 O.2       10 UNK        -0.5224 
     40 CA        -49.4884  -24.8231   16.3386 C.3       9 UNK         0.0343 
     41 CB        -48.7374  -26.1555   16.1842 C.3       9 UNK        -0.2003 
     42 N         -49.2921  -24.0249   15.1265 N.am      9 UNK        -0.4272 
     43 C         -49.5886  -22.7230   15.0078 C.2       9 UNK         0.4988 
     44 O         -49.9660  -22.0142   15.9412 O.2       9 UNK        -0.5108 
     45 CA        -49.4889  -22.1262   13.5950 C.3       8 UNK         0.0248 
     46 CB        -48.0401  -21.7312   13.2632 C.3       8 UNK        -0.2001 
     47 N         -50.0038  -23.0414   12.5712 N.am      8 UNK        -0.4140 
     48 C         -51.2975  -23.3617   12.4178 C.2       8 UNK         0.5028 
     49 O         -52.2047  -22.9033   13.1106 O.2       8 UNK        -0.5428 
     50 CA        -51.6358  -24.3802   11.3184 C.3       7 UNK         0.0264 
     51 CB        -51.7329  -23.6777    9.9555 C.3       7 UNK        -0.1988 
     52 N         -50.6723  -25.4835   11.2570 N.am      7 UNK        -0.4454 
     53 C         -50.5892  -26.4594   12.1752 C.2       7 UNK         0.5027 
     54 O         -51.3927  -26.5940   13.1010 O.2       7 UNK        -0.5083 
     55 CA        -49.3756  -27.4115   12.0975 C.3       6 UNK         0.0844 
     56 C56       -49.7197  -28.7910   11.4843 C.3       14 UNK        -0.0967 
     57 S57       -49.7328  -28.8366    9.6581 S.3       14 UNK        -0.2604 
     58 C58       -51.3859  -29.5077    9.3053 C.3       14 UNK         0.0134 
     59 N         -48.1971  -26.8020   11.4744 N.am      6 UNK        -0.4116 
     60 C         -47.4897  -25.7871   11.9857 C.2       5 UNK         0.5034 
     61 O         -47.7792  -25.2355   13.0472 O.2       5 UNK        -0.5045 
     62 CA        -46.3056  -25.2524   11.1605 C.3       5 UNK         0.0224 
     63 CB        -45.0749  -24.9377   12.0357 C.3       5 UNK        -0.1978 
     64 N         -45.9538  -26.0871   10.0046 N.am      5 UNK        -0.4737 
     65 C         -45.3761  -27.2977    9.9835 C.2       4 UNK         0.5027 
     66 O         -45.0422  -27.9238   10.9886 O.2       4 UNK        -0.5211 
     67 CA        -45.1475  -27.9242    8.5965 C.3       4 UNK         0.0297 
     68 CB        -46.2943  -28.8827    8.2409 C.3       4 UNK        -0.1993 
     69 N         -45.0309  -26.9105    7.5452 N.am      4 UNK        -0.4486 
     70 C         -43.9015  -26.2541    7.2455 C.2       3 UNK         0.4961 
     71 O         -42.8089  -26.4935    7.7603 O.2       3 UNK        -0.5105 
     72 CA        -44.0121  -25.1309    6.1982 C.3       3 UNK         0.0299 
     73 CB        -43.8463  -25.6990    4.7794 C.3       3 UNK        -0.1972 
     74 N         -45.2754  -24.3916    6.2836 N.am      3 UNK        -0.4305 
     75 C         -45.6198  -23.5859    7.2998 C.2       2 UNK         0.5006 
     76 O         -44.8841  -23.3303    8.2525 O.2       2 UNK        -0.5106 
     77 CA        -47.0347  -22.9796    7.2670 C.3       2 UNK         0.0296 
     78 CB        -47.0066  -21.5843    6.6226 C.3       2 UNK        -0.2002 
     79 N         -48.0326  -23.8123    6.5840 N.am      2 UNK        -0.4032 
     80 C         -48.4189  -25.0301    6.9902 C.2       1 UNK         0.5000 
     81 O         -47.9416  -25.6033    7.9750 O.2       1 UNK        -0.5238 
     82 H82       -49.5161  -28.7356    3.4393 H         1 UNK         0.0889 
     83 H83       -48.5548  -27.2836    3.7020 H         1 UNK         0.0889 
     84 H84       -50.3250  -27.2157    3.7928 H         1 UNK         0.0889 
     85 H85       -49.3358  -27.3876    7.3940 H         1 UNK         0.3028 
     86 H86       -49.3326  -25.4806    5.1200 H         1 UNK         0.0864 
     87 H87       -50.9197  -24.0370    6.4514 H         1 UNK         0.0720 
     88 H88       -51.0915  -25.3255    7.6159 H         1 UNK         0.0720 
     89 H89       -54.5803  -26.0678    6.2582 H         1 UNK         0.0814 
     90 H90       -53.8371  -24.7054    7.0597 H         1 UNK         0.0814 
     91 H91       -51.9961  -27.9249    7.2230 H         1 UNK         0.1469 
     92 H92       -53.0685  -28.6629   11.2923 H         1 UNK         0.1381 
     93 H93       -54.9898  -25.5040    9.1245 H         1 UNK         0.1206 
     94 H94       -54.9559  -25.6696   11.7473 H         1 UNK         0.0813 
     95 H95       -54.5921  -27.2269   12.4443 H         1 UNK         0.0813 
     96 H96       -55.5312  -29.3343   11.1001 H         1 UNK         0.0638 
     97 H97       -56.9587  -29.2878   10.1053 H         1 UNK         0.0638 
     98 H98       -58.4061  -29.6519   12.0665 H         1 UNK         0.0568 
     99 H99       -55.7390  -31.6625   13.3248 H         1 UNK         0.3450 
    100 H100      -56.1971  -33.0865   12.4147 H         1 UNK         0.3450 
    101 H101      -56.0637  -29.0235   13.6312 H         1 UNK         0.2987 
    102 H102      -57.4179  -28.8040   16.4655 H         1 UNK         0.0766 
    103 H103      -56.4935  -30.6401   17.8996 H         1 UNK         0.0798 
    104 H104      -56.4599  -31.7160   16.5032 H         1 UNK         0.0798 
    105 H105      -57.9921  -31.1220   17.1267 H         1 UNK         0.0798 
    106 H106      -55.2540  -28.3052   16.4133 H         1 UNK         0.3198 
    107 H107      -52.7437  -29.2485   16.5314 H         1 UNK         0.0843 
    108 H108      -52.2340  -29.6319   13.5421 H         1 UNK         0.0831 
    109 H109      -51.8483  -30.7791   14.8159 H         1 UNK         0.0831 
    110 H110      -50.9933  -29.2477   14.7381 H         1 UNK         0.0831 
    111 H111      -52.4758  -27.3037   14.4776 H         1 UNK         0.3133 
    112 H112      -53.6331  -25.1016   14.6350 H         1 UNK         0.0566 
    113 H113      -53.8177  -23.1839   16.2144 H         1 UNK         0.0814 
    114 H114      -55.1086  -24.3457   16.4793 H         1 UNK         0.0814 
    115 H115      -53.7489  -24.2843   17.5902 H         1 UNK         0.0814 
    116 H116      -51.4663  -24.7377   14.7431 H         1 UNK         0.3091 
    117 H117      -49.0551  -24.2774   17.1794 H         1 UNK         0.0702 
    118 H118      -47.6792  -25.9948   15.9766 H         1 UNK         0.0785 
    119 H119      -49.1509  -26.7567   15.3742 H         1 UNK         0.0785 
    120 H120      -48.8036  -26.7491   17.0970 H         1 UNK         0.0785 
    121 H121      -48.8938  -24.5063   14.3225 H         1 UNK         0.2998 
    122 H122      -50.0992  -21.2206   13.5735 H         1 UNK         0.0697 
    123 H123      -47.3695  -22.5907   13.2692 H         1 UNK         0.0825 
    124 H124      -47.6567  -21.0174   13.9936 H         1 UNK         0.0825 
    125 H125      -47.9714  -21.2579   12.2836 H         1 UNK         0.0825 
    126 H126      -49.3208  -23.4915   11.9816 H         1 UNK         0.3029 
    127 H127      -52.6180  -24.7948   11.5535 H         1 UNK         0.0897 
    128 H128      -52.3314  -22.7679   10.0237 H         1 UNK         0.0792 
    129 H129      -52.2256  -24.3165    9.2271 H         1 UNK         0.0792 
    130 H130      -50.7546  -23.3975    9.5636 H         1 UNK         0.0792 
    131 H131      -49.9989  -25.4741   10.5052 H         1 UNK         0.3086 
    132 H132      -49.1011  -27.6039   13.1365 H         1 UNK         0.0583 
    133 H133      -48.9723  -29.5160   11.8107 H         1 UNK         0.1020 
    134 H134      -50.6642  -29.1646   11.8794 H         1 UNK         0.1020 
    135 H135      -51.3542  -30.0156    8.3399 H         1 UNK         0.0694 
    136 H136      -51.6554  -30.2695   10.0383 H         1 UNK         0.0694 
    137 H137      -47.9153  -27.1859   10.5838 H         1 UNK         0.2989 
    138 H138      -46.6493  -24.3064   10.7393 H         1 UNK         0.1055 
    139 H139      -45.3133  -24.1889   12.7920 H         1 UNK         0.0806 
    140 H140      -44.2554  -24.5408   11.4363 H         1 UNK         0.0806 
    141 H141      -44.7118  -25.8207   12.5618 H         1 UNK         0.0806 
    142 H142      -46.2797  -25.7263    9.1140 H         1 UNK         0.3061 
    143 H143      -44.2229  -28.5038    8.6438 H         1 UNK         0.0734 
    144 H144      -46.0924  -29.4160    7.3120 H         1 UNK         0.0832 
    145 H145      -46.4375  -29.6327    9.0202 H         1 UNK         0.0832 
    146 H146      -47.2389  -28.3532    8.1199 H         1 UNK         0.0832 
    147 H147      -45.8872  -26.6330    7.0874 H         1 UNK         0.3156 
    148 H148      -43.1969  -24.4270    6.3797 H         1 UNK         0.0589 
    149 H149      -44.6438  -26.3984    4.5251 H         1 UNK         0.0808 
    150 H150      -43.8428  -24.9057    4.0316 H         1 UNK         0.0808 
    151 H151      -42.9010  -26.2353    4.6833 H         1 UNK         0.0808 
    152 H152      -45.9318  -24.5178    5.5274 H         1 UNK         0.3098 
    153 H153      -47.3588  -22.8665    8.3040 H         1 UNK         0.0720 
    154 H154      -47.9804  -21.0980    6.6849 H         1 UNK         0.0791 
    155 H155      -46.7187  -21.6290    5.5715 H         1 UNK         0.0791 
    156 H156      -46.2908  -20.9348    7.1289 H         1 UNK         0.0791 
    157 H157      -48.4748  -23.4044    5.7722 H         1 UNK         0.3028 
@<TRIPOS>BOND
     1    1    2 1    
     2    1   82 1    
     3    1   83 1    
     4    1   84 1    
     5    2    3 2    
     6    2    4 am   BACKBONE|DICT|INTERRES
     7    4    5 1    
     8    4   85 1    
     9    5    6 1    
    10    5   80 1    
    11    5   86 1    
    12    6    7 1    
    13    6   87 1    
    14    6   88 1    
    15    7    8 1    
    16    8    9 1    
    17    8   89 1    
    18    8   90 1    
    19    9   10 ar   
    20    9   14 ar   
    21   10   11 ar   
    22   10   91 1    
    23   11   12 ar   
    24   11   58 1    
    25   12   13 ar   
    26   12   92 1    
    27   13   14 ar   
    28   13   15 1    
    29   14   93 1    
    30   15   16 1    
    31   15   94 1    
    32   15   95 1    
    33   16   17 1    
    34   17   18 1    
    35   17   96 1    
    36   17   97 1    
    37   18   19 1    
    38   18   22 1    
    39   18   98 1    
    40   19   20 am   BACKBONE|DICT|INTERRES
    41   19   21 2    
    42   20   99 1    
    43   20  100 1    
    44   22   23 am   BACKBONE|DICT|INTERRES
    45   22  101 1    
    46   23   24 2    
    47   23   25 1    
    48   25   26 1    
    49   25   27 1    
    50   25  102 1    
    51   26  103 1    
    52   26  104 1    
    53   26  105 1    
    54   27   28 am   BACKBONE|DICT|INTERRES
    55   27  106 1    
    56   28   29 2    
    57   28   30 1    
    58   30   31 1    
    59   30   32 1    
    60   30  107 1    
    61   31  108 1    
    62   31  109 1    
    63   31  110 1    
    64   32   33 am   BACKBONE|DICT|INTERRES
    65   32  111 1    
    66   33   34 2    
    67   33   35 1    
    68   35   36 1    
    69   35   37 1    
    70   35  112 1    
    71   36  113 1    
    72   36  114 1    
    73   36  115 1    
    74   37   38 am   BACKBONE|DICT|INTERRES
    75   37  116 1    
    76   38   39 2    
    77   38   40 1    
    78   40   41 1    
    79   40   42 1    
    80   40  117 1    
    81   41  118 1    
    82   41  119 1    
    83   41  120 1    
    84   42   43 am   BACKBONE|DICT|INTERRES
    85   42  121 1    
    86   43   44 2    
    87   43   45 1    
    88   45   46 1    
    89   45   47 1    
    90   45  122 1    
    91   46  123 1    
    92   46  124 1    
    93   46  125 1    
    94   47   48 am   BACKBONE|DICT|INTERRES
    95   47  126 1    
    96   48   49 2    
    97   48   50 1    
    98   50   51 1    
    99   50   52 1    
   100   50  127 1    
   101   51  128 1    
   102   51  129 1    
   103   51  130 1    
   104   52   53 am   BACKBONE|DICT|INTERRES
   105   52  131 1    
   106   53   54 2    
   107   53   55 1    
   108   55   56 1    
   109   55   59 1    
   110   55  132 1    
   111   56   57 1    
   112   56  133 1    
   113   56  134 1    
   114   57   58 1    
   115   58  135 1    
   116   58  136 1    
   117   59   60 am   BACKBONE|DICT|INTERRES
   118   59  137 1    
   119   60   61 2    
   120   60   62 1    
   121   62   63 1    
   122   62   64 1    
   123   62  138 1    
   124   63  139 1    
   125   63  140 1    
   126   63  141 1    
   127   64   65 am   BACKBONE|DICT|INTERRES
   128   64  142 1    
   129   65   66 2    
   130   65   67 1    
   131   67   68 1    
   132   67   69 1    
   133   67  143 1    
   134   68  144 1    
   135   68  145 1    
   136   68  146 1    
   137   69   70 am   BACKBONE|DICT|INTERRES
   138   69  147 1    
   139   70   71 2    
   140   70   72 1    
   141   72   73 1    
   142   72   74 1    
   143   72  148 1    
   144   73  149 1    
   145   73  150 1    
   146   73  151 1    
   147   74   75 am   BACKBONE|DICT|INTERRES
   148   74  152 1    
   149   75   76 2    
   150   75   77 1    
   151   77   78 1    
   152   77   79 1    
   153   77  153 1    
   154   78  154 1    
   155   78  155 1    
   156   78  156 1    
   157   79   80 am   BACKBONE|DICT|INTERRES
   158   79  157 1    
   159   80   81 2    
@<TRIPOS>SUBSTRUCTURE
     1 UNK         1 GROUP             0       ****    0 ROOT    
