@<TRIPOS>MOLECULE
3R207
157   159    1
SMALL
USER_CHARGES


@<TRIPOS>ATOM
      1 CA        -47.6966  -32.1091    3.3680 C.3       0 UNK        -0.1975 
      2 C         -48.1463  -30.6720    3.1504 C.2       0 UNK         0.4852 
      3 O         -47.7394  -30.0453    2.1714 O.2       0 UNK        -0.5216 
      4 N         -48.9836  -30.1473    4.0550 N.am      1 UNK        -0.4461 
      5 CA        -49.5026  -28.7733    4.0324 C.3       1 UNK         0.0864 
      6 C6        -50.7299  -28.6008    4.9626 C.3       14 UNK        -0.0898 
      7 S7        -50.4646  -29.2010    6.6693 S.3       14 UNK        -0.2598 
      8 C8        -52.1665  -29.1572    7.3155 C.3       14 UNK         0.0286 
      9 C9        -52.3814  -28.0064    8.2883 C.ar      14 UNK        -0.0844 
     10 C10       -52.3440  -26.6800    7.8474 C.ar      14 UNK        -0.0881 
     11 C11       -52.5616  -25.6244    8.7394 C.ar      14 UNK        -0.0643 
     12 C12       -52.8450  -25.9072   10.0801 C.ar      14 UNK        -0.0930 
     13 C13       -52.8925  -27.2299   10.5310 C.ar      14 UNK        -0.0827 
     14 C14       -52.6470  -28.2724    9.6335 C.ar      14 UNK        -0.1249 
     15 C15       -53.2003  -27.5385   11.9892 C.3       14 UNK         0.0141 
     16 S16       -54.9745  -27.3730   12.3858 S.3       14 UNK        -0.2313 
     17 C17       -55.7620  -28.6518   11.3418 C.3       14 UNK        -0.0915 
     18 CA        -56.0951  -29.9750   12.0801 C.3       13 UNK         0.0968 
     19 C         -54.8239  -30.8242   12.3817 C.2       13 UNK         0.5732 
     20 N         -54.5091  -31.1537   13.6291 N.am      13 UNK        -0.7310 
     21 O         -54.1122  -31.2059   11.4559 O.2       13 UNK        -0.5035 
     22 N         -56.9840  -29.7479   13.2292 N.am      13 UNK        -0.4233 
     23 C         -57.7849  -30.6758   13.7688 C.2       13 UNK         0.4989 
     24 O         -57.9503  -31.7956   13.2807 O.2       13 UNK        -0.4996 
     25 CA        -58.5193  -30.2915   15.0741 C.3       12 UNK         0.0216 
     26 CB        -58.9474  -31.5303   15.8903 C.3       12 UNK        -0.1964 
     27 N         -57.7848  -29.3522   15.9390 N.am      12 UNK        -0.4276 
     28 C         -56.5376  -29.4989   16.4080 C.2       12 UNK         0.5020 
     29 O         -55.7920  -30.4394   16.1175 O.2       12 UNK        -0.5489 
     30 CA        -56.0216  -28.4090   17.3510 C.3       11 UNK         0.0294 
     31 CB        -56.2875  -28.7749   18.8221 C.3       11 UNK        -0.2019 
     32 N         -54.5913  -28.2868   17.1056 N.am      11 UNK        -0.4493 
     33 C         -53.8332  -27.2147   17.3474 C.2       11 UNK         0.4932 
     34 O         -54.2336  -26.2223   17.9607 O.2       11 UNK        -0.5029 
     35 CA        -52.3779  -27.2629   16.8309 C.3       10 UNK         0.0280 
     36 CB        -52.1464  -28.3052   15.7111 C.3       10 UNK        -0.1976 
     37 N         -51.8915  -25.9489   16.3970 N.am      10 UNK        -0.4242 
     38 C         -52.4258  -25.1375   15.4727 C.2       10 UNK         0.5072 
     39 O         -53.4491  -25.3898   14.8375 O.2       10 UNK        -0.5224 
     40 CA        -51.6916  -23.8162   15.1879 C.3       9 UNK         0.0343 
     41 CB        -52.0566  -22.7329   16.2213 C.3       9 UNK        -0.2003 
     42 N         -50.2382  -23.9497   15.0287 N.am      9 UNK        -0.4272 
     43 C         -49.3035  -24.2643   15.9375 C.2       9 UNK         0.4988 
     44 O         -49.5512  -24.5237   17.1162 O.2       9 UNK        -0.5108 
     45 CA        -47.8436  -24.3301   15.4513 C.3       8 UNK         0.0248 
     46 CB        -47.4237  -25.7943   15.2435 C.3       8 UNK        -0.2001 
     47 N         -47.6008  -23.5756   14.2169 N.am      8 UNK        -0.4140 
     48 C         -47.6304  -22.2375   14.1241 C.2       8 UNK         0.5028 
     49 O         -47.7774  -21.4870   15.0895 O.2       8 UNK        -0.5428 
     50 CA        -47.5088  -21.6316   12.7152 C.3       7 UNK         0.0264 
     51 CB        -46.0341  -21.5162   12.2990 C.3       7 UNK        -0.1988 
     52 N         -48.2499  -22.3839   11.6985 N.am      7 UNK        -0.4454 
     53 C         -49.5838  -22.5293   11.6641 C.2       7 UNK         0.5027 
     54 O         -50.3498  -22.0113   12.4761 O.2       7 UNK        -0.5083 
     55 CA        -50.1577  -23.4365   10.5583 C.3       6 UNK         0.0844 
     56 C56       -50.3218  -22.6569    9.2298 C.3       14 UNK        -0.0967 
     57 S57       -50.8172  -23.6823    7.8016 S.3       14 UNK        -0.2604 
     58 C58       -52.5139  -24.1875    8.2360 C.3       14 UNK         0.0134 
     59 N         -49.3672  -24.6583   10.4151 N.am      6 UNK        -0.4116 
     60 C         -49.3000  -25.6382   11.3258 C.2       5 UNK         0.5034 
     61 O         -49.9239  -25.6405   12.3870 O.2       5 UNK        -0.5045 
     62 CA        -48.3248  -26.7840   11.0167 C.3       5 UNK         0.0224 
     63 CB        -48.9863  -27.8283   10.1038 C.3       5 UNK        -0.1978 
     64 N         -47.0859  -26.2959   10.4017 N.am      5 UNK        -0.4737 
     65 C         -46.1732  -25.5578   11.0535 C.2       4 UNK         0.5027 
     66 O         -46.2664  -25.2574   12.2425 O.2       4 UNK        -0.5211 
     67 CA        -44.9813  -25.0197   10.2418 C.3       4 UNK         0.0297 
     68 CB        -43.8379  -26.0460   10.2243 C.3       4 UNK        -0.1993 
     69 N         -45.3322  -24.6576    8.8679 N.am      4 UNK        -0.4486 
     70 C         -46.2545  -23.7497    8.5178 C.2       3 UNK         0.4961 
     71 O         -46.8533  -23.0403    9.3249 O.2       3 UNK        -0.5105 
     72 CA        -46.6057  -23.6427    7.0229 C.3       3 UNK         0.0299 
     73 CB        -45.9130  -22.4219    6.3977 C.3       3 UNK        -0.1972 
     74 N         -46.2854  -24.8416    6.2369 N.am      3 UNK        -0.4305 
     75 C         -46.8022  -26.0614    6.4430 C.2       2 UNK         0.5006 
     76 O         -47.5732  -26.3369    7.3648 O.2       2 UNK        -0.5106 
     77 CA        -46.3106  -27.1758    5.5069 C.3       2 UNK         0.0296 
     78 CB        -45.2146  -28.0063    6.1953 C.3       2 UNK        -0.2002 
     79 N         -47.4029  -28.0609    5.1063 N.am      2 UNK        -0.4032 
     80 C         -48.4229  -27.7055    4.3117 C.2       1 UNK         0.5000 
     81 O         -48.5243  -26.5954    3.7842 O.2       1 UNK        -0.5238 
     82 H82       -47.9874  -32.7258    2.5180 H         1 UNK         0.0889 
     83 H83       -48.1354  -32.5423    4.2668 H         1 UNK         0.0889 
     84 H84       -46.6122  -32.1521    3.4655 H         1 UNK         0.0889 
     85 H85       -49.2908  -30.7069    4.8389 H         1 UNK         0.3028 
     86 H86       -49.8483  -28.5840    3.0135 H         1 UNK         0.0864 
     87 H87       -51.5676  -29.1554    4.5372 H         1 UNK         0.0720 
     88 H88       -51.0520  -27.5583    4.9935 H         1 UNK         0.0720 
     89 H89       -52.8887  -29.0806    6.5019 H         1 UNK         0.0814 
     90 H90       -52.3686  -30.1115    7.8044 H         1 UNK         0.0814 
     91 H91       -52.1362  -26.4648    6.8089 H         1 UNK         0.1469 
     92 H92       -53.0360  -25.1031   10.7769 H         1 UNK         0.1381 
     93 H93       -52.6814  -29.2957    9.9824 H         1 UNK         0.1206 
     94 H94       -52.8619  -28.5418   12.2509 H         1 UNK         0.0813 
     95 H95       -52.6329  -26.8561   12.6240 H         1 UNK         0.0813 
     96 H96       -55.1589  -28.8468   10.4559 H         1 UNK         0.0638 
     97 H97       -56.6875  -28.2199   10.9587 H         1 UNK         0.0638 
     98 H98       -56.6598  -30.5783   11.3667 H         1 UNK         0.0568 
     99 H99       -55.0861  -30.8718   14.4168 H         1 UNK         0.3450 
    100 H100      -53.6884  -31.7136   13.7908 H         1 UNK         0.3450 
    101 H101      -56.8850  -28.8562   13.6907 H         1 UNK         0.2987 
    102 H102      -59.4272  -29.7735   14.7614 H         1 UNK         0.0766 
    103 H103      -59.6049  -32.1787   15.3098 H         1 UNK         0.0798 
    104 H104      -59.4926  -31.2444   16.7899 H         1 UNK         0.0798 
    105 H105      -58.0869  -32.1269   16.1956 H         1 UNK         0.0798 
    106 H106      -58.3030  -28.5302   16.2204 H         1 UNK         0.3198 
    107 H107      -56.5097  -27.4623   17.1085 H         1 UNK         0.0843 
    108 H108      -57.3560  -28.8873   19.0101 H         1 UNK         0.0831 
    109 H109      -55.9199  -28.0024   19.4976 H         1 UNK         0.0831 
    110 H110      -55.8066  -29.7151   19.0952 H         1 UNK         0.0831 
    111 H111      -54.2051  -29.0709   16.5927 H         1 UNK         0.3133 
    112 H112      -51.7593  -27.5459   17.6835 H         1 UNK         0.0566 
    113 H113      -51.1291  -28.2475   15.3233 H         1 UNK         0.0814 
    114 H114      -52.2869  -29.3235   16.0751 H         1 UNK         0.0814 
    115 H115      -52.8269  -28.1545   14.8723 H         1 UNK         0.0814 
    116 H116      -51.0638  -25.5982   16.8735 H         1 UNK         0.3091 
    117 H117      -52.0500  -23.4691   14.2173 H         1 UNK         0.0702 
    118 H118      -51.7463  -23.0060   17.2301 H         1 UNK         0.0785 
    119 H119      -53.1351  -22.5724   16.2481 H         1 UNK         0.0785 
    120 H120      -51.5916  -21.7787   15.9729 H         1 UNK         0.0785 
    121 H121      -49.9162  -23.8212   14.0783 H         1 UNK         0.2998 
    122 H122      -47.2179  -23.9027   16.2374 H         1 UNK         0.0697 
    123 H123      -48.0034  -26.2699   14.4514 H         1 UNK         0.0825 
    124 H124      -47.5714  -26.3784   16.1529 H         1 UNK         0.0825 
    125 H125      -46.3691  -25.8706   14.9781 H         1 UNK         0.0825 
    126 H126      -47.3797  -24.1209   13.3875 H         1 UNK         0.3029 
    127 H127      -47.9321  -20.6255   12.7518 H         1 UNK         0.0897 
    128 H128      -45.9325  -21.0487   11.3193 H         1 UNK         0.0792 
    129 H129      -45.4752  -20.9065   13.0101 H         1 UNK         0.0792 
    130 H130      -45.5505  -22.4921   12.2562 H         1 UNK         0.0792 
    131 H131      -47.7017  -22.7874   10.9402 H         1 UNK         0.3086 
    132 H132      -51.1529  -23.7363   10.8878 H         1 UNK         0.0583 
    133 H133      -51.0521  -21.8545    9.3510 H         1 UNK         0.1020 
    134 H134      -49.3859  -22.1652    8.9573 H         1 UNK         0.1020 
    135 H135      -52.9371  -23.4995    8.9693 H         1 UNK         0.0694 
    136 H136      -53.1399  -24.1044    7.3465 H         1 UNK         0.0694 
    137 H137      -48.8194  -24.7420    9.5709 H         1 UNK         0.2989 
    138 H138      -48.0686  -27.2674   11.9621 H         1 UNK         0.1055 
    139 H139      -49.8653  -28.2595   10.5842 H         1 UNK         0.0806 
    140 H140      -48.3068  -28.6487    9.8737 H         1 UNK         0.0806 
    141 H141      -49.3179  -27.3930    9.1597 H         1 UNK         0.0806 
    142 H142      -46.9815  -26.4484    9.4040 H         1 UNK         0.3061 
    143 H143      -44.6225  -24.1164   10.7383 H         1 UNK         0.0734 
    144 H144      -43.5443  -26.3177   11.2394 H         1 UNK         0.0832 
    145 H145      -44.1258  -26.9650    9.7120 H         1 UNK         0.0832 
    146 H146      -42.9521  -25.6471    9.7296 H         1 UNK         0.0832 
    147 H147      -44.8885  -25.1847    8.1309 H         1 UNK         0.3156 
    148 H148      -47.6853  -23.4916    6.9594 H         1 UNK         0.0589 
    149 H149      -44.8271  -22.5250    6.4048 H         1 UNK         0.0808 
    150 H150      -46.2311  -22.2685    5.3664 H         1 UNK         0.0808 
    151 H151      -46.1571  -21.5114    6.9474 H         1 UNK         0.0808 
    152 H152      -45.6458  -24.7129    5.4654 H         1 UNK         0.3098 
    153 H153      -45.8925  -26.7271    4.6032 H         1 UNK         0.0720 
    154 H154      -44.8357  -28.7876    5.5361 H         1 UNK         0.0791 
    155 H155      -45.5814  -28.4836    7.1054 H         1 UNK         0.0791 
    156 H156      -44.3655  -27.3811    6.4745 H         1 UNK         0.0791 
    157 H157      -47.4277  -28.9774    5.5274 H         1 UNK         0.3028 
@<TRIPOS>BOND
     1    1    2 1    
     2    1   82 1    
     3    1   83 1    
     4    1   84 1    
     5    2    3 2    
     6    2    4 am   BACKBONE|DICT|INTERRES
     7    4    5 1    
     8    4   85 1    
     9    5    6 1    
    10    5   80 1    
    11    5   86 1    
    12    6    7 1    
    13    6   87 1    
    14    6   88 1    
    15    7    8 1    
    16    8    9 1    
    17    8   89 1    
    18    8   90 1    
    19    9   10 ar   
    20    9   14 ar   
    21   10   11 ar   
    22   10   91 1    
    23   11   12 ar   
    24   11   58 1    
    25   12   13 ar   
    26   12   92 1    
    27   13   14 ar   
    28   13   15 1    
    29   14   93 1    
    30   15   16 1    
    31   15   94 1    
    32   15   95 1    
    33   16   17 1    
    34   17   18 1    
    35   17   96 1    
    36   17   97 1    
    37   18   19 1    
    38   18   22 1    
    39   18   98 1    
    40   19   20 am   BACKBONE|DICT|INTERRES
    41   19   21 2    
    42   20   99 1    
    43   20  100 1    
    44   22   23 am   BACKBONE|DICT|INTERRES
    45   22  101 1    
    46   23   24 2    
    47   23   25 1    
    48   25   26 1    
    49   25   27 1    
    50   25  102 1    
    51   26  103 1    
    52   26  104 1    
    53   26  105 1    
    54   27   28 am   BACKBONE|DICT|INTERRES
    55   27  106 1    
    56   28   29 2    
    57   28   30 1    
    58   30   31 1    
    59   30   32 1    
    60   30  107 1    
    61   31  108 1    
    62   31  109 1    
    63   31  110 1    
    64   32   33 am   BACKBONE|DICT|INTERRES
    65   32  111 1    
    66   33   34 2    
    67   33   35 1    
    68   35   36 1    
    69   35   37 1    
    70   35  112 1    
    71   36  113 1    
    72   36  114 1    
    73   36  115 1    
    74   37   38 am   BACKBONE|DICT|INTERRES
    75   37  116 1    
    76   38   39 2    
    77   38   40 1    
    78   40   41 1    
    79   40   42 1    
    80   40  117 1    
    81   41  118 1    
    82   41  119 1    
    83   41  120 1    
    84   42   43 am   BACKBONE|DICT|INTERRES
    85   42  121 1    
    86   43   44 2    
    87   43   45 1    
    88   45   46 1    
    89   45   47 1    
    90   45  122 1    
    91   46  123 1    
    92   46  124 1    
    93   46  125 1    
    94   47   48 am   BACKBONE|DICT|INTERRES
    95   47  126 1    
    96   48   49 2    
    97   48   50 1    
    98   50   51 1    
    99   50   52 1    
   100   50  127 1    
   101   51  128 1    
   102   51  129 1    
   103   51  130 1    
   104   52   53 am   BACKBONE|DICT|INTERRES
   105   52  131 1    
   106   53   54 2    
   107   53   55 1    
   108   55   56 1    
   109   55   59 1    
   110   55  132 1    
   111   56   57 1    
   112   56  133 1    
   113   56  134 1    
   114   57   58 1    
   115   58  135 1    
   116   58  136 1    
   117   59   60 am   BACKBONE|DICT|INTERRES
   118   59  137 1    
   119   60   61 2    
   120   60   62 1    
   121   62   63 1    
   122   62   64 1    
   123   62  138 1    
   124   63  139 1    
   125   63  140 1    
   126   63  141 1    
   127   64   65 am   BACKBONE|DICT|INTERRES
   128   64  142 1    
   129   65   66 2    
   130   65   67 1    
   131   67   68 1    
   132   67   69 1    
   133   67  143 1    
   134   68  144 1    
   135   68  145 1    
   136   68  146 1    
   137   69   70 am   BACKBONE|DICT|INTERRES
   138   69  147 1    
   139   70   71 2    
   140   70   72 1    
   141   72   73 1    
   142   72   74 1    
   143   72  148 1    
   144   73  149 1    
   145   73  150 1    
   146   73  151 1    
   147   74   75 am   BACKBONE|DICT|INTERRES
   148   74  152 1    
   149   75   76 2    
   150   75   77 1    
   151   77   78 1    
   152   77   79 1    
   153   77  153 1    
   154   78  154 1    
   155   78  155 1    
   156   78  156 1    
   157   79   80 am   BACKBONE|DICT|INTERRES
   158   79  157 1    
   159   80   81 2    
@<TRIPOS>SUBSTRUCTURE
     1 UNK         1 GROUP             0       ****    0 ROOT    
