@<TRIPOS>MOLECULE
3R207
157   159    1
SMALL
USER_CHARGES


@<TRIPOS>ATOM
      1 CA        -49.9066  -28.7700    9.5342 C.3       0 UNK        -0.1975 
      2 C         -49.4094  -29.2851    8.1946 C.2       0 UNK         0.4852 
      3 O         -48.4115  -30.0039    8.1457 O.2       0 UNK        -0.5216 
      4 N         -50.0987  -28.9234    7.1055 N.am      1 UNK        -0.4461 
      5 CA        -49.7978  -29.3773    5.7395 C.3       1 UNK         0.0864 
      6 C6        -51.0296  -29.2686    4.8051 C.3       14 UNK        -0.0898 
      7 S7        -52.5100  -30.1027    5.4747 S.3       14 UNK        -0.2598 
      8 C8        -53.6846  -28.7197    5.6382 C.3       14 UNK         0.0286 
      9 C9        -53.3304  -27.7831    6.7862 C.ar      14 UNK        -0.0844 
     10 C10       -52.6138  -26.6062    6.5460 C.ar      14 UNK        -0.0881 
     11 C11       -52.3204  -25.7149    7.5833 C.ar      14 UNK        -0.0643 
     12 C12       -52.7627  -26.0192    8.8788 C.ar      14 UNK        -0.0930 
     13 C13       -53.4904  -27.1865    9.1309 C.ar      14 UNK        -0.0827 
     14 C14       -53.7622  -28.0701    8.0838 C.ar      14 UNK        -0.1249 
     15 C15       -54.0092  -27.4695   10.5317 C.3       14 UNK         0.0141 
     16 S16       -52.8093  -28.4337   11.4974 S.3       14 UNK        -0.2313 
     17 C17       -53.5896  -30.0793   11.6028 C.3       14 UNK        -0.0915 
     18 CA        -53.7718  -30.5925   13.0608 C.3       13 UNK         0.0968 
     19 C         -52.4710  -31.0969   13.7475 C.2       13 UNK         0.5732 
     20 N         -52.3744  -31.0544   15.0722 N.am      13 UNK        -0.7310 
     21 O         -51.5484  -31.5643   13.0843 O.2       13 UNK        -0.5035 
     22 N         -54.5255  -29.6552   13.9077 N.am      13 UNK        -0.4233 
     23 C         -55.8419  -29.7149   14.1332 C.2       13 UNK         0.4989 
     24 O         -56.5914  -30.5119   13.5651 O.2       13 UNK        -0.4996 
     25 CA        -56.4293  -28.7271   15.1653 C.3       12 UNK         0.0216 
     26 CB        -57.7423  -29.2427   15.7920 C.3       12 UNK        -0.1964 
     27 N         -55.4988  -28.3099   16.2243 N.am      12 UNK        -0.4276 
     28 C         -54.8202  -29.0894   17.0845 C.2       12 UNK         0.5020 
     29 O         -54.8535  -30.3206   17.0574 O.2       12 UNK        -0.5489 
     30 CA        -53.9293  -28.3870   18.1299 C.3       11 UNK         0.0294 
     31 CB        -52.6023  -29.1389   18.3432 C.3       11 UNK        -0.2019 
     32 N         -53.6240  -27.0154   17.7251 N.am      11 UNK        -0.4493 
     33 C         -54.0593  -25.8986   18.3241 C.2       11 UNK         0.4932 
     34 O         -54.7120  -25.8908   19.3677 O.2       11 UNK        -0.5029 
     35 CA        -53.7371  -24.5574   17.6312 C.3       10 UNK         0.0280 
     36 CB        -52.5318  -23.8841   18.3057 C.3       10 UNK        -0.1976 
     37 N         -53.4746  -24.6833   16.1929 N.am      10 UNK        -0.4242 
     38 C         -54.3664  -25.1166   15.2862 C.2       10 UNK         0.5072 
     39 O         -55.5405  -25.3708   15.5554 O.2       10 UNK        -0.5224 
     40 CA        -53.8511  -25.4053   13.8639 C.3       9 UNK         0.0343 
     41 CB        -54.0940  -24.1884   12.9579 C.3       9 UNK        -0.2003 
     42 N         -52.4328  -25.7785   13.8231 N.am      9 UNK        -0.4272 
     43 C         -51.8886  -26.8125   14.4885 C.2       9 UNK         0.4988 
     44 O         -52.5655  -27.6476   15.0902 O.2       9 UNK        -0.5108 
     45 CA        -50.3512  -26.9189   14.5603 C.3       8 UNK         0.0248 
     46 CB        -49.8539  -28.1498   13.7879 C.3       8 UNK        -0.2001 
     47 N         -49.6336  -25.7305   14.0896 N.am      8 UNK        -0.4140 
     48 C         -49.7237  -24.5001   14.6216 C.2       8 UNK         0.5028 
     49 O         -50.3647  -24.2482   15.6435 O.2       8 UNK        -0.5428 
     50 CA        -49.0602  -23.3415   13.8469 C.3       7 UNK         0.0264 
     51 CB        -47.6866  -23.0109   14.4512 C.3       7 UNK        -0.1988 
     52 N         -48.9053  -23.5892   12.4072 N.am      7 UNK        -0.4454 
     53 C         -49.8957  -23.9120   11.5591 C.2       7 UNK         0.5027 
     54 O         -51.0808  -23.9338   11.8900 O.2       7 UNK        -0.5083 
     55 CA        -49.5033  -24.3608   10.1324 C.3       6 UNK         0.0844 
     56 C56       -49.7634  -23.2461    9.0874 C.3       14 UNK        -0.0967 
     57 S57       -51.4999  -23.1535    8.5377 S.3       14 UNK        -0.2604 
     58 C58       -51.5464  -24.4391    7.2365 C.3       14 UNK         0.0134 
     59 N         -48.1397  -24.8897   10.0027 N.am      6 UNK        -0.4116 
     60 C         -47.5744  -25.8772   10.7123 C.2       5 UNK         0.5034 
     61 O         -48.1172  -26.4331   11.6662 O.2       5 UNK        -0.5045 
     62 CA        -46.1612  -26.3212   10.2981 C.3       5 UNK         0.0224 
     63 CB        -46.2126  -27.6768    9.5779 C.3       5 UNK        -0.1978 
     64 N         -45.4841  -25.3520    9.4324 N.am      5 UNK        -0.4737 
     65 C         -44.8475  -24.2567    9.8676 C.2       4 UNK         0.5027 
     66 O         -44.7619  -23.9425   11.0544 O.2       4 UNK        -0.5211 
     67 CA        -44.2036  -23.3603    8.7956 C.3       4 UNK         0.0297 
     68 CB        -42.7553  -23.8005    8.5286 C.3       4 UNK        -0.1993 
     69 N         -44.9515  -23.3557    7.5343 N.am      4 UNK        -0.4486 
     70 C         -46.1262  -22.7348    7.3593 C.2       3 UNK         0.4961 
     71 O         -46.6904  -22.0756    8.2321 O.2       3 UNK        -0.5105 
     72 CA        -46.8040  -22.9084    5.9886 C.3       3 UNK         0.0299 
     73 CB        -46.2422  -21.8974    4.9763 C.3       3 UNK        -0.1972 
     74 N         -46.7001  -24.2668    5.4405 N.am      3 UNK        -0.4305 
     75 C         -47.2022  -25.3622    6.0254 C.2       2 UNK         0.5006 
     76 O         -47.7492  -25.3626    7.1305 O.2       2 UNK        -0.5106 
     77 CA        -47.0513  -26.6852    5.2710 C.3       2 UNK         0.0296 
     78 CB        -45.6719  -27.3174    5.5359 C.3       2 UNK        -0.2002 
     79 N         -48.1180  -27.5681    5.7304 N.am      2 UNK        -0.4032 
     80 C         -48.5817  -28.6586    5.1093 C.2       1 UNK         0.5000 
     81 O         -48.1028  -29.0957    4.0608 O.2       1 UNK        -0.5238 
     82 H82       -50.4828  -29.5464   10.0359 H         1 UNK         0.0889 
     83 H83       -50.5377  -27.8891    9.4208 H         1 UNK         0.0889 
     84 H84       -49.0713  -28.5047   10.1790 H         1 UNK         0.0889 
     85 H85       -50.9407  -28.3710    7.2066 H         1 UNK         0.3028 
     86 H86       -49.5286  -30.4344    5.7974 H         1 UNK         0.0864 
     87 H87       -51.2579  -28.2254    4.5855 H         1 UNK         0.0720 
     88 H88       -50.8092  -29.7302    3.8406 H         1 UNK         0.0720 
     89 H89       -54.6824  -29.1299    5.8016 H         1 UNK         0.0814 
     90 H90       -53.7392  -28.1720    4.6960 H         1 UNK         0.0814 
     91 H91       -52.2965  -26.3692    5.5396 H         1 UNK         0.1469 
     92 H92       -52.5604  -25.3486    9.7018 H         1 UNK         0.1381 
     93 H93       -54.3259  -28.9730    8.2763 H         1 UNK         0.1206 
     94 H94       -54.9767  -27.9697   10.4856 H         1 UNK         0.0813 
     95 H95       -54.1931  -26.5292   11.0493 H         1 UNK         0.0813 
     96 H96       -54.5637  -30.0563   11.1145 H         1 UNK         0.0638 
     97 H97       -52.9939  -30.7790   11.0146 H         1 UNK         0.0638 
     98 H98       -54.3541  -31.5118   12.9793 H         1 UNK         0.0568 
     99 H99       -51.5355  -31.3957   15.5121 H         1 UNK         0.3450 
    100 H100      -53.1527  -30.7433   15.6373 H         1 UNK         0.3450 
    101 H101      -53.9582  -28.9741   14.4034 H         1 UNK         0.2987 
    102 H102      -56.6671  -27.8228   14.6031 H         1 UNK         0.0766 
    103 H103      -57.5892  -30.1774   16.3326 H         1 UNK         0.0798 
    104 H104      -58.1608  -28.5167   16.4891 H         1 UNK         0.0798 
    105 H105      -58.4995  -29.4269   15.0288 H         1 UNK         0.0798 
    106 H106      -55.3867  -27.3052   16.3101 H         1 UNK         0.3198 
    107 H107      -54.4830  -28.3943   19.0708 H         1 UNK         0.0843 
    108 H108      -52.7761  -30.1583   18.6902 H         1 UNK         0.0831 
    109 H109      -51.9852  -28.6455   19.0941 H         1 UNK         0.0831 
    110 H110      -52.0221  -29.2000   17.4216 H         1 UNK         0.0831 
    111 H111      -53.1165  -26.9385   16.8485 H         1 UNK         0.3133 
    112 H112      -54.6062  -23.9080   17.7539 H         1 UNK         0.0566 
    113 H113      -52.3317  -22.9028   17.8748 H         1 UNK         0.0814 
    114 H114      -52.7099  -23.7393   19.3722 H         1 UNK         0.0814 
    115 H115      -51.6264  -24.4842   18.2040 H         1 UNK         0.0814 
    116 H116      -52.5209  -24.5098   15.8918 H         1 UNK         0.3091 
    117 H117      -54.4226  -26.2499   13.4747 H         1 UNK         0.0702 
    118 H118      -53.7918  -24.3852   11.9297 H         1 UNK         0.0785 
    119 H119      -53.5391  -23.3146   13.3024 H         1 UNK         0.0785 
    120 H120      -55.1509  -23.9192   12.9388 H         1 UNK         0.0785 
    121 H121      -51.8233  -25.1552   13.3024 H         1 UNK         0.2998 
    122 H122      -50.0962  -27.0552   15.6130 H         1 UNK         0.0697 
    123 H123      -50.0769  -28.0742   12.7233 H         1 UNK         0.0825 
    124 H124      -50.3257  -29.0604   14.1569 H         1 UNK         0.0825 
    125 H125      -48.7769  -28.2787   13.8943 H         1 UNK         0.0825 
    126 H126      -49.0870  -25.8533   13.2407 H         1 UNK         0.3029 
    127 H127      -49.7071  -22.4691   13.9597 H         1 UNK         0.0897 
    128 H128      -47.2473  -22.1299   13.9828 H         1 UNK         0.0792 
    129 H129      -47.7702  -22.8003   15.5185 H         1 UNK         0.0792 
    130 H130      -46.9854  -23.8386   14.3357 H         1 UNK         0.0792 
    131 H131      -47.9596  -23.6064   12.0529 H         1 UNK         0.3086 
    132 H132      -50.1448  -25.2105    9.8941 H         1 UNK         0.0583 
    133 H133      -49.4588  -22.2693    9.4690 H         1 UNK         0.1020 
    134 H134      -49.1508  -23.3972    8.1989 H         1 UNK         0.1020 
    135 H135      -52.0014  -23.9869    6.3540 H         1 UNK         0.0694 
    136 H136      -50.5330  -24.7168    6.9440 H         1 UNK         0.0694 
    137 H137      -47.6215  -24.5584    9.1996 H         1 UNK         0.2989 
    138 H138      -45.5791  -26.4439   11.2145 H         1 UNK         0.1055 
    139 H139      -45.2164  -28.0160    9.2938 H         1 UNK         0.0806 
    140 H140      -46.8229  -27.6312    8.6755 H         1 UNK         0.0806 
    141 H141      -46.6400  -28.4460   10.2224 H         1 UNK         0.0806 
    142 H142      -45.5374  -25.5149    8.4375 H         1 UNK         0.3061 
    143 H143      -44.1823  -22.3405    9.1867 H         1 UNK         0.0734 
    144 H144      -42.1697  -23.7896    9.4491 H         1 UNK         0.0832 
    145 H145      -42.7058  -24.8124    8.1242 H         1 UNK         0.0832 
    146 H146      -42.2599  -23.1316    7.8247 H         1 UNK         0.0832 
    147 H147      -44.5552  -23.8663    6.7585 H         1 UNK         0.3156 
    148 H148      -47.8664  -22.6932    6.1220 H         1 UNK         0.0589 
    149 H149      -45.1882  -22.0789    4.7623 H         1 UNK         0.0808 
    150 H150      -46.7880  -21.9343    4.0332 H         1 UNK         0.0808 
    151 H151      -46.3263  -20.8779    5.3558 H         1 UNK         0.0808 
    152 H152      -46.2573  -24.3579    4.5369 H         1 UNK         0.3098 
    153 H153      -47.1779  -26.4990    4.2025 H         1 UNK         0.0720 
    154 H154      -45.5528  -28.2532    4.9897 H         1 UNK         0.0791 
    155 H155      -45.5204  -27.5306    6.5941 H         1 UNK         0.0791 
    156 H156      -44.8666  -26.6553    5.2158 H         1 UNK         0.0791 
    157 H157      -48.5729  -27.2494    6.5772 H         1 UNK         0.3028 
@<TRIPOS>BOND
     1    1    2 1    
     2    1   82 1    
     3    1   83 1    
     4    1   84 1    
     5    2    3 2    
     6    2    4 am   BACKBONE|DICT|INTERRES
     7    4    5 1    
     8    4   85 1    
     9    5    6 1    
    10    5   80 1    
    11    5   86 1    
    12    6    7 1    
    13    6   87 1    
    14    6   88 1    
    15    7    8 1    
    16    8    9 1    
    17    8   89 1    
    18    8   90 1    
    19    9   10 ar   
    20    9   14 ar   
    21   10   11 ar   
    22   10   91 1    
    23   11   12 ar   
    24   11   58 1    
    25   12   13 ar   
    26   12   92 1    
    27   13   14 ar   
    28   13   15 1    
    29   14   93 1    
    30   15   16 1    
    31   15   94 1    
    32   15   95 1    
    33   16   17 1    
    34   17   18 1    
    35   17   96 1    
    36   17   97 1    
    37   18   19 1    
    38   18   22 1    
    39   18   98 1    
    40   19   20 am   BACKBONE|DICT|INTERRES
    41   19   21 2    
    42   20   99 1    
    43   20  100 1    
    44   22   23 am   BACKBONE|DICT|INTERRES
    45   22  101 1    
    46   23   24 2    
    47   23   25 1    
    48   25   26 1    
    49   25   27 1    
    50   25  102 1    
    51   26  103 1    
    52   26  104 1    
    53   26  105 1    
    54   27   28 am   BACKBONE|DICT|INTERRES
    55   27  106 1    
    56   28   29 2    
    57   28   30 1    
    58   30   31 1    
    59   30   32 1    
    60   30  107 1    
    61   31  108 1    
    62   31  109 1    
    63   31  110 1    
    64   32   33 am   BACKBONE|DICT|INTERRES
    65   32  111 1    
    66   33   34 2    
    67   33   35 1    
    68   35   36 1    
    69   35   37 1    
    70   35  112 1    
    71   36  113 1    
    72   36  114 1    
    73   36  115 1    
    74   37   38 am   BACKBONE|DICT|INTERRES
    75   37  116 1    
    76   38   39 2    
    77   38   40 1    
    78   40   41 1    
    79   40   42 1    
    80   40  117 1    
    81   41  118 1    
    82   41  119 1    
    83   41  120 1    
    84   42   43 am   BACKBONE|DICT|INTERRES
    85   42  121 1    
    86   43   44 2    
    87   43   45 1    
    88   45   46 1    
    89   45   47 1    
    90   45  122 1    
    91   46  123 1    
    92   46  124 1    
    93   46  125 1    
    94   47   48 am   BACKBONE|DICT|INTERRES
    95   47  126 1    
    96   48   49 2    
    97   48   50 1    
    98   50   51 1    
    99   50   52 1    
   100   50  127 1    
   101   51  128 1    
   102   51  129 1    
   103   51  130 1    
   104   52   53 am   BACKBONE|DICT|INTERRES
   105   52  131 1    
   106   53   54 2    
   107   53   55 1    
   108   55   56 1    
   109   55   59 1    
   110   55  132 1    
   111   56   57 1    
   112   56  133 1    
   113   56  134 1    
   114   57   58 1    
   115   58  135 1    
   116   58  136 1    
   117   59   60 am   BACKBONE|DICT|INTERRES
   118   59  137 1    
   119   60   61 2    
   120   60   62 1    
   121   62   63 1    
   122   62   64 1    
   123   62  138 1    
   124   63  139 1    
   125   63  140 1    
   126   63  141 1    
   127   64   65 am   BACKBONE|DICT|INTERRES
   128   64  142 1    
   129   65   66 2    
   130   65   67 1    
   131   67   68 1    
   132   67   69 1    
   133   67  143 1    
   134   68  144 1    
   135   68  145 1    
   136   68  146 1    
   137   69   70 am   BACKBONE|DICT|INTERRES
   138   69  147 1    
   139   70   71 2    
   140   70   72 1    
   141   72   73 1    
   142   72   74 1    
   143   72  148 1    
   144   73  149 1    
   145   73  150 1    
   146   73  151 1    
   147   74   75 am   BACKBONE|DICT|INTERRES
   148   74  152 1    
   149   75   76 2    
   150   75   77 1    
   151   77   78 1    
   152   77   79 1    
   153   77  153 1    
   154   78  154 1    
   155   78  155 1    
   156   78  156 1    
   157   79   80 am   BACKBONE|DICT|INTERRES
   158   79  157 1    
   159   80   81 2    
@<TRIPOS>SUBSTRUCTURE
     1 UNK         1 GROUP             0       ****    0 ROOT    
