@<TRIPOS>MOLECULE
3R207
157   159    1
SMALL
USER_CHARGES


@<TRIPOS>ATOM
      1 CA        -46.1219  -26.9228    3.8360 C.3       0 UNK        -0.1975 
      2 C         -47.3639  -26.5740    4.6417 C.2       0 UNK         0.4852 
      3 O         -47.9442  -25.5060    4.4401 O.2       0 UNK        -0.5216 
      4 N         -47.7749  -27.4648    5.5550 N.am      1 UNK        -0.4461 
      5 CA        -48.9113  -27.2831    6.4641 C.3       1 UNK         0.0864 
      6 C6        -49.1266  -28.5039    7.3853 C.3       14 UNK        -0.0898 
      7 S7        -49.4143  -30.0778    6.5101 S.3       14 UNK        -0.2598 
      8 C8        -51.1714  -30.4309    6.8919 C.3       14 UNK         0.0286 
      9 C9        -51.5470  -30.4625    8.3780 C.ar      14 UNK        -0.0844 
     10 C10       -50.6115  -30.7209    9.3891 C.ar      14 UNK        -0.0881 
     11 C11       -50.9799  -30.6648   10.7380 C.ar      14 UNK        -0.0643 
     12 C12       -52.3113  -30.4137   11.0773 C.ar      14 UNK        -0.0930 
     13 C13       -53.2662  -30.2031   10.0797 C.ar      14 UNK        -0.0827 
     14 C14       -52.8764  -30.2177    8.7373 C.ar      14 UNK        -0.1249 
     15 C15       -54.7228  -29.9819   10.4502 C.3       14 UNK         0.0141 
     16 S16       -55.0970  -28.2230   10.7235 S.3       14 UNK        -0.2313 
     17 C17       -56.8928  -28.3230   11.0423 C.3       14 UNK        -0.0915 
     18 CA        -57.3175  -27.8398   12.4615 C.3       13 UNK         0.0968 
     19 C         -58.8644  -27.8760   12.6572 C.2       13 UNK         0.5732 
     20 N         -59.3923  -28.2896   13.8046 N.am      13 UNK        -0.7310 
     21 O         -59.6086  -27.4902   11.7584 O.2       13 UNK        -0.5035 
     22 N         -56.5575  -28.4469   13.5658 N.am      13 UNK        -0.4233 
     23 C         -56.4535  -29.7523   13.8523 C.2       13 UNK         0.4989 
     24 O         -56.9142  -30.6578   13.1573 O.2       13 UNK        -0.4996 
     25 CA        -55.7449  -30.1110   15.1715 C.3       12 UNK         0.0216 
     26 CB        -54.2499  -30.3737   14.9308 C.3       12 UNK        -0.1964 
     27 N         -55.9150  -29.0859   16.2091 N.am      12 UNK        -0.4276 
     28 C         -57.1004  -28.7711   16.7566 C.2       12 UNK         0.5020 
     29 O         -58.1512  -29.3509   16.4790 O.2       12 UNK        -0.5489 
     30 CA        -57.1494  -27.5902   17.7419 C.3       11 UNK         0.0294 
     31 CB        -57.0558  -28.0975   19.1898 C.3       11 UNK        -0.2019 
     32 N         -56.1254  -26.5656   17.5220 N.am      11 UNK        -0.4493 
     33 C         -55.9460  -25.8575   16.3979 C.2       11 UNK         0.4932 
     34 O         -56.6104  -26.0137   15.3724 O.2       11 UNK        -0.5029 
     35 CA        -54.8152  -24.8125   16.4002 C.3       10 UNK         0.0280 
     36 CB        -54.1987  -24.5446   17.7928 C.3       10 UNK        -0.1976 
     37 N         -53.7570  -25.1458   15.4427 N.am      10 UNK        -0.4242 
     38 C         -53.0546  -26.2882   15.3647 C.2       10 UNK         0.5072 
     39 O         -53.2745  -27.2861   16.0548 O.2       10 UNK        -0.5224 
     40 CA        -51.8934  -26.3126   14.3510 C.3       9 UNK         0.0343 
     41 CB        -52.3798  -26.8824   13.0073 C.3       9 UNK        -0.2003 
     42 N         -51.2684  -24.9999   14.1269 N.am      9 UNK        -0.4272 
     43 C         -50.6699  -24.2485   15.0669 C.2       9 UNK         0.4988 
     44 O         -50.5288  -24.6019   16.2390 O.2       9 UNK        -0.5108 
     45 CA        -50.1671  -22.8616   14.6115 C.3       8 UNK         0.0248 
     46 CB        -49.4390  -22.0793   15.7269 C.3       8 UNK        -0.2001 
     47 N         -49.3526  -22.9320   13.3921 N.am      8 UNK        -0.4140 
     48 C         -48.1954  -23.5913   13.2375 C.2       8 UNK         0.5028 
     49 O         -47.5809  -24.1551   14.1466 O.2       8 UNK        -0.5428 
     50 CA        -47.6362  -23.6504   11.8061 C.3       7 UNK         0.0264 
     51 CB        -46.4140  -22.7337   11.6442 C.3       7 UNK        -0.1988 
     52 N         -47.2728  -25.0233   11.4526 N.am      7 UNK        -0.4454 
     53 C         -48.1544  -26.0318   11.3661 C.2       7 UNK         0.5027 
     54 O         -49.3735  -25.8660   11.4263 O.2       7 UNK        -0.5083 
     55 CA        -47.5674  -27.4361   11.1417 C.3       6 UNK         0.0844 
     56 C56       -48.6220  -28.5468   10.9089 C.3       14 UNK        -0.0967 
     57 S57       -49.3044  -29.2540   12.4442 S.3       14 UNK        -0.2604 
     58 C58       -49.9343  -30.8524   11.8296 C.3       14 UNK         0.0134 
     59 N         -46.6114  -27.3529   10.0438 N.am      6 UNK        -0.4116 
     60 C         -45.4612  -28.0255    9.9686 C.2       5 UNK         0.5034 
     61 O         -45.1085  -28.8824   10.7797 O.2       5 UNK        -0.5045 
     62 CA        -44.5292  -27.6721    8.7966 C.3       5 UNK         0.0224 
     63 CB        -44.7770  -28.6243    7.6159 C.3       5 UNK        -0.1978 
     64 N         -44.6052  -26.2825    8.3201 N.am      5 UNK        -0.4737 
     65 C         -44.4181  -25.1827    9.0655 C.2       4 UNK         0.5027 
     66 O         -44.3258  -25.1830   10.2931 O.2       4 UNK        -0.5211 
     67 CA        -44.2877  -23.8621    8.3026 C.3       4 UNK         0.0297 
     68 CB        -43.0780  -23.9001    7.3424 C.3       4 UNK        -0.1993 
     69 N         -45.5240  -23.5273    7.5916 N.am      4 UNK        -0.4486 
     70 C         -45.7827  -22.3091    7.0887 C.2       3 UNK         0.4961 
     71 O         -45.0154  -21.3514    7.1962 O.2       3 UNK        -0.5105 
     72 CA        -47.1021  -22.0992    6.3237 C.3       3 UNK         0.0299 
     73 CB        -46.8701  -22.2550    4.8123 C.3       3 UNK        -0.1972 
     74 N         -48.1745  -22.9978    6.7471 N.am      3 UNK        -0.4305 
     75 C         -48.8091  -22.9148    7.9260 C.2       2 UNK         0.5006 
     76 O         -48.5972  -22.0250    8.7502 O.2       2 UNK        -0.5106 
     77 CA        -49.8551  -23.9974    8.2597 C.3       2 UNK         0.0296 
     78 CB        -51.2762  -23.4155    8.1846 C.3       2 UNK        -0.2002 
     79 N         -49.7913  -25.2102    7.4369 N.am      2 UNK        -0.4032 
     80 C         -48.7337  -26.0260    7.3394 C.2       1 UNK         0.5000 
     81 O         -47.6544  -25.8252    7.9066 O.2       1 UNK        -0.5238 
     82 H82       -45.3599  -26.1561    3.9732 H         1 UNK         0.0889 
     83 H83       -46.3662  -26.9750    2.7754 H         1 UNK         0.0889 
     84 H84       -45.6970  -27.8809    4.1350 H         1 UNK         0.0889 
     85 H85       -47.2807  -28.3391    5.6546 H         1 UNK         0.3028 
     86 H86       -49.8012  -27.1564    5.8441 H         1 UNK         0.0864 
     87 H87       -48.2570  -28.6508    8.0271 H         1 UNK         0.0720 
     88 H88       -49.9700  -28.3103    8.0488 H         1 UNK         0.0720 
     89 H89       -51.4329  -31.3931    6.4501 H         1 UNK         0.0814 
     90 H90       -51.7789  -29.6832    6.3793 H         1 UNK         0.0814 
     91 H91       -49.5828  -30.9298    9.1333 H         1 UNK         0.1469 
     92 H92       -52.6022  -30.3774   12.1182 H         1 UNK         0.1381 
     93 H93       -53.6149  -30.0358    7.9681 H         1 UNK         0.1206 
     94 H94       -55.3683  -30.3701    9.6607 H         1 UNK         0.0813 
     95 H95       -54.9630  -30.5507   11.3484 H         1 UNK         0.0813 
     96 H96       -57.3810  -27.7129   10.2805 H         1 UNK         0.0638 
     97 H97       -57.2433  -29.3415   10.8689 H         1 UNK         0.0638 
     98 H98       -57.0677  -26.7799   12.5170 H         1 UNK         0.0568 
     99 H99       -60.3944  -28.2910   13.9070 H         1 UNK         0.3450 
    100 H100      -58.8105  -28.6157   14.5654 H         1 UNK         0.3450 
    101 H101      -56.2079  -27.7794   14.2423 H         1 UNK         0.2987 
    102 H102      -56.1943  -31.0347   15.5424 H         1 UNK         0.0766 
    103 H103      -54.1074  -31.1690   14.1978 H         1 UNK         0.0798 
    104 H104      -53.7476  -30.6837   15.8473 H         1 UNK         0.0798 
    105 H105      -53.7398  -29.4887   14.5529 H         1 UNK         0.0798 
    106 H106      -55.0976  -28.5379   16.4562 H         1 UNK         0.3198 
    107 H107      -58.1202  -27.1070   17.6118 H         1 UNK         0.0843 
    108 H108      -56.0900  -28.5619   19.3938 H         1 UNK         0.0831 
    109 H109      -57.8250  -28.8446   19.3918 H         1 UNK         0.0831 
    110 H110      -57.1993  -27.2882   19.9061 H         1 UNK         0.0831 
    111 H111      -55.5033  -26.3790   18.2953 H         1 UNK         0.3133 
    112 H112      -55.2643  -23.8804   16.0544 H         1 UNK         0.0566 
    113 H113      -53.4675  -23.7375   17.7431 H         1 UNK         0.0814 
    114 H114      -54.9587  -24.2379   18.5130 H         1 UNK         0.0814 
    115 H115      -53.6852  -25.4194   18.1941 H         1 UNK         0.0814 
    116 H116      -53.5188  -24.4153   14.7878 H         1 UNK         0.3091 
    117 H117      -51.1254  -26.9792   14.7484 H         1 UNK         0.0702 
    118 H118      -52.8462  -27.8587   13.1375 H         1 UNK         0.0785 
    119 H119      -51.5548  -27.0212   12.3094 H         1 UNK         0.0785 
    120 H120      -53.1161  -26.2334   12.5320 H         1 UNK         0.0785 
    121 H121      -51.2820  -24.6584   13.1764 H         1 UNK         0.2998 
    122 H122      -51.0588  -22.2903   14.3490 H         1 UNK         0.0697 
    123 H123      -48.5556  -22.6077   16.0865 H         1 UNK         0.0825 
    124 H124      -50.0941  -21.9256   16.5853 H         1 UNK         0.0825 
    125 H125      -49.1233  -21.0952   15.3808 H         1 UNK         0.0825 
    126 H126      -49.7612  -22.4989   12.5751 H         1 UNK         0.3029 
    127 H127      -48.4079  -23.3165   11.1110 H         1 UNK         0.0897 
    128 H128      -46.0738  -22.7127   10.6089 H         1 UNK         0.0792 
    129 H129      -45.5797  -23.0577   12.2677 H         1 UNK         0.0792 
    130 H130      -46.6553  -21.7075   11.9243 H         1 UNK         0.0792 
    131 H131      -46.2831  -25.2257   11.3698 H         1 UNK         0.3086 
    132 H132      -47.0148  -27.6714   12.0541 H         1 UNK         0.0583 
    133 H133      -49.4451  -28.1909   10.2886 H         1 UNK         0.1020 
    134 H134      -48.1615  -29.3694   10.3607 H         1 UNK         0.1020 
    135 H135      -49.1010  -31.4541   11.4631 H         1 UNK         0.0694 
    136 H136      -50.3667  -31.4067   12.6639 H         1 UNK         0.0694 
    137 H137      -46.8315  -26.6778    9.3126 H         1 UNK         0.2989 
    138 H138      -43.5083  -27.8288    9.1514 H         1 UNK         0.1055 
    139 H139      -45.7821  -28.5074    7.2134 H         1 UNK         0.0806 
    140 H140      -44.6707  -29.6653    7.9249 H         1 UNK         0.0806 
    141 H141      -44.0653  -28.4547    6.8076 H         1 UNK         0.0806 
    142 H142      -44.6957  -26.1626    7.3223 H         1 UNK         0.3061 
    143 H143      -44.1033  -23.0854    9.0481 H         1 UNK         0.0734 
    144 H144      -42.8419  -22.9092    6.9552 H         1 UNK         0.0832 
    145 H145      -42.1834  -24.2601    7.8529 H         1 UNK         0.0832 
    146 H146      -43.2537  -24.5548    6.4885 H         1 UNK         0.0832 
    147 H147      -46.2319  -24.2537    7.5376 H         1 UNK         0.3156 
    148 H148      -47.4311  -21.0744    6.5089 H         1 UNK         0.0589 
    149 H149      -46.4983  -23.2488    4.5607 H         1 UNK         0.0808 
    150 H150      -47.7868  -22.0854    4.2472 H         1 UNK         0.0808 
    151 H151      -46.1324  -21.5345    4.4563 H         1 UNK         0.0808 
    152 H152      -48.3975  -23.7638    6.1247 H         1 UNK         0.3098 
    153 H153      -49.6719  -24.3015    9.2904 H         1 UNK         0.0720 
    154 H154      -51.3709  -22.5296    8.8144 H         1 UNK         0.0791 
    155 H155      -52.0189  -24.1345    8.5309 H         1 UNK         0.0791 
    156 H156      -51.5383  -23.1213    7.1675 H         1 UNK         0.0791 
    157 H157      -50.6313  -25.4432    6.9267 H         1 UNK         0.3028 
@<TRIPOS>BOND
     1    1    2 1    
     2    1   82 1    
     3    1   83 1    
     4    1   84 1    
     5    2    3 2    
     6    2    4 am   BACKBONE|DICT|INTERRES
     7    4    5 1    
     8    4   85 1    
     9    5    6 1    
    10    5   80 1    
    11    5   86 1    
    12    6    7 1    
    13    6   87 1    
    14    6   88 1    
    15    7    8 1    
    16    8    9 1    
    17    8   89 1    
    18    8   90 1    
    19    9   10 ar   
    20    9   14 ar   
    21   10   11 ar   
    22   10   91 1    
    23   11   12 ar   
    24   11   58 1    
    25   12   13 ar   
    26   12   92 1    
    27   13   14 ar   
    28   13   15 1    
    29   14   93 1    
    30   15   16 1    
    31   15   94 1    
    32   15   95 1    
    33   16   17 1    
    34   17   18 1    
    35   17   96 1    
    36   17   97 1    
    37   18   19 1    
    38   18   22 1    
    39   18   98 1    
    40   19   20 am   BACKBONE|DICT|INTERRES
    41   19   21 2    
    42   20   99 1    
    43   20  100 1    
    44   22   23 am   BACKBONE|DICT|INTERRES
    45   22  101 1    
    46   23   24 2    
    47   23   25 1    
    48   25   26 1    
    49   25   27 1    
    50   25  102 1    
    51   26  103 1    
    52   26  104 1    
    53   26  105 1    
    54   27   28 am   BACKBONE|DICT|INTERRES
    55   27  106 1    
    56   28   29 2    
    57   28   30 1    
    58   30   31 1    
    59   30   32 1    
    60   30  107 1    
    61   31  108 1    
    62   31  109 1    
    63   31  110 1    
    64   32   33 am   BACKBONE|DICT|INTERRES
    65   32  111 1    
    66   33   34 2    
    67   33   35 1    
    68   35   36 1    
    69   35   37 1    
    70   35  112 1    
    71   36  113 1    
    72   36  114 1    
    73   36  115 1    
    74   37   38 am   BACKBONE|DICT|INTERRES
    75   37  116 1    
    76   38   39 2    
    77   38   40 1    
    78   40   41 1    
    79   40   42 1    
    80   40  117 1    
    81   41  118 1    
    82   41  119 1    
    83   41  120 1    
    84   42   43 am   BACKBONE|DICT|INTERRES
    85   42  121 1    
    86   43   44 2    
    87   43   45 1    
    88   45   46 1    
    89   45   47 1    
    90   45  122 1    
    91   46  123 1    
    92   46  124 1    
    93   46  125 1    
    94   47   48 am   BACKBONE|DICT|INTERRES
    95   47  126 1    
    96   48   49 2    
    97   48   50 1    
    98   50   51 1    
    99   50   52 1    
   100   50  127 1    
   101   51  128 1    
   102   51  129 1    
   103   51  130 1    
   104   52   53 am   BACKBONE|DICT|INTERRES
   105   52  131 1    
   106   53   54 2    
   107   53   55 1    
   108   55   56 1    
   109   55   59 1    
   110   55  132 1    
   111   56   57 1    
   112   56  133 1    
   113   56  134 1    
   114   57   58 1    
   115   58  135 1    
   116   58  136 1    
   117   59   60 am   BACKBONE|DICT|INTERRES
   118   59  137 1    
   119   60   61 2    
   120   60   62 1    
   121   62   63 1    
   122   62   64 1    
   123   62  138 1    
   124   63  139 1    
   125   63  140 1    
   126   63  141 1    
   127   64   65 am   BACKBONE|DICT|INTERRES
   128   64  142 1    
   129   65   66 2    
   130   65   67 1    
   131   67   68 1    
   132   67   69 1    
   133   67  143 1    
   134   68  144 1    
   135   68  145 1    
   136   68  146 1    
   137   69   70 am   BACKBONE|DICT|INTERRES
   138   69  147 1    
   139   70   71 2    
   140   70   72 1    
   141   72   73 1    
   142   72   74 1    
   143   72  148 1    
   144   73  149 1    
   145   73  150 1    
   146   73  151 1    
   147   74   75 am   BACKBONE|DICT|INTERRES
   148   74  152 1    
   149   75   76 2    
   150   75   77 1    
   151   77   78 1    
   152   77   79 1    
   153   77  153 1    
   154   78  154 1    
   155   78  155 1    
   156   78  156 1    
   157   79   80 am   BACKBONE|DICT|INTERRES
   158   79  157 1    
   159   80   81 2    
@<TRIPOS>SUBSTRUCTURE
     1 UNK         1 GROUP             0       ****    0 ROOT    
