@<TRIPOS>MOLECULE
3R207
157   159    1
SMALL
USER_CHARGES


@<TRIPOS>ATOM
      1 CA        -44.8580  -29.8035    9.1035 C.3       0 UNK        -0.1975 
      2 C         -45.6336  -28.7153    8.3785 C.2       0 UNK         0.4852 
      3 O         -45.4019  -27.5335    8.6348 O.2       0 UNK        -0.5216 
      4 N         -46.5298  -29.1052    7.4593 N.am      1 UNK        -0.4461 
      5 CA        -47.4529  -28.2462    6.6953 C.3       1 UNK         0.0864 
      6 C6        -48.6568  -27.7397    7.5395 C.3       14 UNK        -0.0898 
      7 S7        -49.5739  -29.1159    8.3123 S.3       14 UNK        -0.2598 
      8 C8        -50.9978  -29.3415    7.1970 C.3       14 UNK         0.0286 
      9 C9        -52.2726  -28.7677    7.7985 C.ar      14 UNK        -0.0844 
     10 C10       -52.8318  -27.5875    7.3004 C.ar      14 UNK        -0.0881 
     11 C11       -53.9817  -27.0446    7.8851 C.ar      14 UNK        -0.0643 
     12 C12       -54.6045  -27.7268    8.9356 C.ar      14 UNK        -0.0930 
     13 C13       -54.0735  -28.9246    9.4231 C.ar      14 UNK        -0.0827 
     14 C14       -52.9021  -29.4331    8.8546 C.ar      14 UNK        -0.1249 
     15 C15       -54.7687  -29.6859   10.5459 C.3       14 UNK         0.0141 
     16 S16       -54.8170  -28.7336   12.0963 S.3       14 UNK        -0.2313 
     17 C17       -56.4789  -27.9712   12.0442 C.3       14 UNK        -0.0915 
     18 CA        -57.3075  -28.2208   13.3331 C.3       13 UNK         0.0968 
     19 C         -57.8035  -29.6938   13.4439 C.2       13 UNK         0.5732 
     20 N         -57.4217  -30.4606   14.4599 N.am      13 UNK        -0.7310 
     21 O         -58.5656  -30.1456   12.5924 O.2       13 UNK        -0.5035 
     22 N         -56.5976  -27.7231   14.5178 N.am      13 UNK        -0.4233 
     23 C         -57.1608  -27.3886   15.6844 C.2       13 UNK         0.4989 
     24 O         -58.3791  -27.3350   15.8613 O.2       13 UNK        -0.4996 
     25 CA        -56.1978  -27.0609   16.8478 C.3       12 UNK         0.0216 
     26 CB        -56.8161  -27.3737   18.2272 C.3       12 UNK        -0.1964 
     27 N         -54.8683  -27.6859   16.7271 N.am      12 UNK        -0.4276 
     28 C         -54.6020  -28.9996   16.6391 C.2       12 UNK         0.5020 
     29 O         -55.4761  -29.8678   16.6207 O.2       12 UNK        -0.5489 
     30 CA        -53.1330  -29.4345   16.5003 C.3       11 UNK         0.0294 
     31 CB        -52.8925  -30.0883   15.1289 C.3       11 UNK        -0.2019 
     32 N         -52.1647  -28.3483   16.6740 N.am      11 UNK        -0.4493 
     33 C         -51.6634  -27.9576   17.8535 C.2       11 UNK         0.4932 
     34 O         -52.0484  -28.3977   18.9367 O.2       11 UNK        -0.5029 
     35 CA        -50.5337  -26.9173   17.8269 C.3       10 UNK         0.0280 
     36 CB        -49.1956  -27.5908   17.4790 C.3       10 UNK        -0.1976 
     37 N         -50.8008  -25.8500   16.8612 N.am      10 UNK        -0.4242 
     38 C         -50.9107  -24.5484   17.1649 C.2       10 UNK         0.5072 
     39 O         -50.7648  -24.0931   18.3005 O.2       10 UNK        -0.5224 
     40 CA        -51.2376  -23.5722   16.0153 C.3       9 UNK         0.0343 
     41 CB        -49.9510  -22.9147   15.4900 C.3       9 UNK        -0.2003 
     42 N         -51.9513  -24.1832   14.8915 N.am      9 UNK        -0.4272 
     43 C         -53.1618  -24.7530   14.9669 C.2       9 UNK         0.4988 
     44 O         -53.8499  -24.7694   15.9865 O.2       9 UNK        -0.5108 
     45 CA        -53.6808  -25.4750   13.7124 C.3       8 UNK         0.0248 
     46 CB        -54.5740  -24.5299   12.8932 C.3       8 UNK        -0.2001 
     47 N         -52.6535  -26.0416   12.8323 N.am      8 UNK        -0.4140 
     48 C         -51.6185  -26.8254   13.1708 C.2       8 UNK         0.5028 
     49 O         -51.3453  -27.1324   14.3325 O.2       8 UNK        -0.5428 
     50 CA        -50.7319  -27.3584   12.0294 C.3       7 UNK         0.0264 
     51 CB        -50.8459  -28.8886   11.9380 C.3       7 UNK        -0.1988 
     52 N         -51.0224  -26.7671   10.7156 N.am      7 UNK        -0.4454 
     53 C         -50.7328  -25.5030   10.3764 C.2       7 UNK         0.5027 
     54 O         -50.1976  -24.6985   11.1412 O.2       7 UNK        -0.5083 
     55 CA        -51.1642  -25.0461    8.9773 C.3       6 UNK         0.0844 
     56 C56       -52.5914  -24.4316    9.0065 C.3       14 UNK        -0.0967 
     57 S57       -53.3497  -24.3563    7.3481 S.3       14 UNK        -0.2604 
     58 C58       -54.5625  -25.7228    7.3908 C.3       14 UNK         0.0134 
     59 N         -50.1442  -24.1217    8.4950 N.am      6 UNK        -0.4116 
     60 C         -49.7040  -24.0193    7.2365 C.2       5 UNK         0.5034 
     61 O         -50.2229  -24.5833    6.2732 O.2       5 UNK        -0.5045 
     62 CA        -48.4223  -23.1987    7.0164 C.3       5 UNK         0.0224 
     63 CB        -48.6855  -21.6796    7.0549 C.3       5 UNK        -0.1978 
     64 N         -47.3361  -23.6223    7.9139 N.am      5 UNK        -0.4737 
     65 C         -47.2050  -23.4097    9.2312 C.2       4 UNK         0.5027 
     66 O         -47.9565  -22.6839    9.8813 O.2       4 UNK        -0.5211 
     67 CA        -46.0963  -24.1769    9.9708 C.3       4 UNK         0.0297 
     68 CB        -46.7119  -25.2771   10.8529 C.3       4 UNK        -0.1993 
     69 N         -45.1089  -24.7902    9.0798 N.am      4 UNK        -0.4486 
     70 C         -44.0612  -24.1469    8.5489 C.2       3 UNK         0.4961 
     71 O         -43.8441  -22.9446    8.7015 O.2       3 UNK        -0.5105 
     72 CA        -43.0846  -24.9904    7.7182 C.3       3 UNK         0.0299 
     73 CB        -42.2233  -25.8801    8.6310 C.3       3 UNK        -0.1972 
     74 N         -43.7909  -25.8276    6.7481 N.am      3 UNK        -0.4305 
     75 C         -44.0058  -25.4888    5.4690 C.2       2 UNK         0.5006 
     76 O         -43.6311  -24.4261    4.9714 O.2       2 UNK        -0.5106 
     77 CA        -44.7421  -26.5044    4.5725 C.3       2 UNK         0.0296 
     78 CB        -43.7330  -27.2963    3.7244 C.3       2 UNK        -0.2002 
     79 N         -45.5969  -27.4464    5.3007 N.am      2 UNK        -0.4032 
     80 C         -46.7203  -27.1073    5.9489 C.2       1 UNK         0.5000 
     81 O         -47.1434  -25.9530    5.9995 O.2       1 UNK        -0.5238 
     82 H82       -43.7895  -29.6817    8.9283 H         1 UNK         0.0889 
     83 H83       -45.1466  -30.8009    8.7728 H         1 UNK         0.0889 
     84 H84       -45.0374  -29.7358   10.1760 H         1 UNK         0.0889 
     85 H85       -46.6530  -30.0958    7.3011 H         1 UNK         0.3028 
     86 H86       -47.8633  -28.8792    5.9069 H         1 UNK         0.0864 
     87 H87       -49.3446  -27.1549    6.9266 H         1 UNK         0.0720 
     88 H88       -48.3130  -27.0717    8.3306 H         1 UNK         0.0720 
     89 H89       -51.1373  -30.4097    7.0244 H         1 UNK         0.0814 
     90 H90       -50.7914  -28.9048    6.2188 H         1 UNK         0.0814 
     91 H91       -52.3533  -27.0666    6.4814 H         1 UNK         0.1469 
     92 H92       -55.5052  -27.3253    9.3785 H         1 UNK         0.1381 
     93 H93       -52.4758  -30.3537    9.2301 H         1 UNK         0.1206 
     94 H94       -54.2446  -30.6212   10.7475 H         1 UNK         0.0813 
     95 H95       -55.7738  -29.9709   10.2336 H         1 UNK         0.0813 
     96 H96       -57.0290  -28.3128   11.1663 H         1 UNK         0.0638 
     97 H97       -56.3488  -26.8992   11.9003 H         1 UNK         0.0638 
     98 H98       -58.2166  -27.6244   13.2368 H         1 UNK         0.0568 
     99 H99       -57.7619  -31.4070   14.5108 H         1 UNK         0.3450 
    100 H100      -56.7866  -30.1182   15.1743 H         1 UNK         0.3450 
    101 H101      -55.5929  -27.7841   14.4701 H         1 UNK         0.2987 
    102 H102      -56.0366  -25.9836   16.8018 H         1 UNK         0.0766 
    103 H103      -57.7310  -26.8019   18.3876 H         1 UNK         0.0798 
    104 H104      -56.1314  -27.1172   19.0355 H         1 UNK         0.0798 
    105 H105      -57.0712  -28.4294   18.3259 H         1 UNK         0.0798 
    106 H106      -54.0865  -27.0432   16.7210 H         1 UNK         0.3198 
    107 H107      -52.9562  -30.1933   17.2659 H         1 UNK         0.0843 
    108 H108      -53.0213  -29.3753   14.3159 H         1 UNK         0.0831 
    109 H109      -53.5869  -30.9113   14.9536 H         1 UNK         0.0831 
    110 H110      -51.8844  -30.4964   15.0565 H         1 UNK         0.0831 
    111 H111      -51.7956  -27.9373   15.8157 H         1 UNK         0.3133 
    112 H112      -50.4505  -26.5086   18.8360 H         1 UNK         0.0566 
    113 H113      -48.3708  -26.8803   17.5349 H         1 UNK         0.0814 
    114 H114      -49.2041  -28.0140   16.4734 H         1 UNK         0.0814 
    115 H115      -48.9727  -28.4015   18.1742 H         1 UNK         0.0814 
    116 H116      -50.9480  -26.1385   15.8970 H         1 UNK         0.3091 
    117 H117      -51.8798  -22.7905   16.4267 H         1 UNK         0.0702 
    118 H118      -50.1705  -22.1534   14.7411 H         1 UNK         0.0785 
    119 H119      -49.2794  -23.6466   15.0389 H         1 UNK         0.0785 
    120 H120      -49.4047  -22.4245   16.2972 H         1 UNK         0.0785 
    121 H121      -51.4582  -24.2289   14.0109 H         1 UNK         0.2998 
    122 H122      -54.2874  -26.3119   14.0551 H         1 UNK         0.0697 
    123 H123      -54.0209  -23.6575   12.5426 H         1 UNK         0.0825 
    124 H124      -55.4101  -24.1666   13.4927 H         1 UNK         0.0825 
    125 H125      -54.9953  -25.0268   12.0202 H         1 UNK         0.0825 
    126 H126      -52.7797  -25.8735   11.8471 H         1 UNK         0.3029 
    127 H127      -49.7008  -27.1114   12.2915 H         1 UNK         0.0897 
    128 H128      -51.8477  -29.2036   11.6471 H         1 UNK         0.0792 
    129 H129      -50.6242  -29.3572   12.8978 H         1 UNK         0.0792 
    130 H130      -50.1410  -29.2974   11.2153 H         1 UNK         0.0792 
    131 H131      -51.4624  -27.3749   10.0356 H         1 UNK         0.3086 
    132 H132      -51.1443  -25.9286    8.3409 H         1 UNK         0.0583 
    133 H133      -53.2580  -24.9996    9.6579 H         1 UNK         0.1020 
    134 H134      -52.5631  -23.4234    9.4240 H         1 UNK         0.1020 
    135 H135      -55.4023  -25.4138    8.0154 H         1 UNK         0.0694 
    136 H136      -54.9640  -25.8675    6.3871 H         1 UNK         0.0694 
    137 H137      -49.6206  -23.6461    9.2263 H         1 UNK         0.2989 
    138 H138      -48.0728  -23.4353    6.0099 H         1 UNK         0.1055 
    139 H139      -49.1218  -21.3564    8.0000 H         1 UNK         0.0806 
    140 H140      -49.3834  -21.3921    6.2676 H         1 UNK         0.0806 
    141 H141      -47.7671  -21.1143    6.8971 H         1 UNK         0.0806 
    142 H142      -46.7037  -24.2949    7.4961 H         1 UNK         0.3061 
    143 H143      -45.5877  -23.4645   10.6240 H         1 UNK         0.0734 
    144 H144      -47.2526  -26.0155   10.2601 H         1 UNK         0.0832 
    145 H145      -45.9472  -25.8027   11.4248 H         1 UNK         0.0832 
    146 H146      -47.4188  -24.8553   11.5690 H         1 UNK         0.0832 
    147 H147      -45.2112  -25.7917    8.9104 H         1 UNK         0.3156 
    148 H148      -42.4109  -24.3066    7.1970 H         1 UNK         0.0589 
    149 H149      -42.8239  -26.6038    9.1837 H         1 UNK         0.0808 
    150 H150      -41.6826  -25.2788    9.3632 H         1 UNK         0.0808 
    151 H151      -41.4807  -26.4333    8.0558 H         1 UNK         0.0808 
    152 H152      -44.1927  -26.6873    7.1017 H         1 UNK         0.3098 
    153 H153      -45.3796  -25.9321    3.8950 H         1 UNK         0.0720 
    154 H154      -43.1003  -26.6248    3.1419 H         1 UNK         0.0791 
    155 H155      -44.2379  -27.9550    3.0174 H         1 UNK         0.0791 
    156 H156      -43.0753  -27.9070    4.3443 H         1 UNK         0.0791 
    157 H157      -45.3019  -28.4121    5.3209 H         1 UNK         0.3028 
@<TRIPOS>BOND
     1    1    2 1    
     2    1   82 1    
     3    1   83 1    
     4    1   84 1    
     5    2    3 2    
     6    2    4 am   BACKBONE|DICT|INTERRES
     7    4    5 1    
     8    4   85 1    
     9    5    6 1    
    10    5   80 1    
    11    5   86 1    
    12    6    7 1    
    13    6   87 1    
    14    6   88 1    
    15    7    8 1    
    16    8    9 1    
    17    8   89 1    
    18    8   90 1    
    19    9   10 ar   
    20    9   14 ar   
    21   10   11 ar   
    22   10   91 1    
    23   11   12 ar   
    24   11   58 1    
    25   12   13 ar   
    26   12   92 1    
    27   13   14 ar   
    28   13   15 1    
    29   14   93 1    
    30   15   16 1    
    31   15   94 1    
    32   15   95 1    
    33   16   17 1    
    34   17   18 1    
    35   17   96 1    
    36   17   97 1    
    37   18   19 1    
    38   18   22 1    
    39   18   98 1    
    40   19   20 am   BACKBONE|DICT|INTERRES
    41   19   21 2    
    42   20   99 1    
    43   20  100 1    
    44   22   23 am   BACKBONE|DICT|INTERRES
    45   22  101 1    
    46   23   24 2    
    47   23   25 1    
    48   25   26 1    
    49   25   27 1    
    50   25  102 1    
    51   26  103 1    
    52   26  104 1    
    53   26  105 1    
    54   27   28 am   BACKBONE|DICT|INTERRES
    55   27  106 1    
    56   28   29 2    
    57   28   30 1    
    58   30   31 1    
    59   30   32 1    
    60   30  107 1    
    61   31  108 1    
    62   31  109 1    
    63   31  110 1    
    64   32   33 am   BACKBONE|DICT|INTERRES
    65   32  111 1    
    66   33   34 2    
    67   33   35 1    
    68   35   36 1    
    69   35   37 1    
    70   35  112 1    
    71   36  113 1    
    72   36  114 1    
    73   36  115 1    
    74   37   38 am   BACKBONE|DICT|INTERRES
    75   37  116 1    
    76   38   39 2    
    77   38   40 1    
    78   40   41 1    
    79   40   42 1    
    80   40  117 1    
    81   41  118 1    
    82   41  119 1    
    83   41  120 1    
    84   42   43 am   BACKBONE|DICT|INTERRES
    85   42  121 1    
    86   43   44 2    
    87   43   45 1    
    88   45   46 1    
    89   45   47 1    
    90   45  122 1    
    91   46  123 1    
    92   46  124 1    
    93   46  125 1    
    94   47   48 am   BACKBONE|DICT|INTERRES
    95   47  126 1    
    96   48   49 2    
    97   48   50 1    
    98   50   51 1    
    99   50   52 1    
   100   50  127 1    
   101   51  128 1    
   102   51  129 1    
   103   51  130 1    
   104   52   53 am   BACKBONE|DICT|INTERRES
   105   52  131 1    
   106   53   54 2    
   107   53   55 1    
   108   55   56 1    
   109   55   59 1    
   110   55  132 1    
   111   56   57 1    
   112   56  133 1    
   113   56  134 1    
   114   57   58 1    
   115   58  135 1    
   116   58  136 1    
   117   59   60 am   BACKBONE|DICT|INTERRES
   118   59  137 1    
   119   60   61 2    
   120   60   62 1    
   121   62   63 1    
   122   62   64 1    
   123   62  138 1    
   124   63  139 1    
   125   63  140 1    
   126   63  141 1    
   127   64   65 am   BACKBONE|DICT|INTERRES
   128   64  142 1    
   129   65   66 2    
   130   65   67 1    
   131   67   68 1    
   132   67   69 1    
   133   67  143 1    
   134   68  144 1    
   135   68  145 1    
   136   68  146 1    
   137   69   70 am   BACKBONE|DICT|INTERRES
   138   69  147 1    
   139   70   71 2    
   140   70   72 1    
   141   72   73 1    
   142   72   74 1    
   143   72  148 1    
   144   73  149 1    
   145   73  150 1    
   146   73  151 1    
   147   74   75 am   BACKBONE|DICT|INTERRES
   148   74  152 1    
   149   75   76 2    
   150   75   77 1    
   151   77   78 1    
   152   77   79 1    
   153   77  153 1    
   154   78  154 1    
   155   78  155 1    
   156   78  156 1    
   157   79   80 am   BACKBONE|DICT|INTERRES
   158   79  157 1    
   159   80   81 2    
@<TRIPOS>SUBSTRUCTURE
     1 UNK         1 GROUP             0       ****    0 ROOT    
