@<TRIPOS>MOLECULE
3R207
157   159    1
SMALL
USER_CHARGES


@<TRIPOS>ATOM
      1 CA        -50.1647  -29.4922    6.8520 C.3       0 UNK        -0.1975 
      2 C         -50.3111  -28.0866    6.2927 C.2       0 UNK         0.4852 
      3 O         -49.4550  -27.6499    5.5216 O.2       0 UNK        -0.5216 
      4 N         -51.3943  -27.3839    6.6510 N.am      1 UNK        -0.4461 
      5 CA        -51.6618  -26.0120    6.2119 C.3       1 UNK         0.0864 
      6 C6        -53.1734  -25.6650    6.2820 C.3       14 UNK        -0.0898 
      7 S7        -53.8416  -25.3721    7.9578 S.3       14 UNK        -0.2598 
      8 C8        -54.9725  -26.7804    8.1812 C.3       14 UNK         0.0286 
      9 C9        -54.2559  -28.0970    8.4547 C.ar      14 UNK        -0.0844 
     10 C10       -53.2816  -28.1835    9.4541 C.ar      14 UNK        -0.0881 
     11 C11       -52.7082  -29.4125    9.7908 C.ar      14 UNK        -0.0643 
     12 C12       -53.0983  -30.5610    9.0981 C.ar      14 UNK        -0.0930 
     13 C13       -54.0769  -30.4903    8.1021 C.ar      14 UNK        -0.0827 
     14 C14       -54.6431  -29.2550    7.7771 C.ar      14 UNK        -0.1249 
     15 C15       -54.5606  -31.7512    7.4041 C.3       14 UNK         0.0141 
     16 S16       -56.0733  -32.4042    8.1865 S.3       14 UNK        -0.2313 
     17 C17       -55.4187  -33.1074    9.7390 C.3       14 UNK        -0.0915 
     18 CA        -55.9904  -32.4572   11.0292 C.3       13 UNK         0.0968 
     19 C         -55.3495  -33.1328   12.2746 C.2       13 UNK         0.5732 
     20 N         -55.9825  -34.1630   12.8192 N.am      13 UNK        -0.7310 
     21 O         -54.2637  -32.7604   12.7164 O.2       13 UNK        -0.5035 
     22 N         -55.8572  -30.9893   11.0277 N.am      13 UNK        -0.4233 
     23 C         -56.2768  -30.1747   12.0060 C.2       13 UNK         0.4989 
     24 O         -56.8630  -30.5508   13.0239 O.2       13 UNK        -0.4996 
     25 CA        -56.0132  -28.6777   11.8265 C.3       12 UNK         0.0216 
     26 CB        -57.3119  -27.8986   11.5549 C.3       12 UNK        -0.1964 
     27 N         -55.3625  -28.1844   13.0368 N.am      12 UNK        -0.4276 
     28 C         -54.4708  -27.1888   13.0859 C.2       12 UNK         0.5020 
     29 O         -54.1633  -26.4910   12.1178 O.2       12 UNK        -0.5489 
     30 CA        -53.7840  -26.9684   14.4422 C.3       11 UNK         0.0294 
     31 CB        -52.7986  -28.1107   14.7503 C.3       11 UNK        -0.2019 
     32 N         -53.0401  -25.7097   14.4640 N.am      11 UNK        -0.4493 
     33 C         -53.4983  -24.5453   14.9369 C.2       11 UNK         0.4932 
     34 O         -54.6378  -24.3790   15.3770 O.2       11 UNK        -0.5029 
     35 CA        -52.4702  -23.3954   14.9644 C.3       10 UNK         0.0280 
     36 CB        -52.9844  -22.1249   15.6739 C.3       10 UNK        -0.1976 
     37 N         -51.1898  -23.8441   15.5302 N.am      10 UNK        -0.4242 
     38 C         -50.9757  -24.3439   16.7590 C.2       10 UNK         0.5072 
     39 O         -51.8152  -24.3477   17.6605 O.2       10 UNK        -0.5224 
     40 CA        -49.6083  -24.9957   17.0292 C.3       9 UNK         0.0343 
     41 CB        -49.7396  -26.5271   16.9788 C.3       9 UNK        -0.2003 
     42 N         -48.5669  -24.5760   16.0890 N.am      9 UNK        -0.4272 
     43 C         -47.8892  -23.4239   16.1839 C.2       9 UNK         0.4988 
     44 O         -48.0504  -22.6060   17.0906 O.2       9 UNK        -0.5108 
     45 CA        -46.8645  -23.1259   15.0757 C.3       8 UNK         0.0248 
     46 CB        -45.5612  -23.9025   15.3182 C.3       8 UNK        -0.2001 
     47 N         -47.3677  -23.4022   13.7263 N.am      8 UNK        -0.4140 
     48 C         -48.4045  -22.7640   13.1621 C.2       8 UNK         0.5028 
     49 O         -49.0635  -21.8886   13.7232 O.2       8 UNK        -0.5428 
     50 CA        -48.7784  -23.1711   11.7299 C.3       7 UNK         0.0264 
     51 CB        -47.8453  -22.4843   10.7227 C.3       7 UNK        -0.1988 
     52 N         -48.7656  -24.6219   11.5300 N.am      7 UNK        -0.4454 
     53 C         -49.6368  -25.4622   12.1091 C.2       7 UNK         0.5027 
     54 O         -50.5689  -25.1021   12.8306 O.2       7 UNK        -0.5083 
     55 CA        -49.3907  -26.9676   11.9083 C.3       6 UNK         0.0844 
     56 C56       -49.8889  -27.4410   10.5233 C.3       14 UNK        -0.0967 
     57 S57       -50.0042  -29.2572   10.4403 S.3       14 UNK        -0.2604 
     58 C58       -51.7301  -29.5202   10.9515 C.3       14 UNK         0.0134 
     59 N         -47.9913  -27.3219   12.1545 N.am      6 UNK        -0.4116 
     60 C         -47.3572  -27.1679   13.3258 C.2       5 UNK         0.5034 
     61 O         -47.8885  -26.7319   14.3458 O.2       5 UNK        -0.5045 
     62 CA        -45.8640  -27.5254   13.3639 C.3       5 UNK         0.0224 
     63 CB        -45.6771  -29.0050   13.7343 C.3       5 UNK        -0.1978 
     64 N         -45.1606  -27.2425   12.1113 N.am      5 UNK        -0.4737 
     65 C         -45.0352  -26.0356   11.5412 C.2       4 UNK         0.5027 
     66 O         -45.5049  -25.0016   12.0230 O.2       4 UNK        -0.5211 
     67 CA        -44.2466  -25.9772   10.2147 C.3       4 UNK         0.0297 
     68 CB        -43.9612  -27.3660    9.5961 C.3       4 UNK        -0.1993 
     69 N         -44.8518  -25.1144    9.1932 N.am      4 UNK        -0.4486 
     70 C         -46.1185  -25.1251    8.7559 C.2       3 UNK         0.4961 
     71 O         -47.0352  -25.7761    9.2645 O.2       3 UNK        -0.5105 
     72 CA        -46.3834  -24.2870    7.5001 C.3       3 UNK         0.0299 
     73 CB        -45.9652  -25.0571    6.2337 C.3       3 UNK        -0.1972 
     74 N         -47.7997  -23.9505    7.4242 N.am      3 UNK        -0.4305 
     75 C         -48.3152  -22.8907    6.7938 C.2       2 UNK         0.5006 
     76 O         -47.6410  -22.0953    6.1361 O.2       2 UNK        -0.5106 
     77 CA        -49.8384  -22.6886    6.9222 C.3       2 UNK         0.0296 
     78 CB        -50.3231  -21.3826    6.2641 C.3       2 UNK        -0.2002 
     79 N         -50.5953  -23.8096    6.3608 N.am      2 UNK        -0.4032 
     80 C         -50.7734  -24.9936    6.9609 C.2       1 UNK         0.5000 
     81 O         -50.2904  -25.2736    8.0625 O.2       1 UNK        -0.5238 
     82 H82       -50.0786  -30.2138    6.0403 H         1 UNK         0.0889 
     83 H83       -51.0185  -29.7744    7.4641 H         1 UNK         0.0889 
     84 H84       -49.2673  -29.5592    7.4661 H         1 UNK         0.0889 
     85 H85       -52.0501  -27.7649    7.3202 H         1 UNK         0.3028 
     86 H86       -51.3792  -25.9572    5.1579 H         1 UNK         0.0864 
     87 H87       -53.3644  -24.7608    5.7017 H         1 UNK         0.0720 
     88 H88       -53.7536  -26.4462    5.7881 H         1 UNK         0.0720 
     89 H89       -55.6261  -26.8584    7.3109 H         1 UNK         0.0814 
     90 H90       -55.6212  -26.5658    9.0316 H         1 UNK         0.0814 
     91 H91       -53.0181  -27.2944   10.0084 H         1 UNK         0.1469 
     92 H92       -52.6591  -31.5138    9.3592 H         1 UNK         0.1381 
     93 H93       -55.4163  -29.2055    7.0222 H         1 UNK         0.1206 
     94 H94       -54.7731  -31.5305    6.3569 H         1 UNK         0.0813 
     95 H95       -53.7832  -32.5169    7.3998 H         1 UNK         0.0813 
     96 H96       -55.6568  -34.1726    9.7280 H         1 UNK         0.0638 
     97 H97       -54.3298  -33.0550    9.7336 H         1 UNK         0.0638 
     98 H98       -57.0625  -32.6608   11.0556 H         1 UNK         0.0568 
     99 H99       -55.5718  -34.6227   13.6166 H         1 UNK         0.3450 
    100 H100      -56.8663  -34.4848   12.4561 H         1 UNK         0.3450 
    101 H101      -55.3768  -30.5993   10.2285 H         1 UNK         0.2987 
    102 H102      -55.3480  -28.5441   10.9782 H         1 UNK         0.0766 
    103 H103      -57.8080  -28.2699   10.6573 H         1 UNK         0.0798 
    104 H104      -57.1107  -26.8384   11.3994 H         1 UNK         0.0798 
    105 H105      -58.0170  -27.9885   12.3821 H         1 UNK         0.0798 
    106 H106      -55.5518  -28.7308   13.8678 H         1 UNK         0.3198 
    107 H107      -54.5554  -26.9545   15.2156 H         1 UNK         0.0843 
    108 H108      -53.2907  -29.0838   14.7282 H         1 UNK         0.0831 
    109 H109      -52.3653  -27.9958   15.7440 H         1 UNK         0.0831 
    110 H110      -51.9784  -28.1427   14.0333 H         1 UNK         0.0831 
    111 H111      -52.1351  -25.7047   14.0040 H         1 UNK         0.3133 
    112 H112      -52.2703  -23.1332   13.9243 H         1 UNK         0.0566 
    113 H113      -53.8714  -21.7339   15.1744 H         1 UNK         0.0814 
    114 H114      -52.2322  -21.3360   15.6649 H         1 UNK         0.0814 
    115 H115      -53.2566  -22.3179   16.7119 H         1 UNK         0.0814 
    116 H116      -50.4329  -23.9132   14.8623 H         1 UNK         0.3091 
    117 H117      -49.3033  -24.7161   18.0399 H         1 UNK         0.0702 
    118 H118      -48.7921  -27.0149   17.2085 H         1 UNK         0.0785 
    119 H119      -50.0620  -26.8702   15.9948 H         1 UNK         0.0785 
    120 H120      -50.4727  -26.8822   17.7044 H         1 UNK         0.0785 
    121 H121      -48.3402  -25.2293   15.3413 H         1 UNK         0.2998 
    122 H122      -46.6320  -22.0598   15.1202 H         1 UNK         0.0697 
    123 H123      -45.7317  -24.9782   15.3327 H         1 UNK         0.0825 
    124 H124      -45.1210  -23.6318   16.2788 H         1 UNK         0.0825 
    125 H125      -44.8190  -23.6889   14.5487 H         1 UNK         0.0825 
    126 H126      -46.8491  -24.0757   13.1684 H         1 UNK         0.3029 
    127 H127      -49.7951  -22.8170   11.5440 H         1 UNK         0.0897 
    128 H128      -46.8275  -22.8721   10.7784 H         1 UNK         0.0792 
    129 H129      -47.7960  -21.4094   10.9029 H         1 UNK         0.0792 
    130 H130      -48.2068  -22.6180    9.7074 H         1 UNK         0.0792 
    131 H131      -48.0279  -25.0079   10.9486 H         1 UNK         0.3086 
    132 H132      -49.9838  -27.4780   12.6700 H         1 UNK         0.0583 
    133 H133      -50.8569  -27.0027   10.2834 H         1 UNK         0.1020 
    134 H134      -49.2178  -27.1032    9.7326 H         1 UNK         0.1020 
    135 H135      -51.8099  -30.5078   11.4088 H         1 UNK         0.0694 
    136 H136      -51.9984  -28.8084   11.7326 H         1 UNK         0.0694 
    137 H137      -47.4662  -27.6561   11.3599 H         1 UNK         0.2989 
    138 H138      -45.4008  -26.9197   14.1440 H         1 UNK         0.1055 
    139 H139      -46.0945  -29.6690   12.9761 H         1 UNK         0.0806 
    140 H140      -44.6229  -29.2544   13.8574 H         1 UNK         0.0806 
    141 H141      -46.1739  -29.2358   14.6780 H         1 UNK         0.0806 
    142 H142      -44.7390  -28.0315   11.6427 H         1 UNK         0.3061 
    143 H143      -43.2863  -25.5234   10.4641 H         1 UNK         0.0734 
    144 H144      -44.8815  -27.9048    9.3653 H         1 UNK         0.0832 
    145 H145      -43.3982  -27.2715    8.6673 H         1 UNK         0.0832 
    146 H146      -43.3598  -27.9889   10.2595 H         1 UNK         0.0832 
    147 H147      -44.2049  -24.4936    8.7268 H         1 UNK         0.3156 
    148 H148      -45.8019  -23.3657    7.5770 H         1 UNK         0.0589 
    149 H149      -46.1058  -24.4543    5.3365 H         1 UNK         0.0808 
    150 H150      -44.9121  -25.3389    6.2707 H         1 UNK         0.0808 
    151 H151      -46.5455  -25.9735    6.1145 H         1 UNK         0.0808 
    152 H152      -48.4230  -24.5719    7.9378 H         1 UNK         0.3098 
    153 H153      -50.0635  -22.6186    7.9888 H         1 UNK         0.0720 
    154 H154      -49.8078  -20.5183    6.6853 H         1 UNK         0.0791 
    155 H155      -51.3905  -21.2296    6.4253 H         1 UNK         0.0791 
    156 H156      -50.1415  -21.3789    5.1885 H         1 UNK         0.0791 
    157 H157      -51.0017  -23.6598    5.4486 H         1 UNK         0.3028 
@<TRIPOS>BOND
     1    1    2 1    
     2    1   82 1    
     3    1   83 1    
     4    1   84 1    
     5    2    3 2    
     6    2    4 am   BACKBONE|DICT|INTERRES
     7    4    5 1    
     8    4   85 1    
     9    5    6 1    
    10    5   80 1    
    11    5   86 1    
    12    6    7 1    
    13    6   87 1    
    14    6   88 1    
    15    7    8 1    
    16    8    9 1    
    17    8   89 1    
    18    8   90 1    
    19    9   10 ar   
    20    9   14 ar   
    21   10   11 ar   
    22   10   91 1    
    23   11   12 ar   
    24   11   58 1    
    25   12   13 ar   
    26   12   92 1    
    27   13   14 ar   
    28   13   15 1    
    29   14   93 1    
    30   15   16 1    
    31   15   94 1    
    32   15   95 1    
    33   16   17 1    
    34   17   18 1    
    35   17   96 1    
    36   17   97 1    
    37   18   19 1    
    38   18   22 1    
    39   18   98 1    
    40   19   20 am   BACKBONE|DICT|INTERRES
    41   19   21 2    
    42   20   99 1    
    43   20  100 1    
    44   22   23 am   BACKBONE|DICT|INTERRES
    45   22  101 1    
    46   23   24 2    
    47   23   25 1    
    48   25   26 1    
    49   25   27 1    
    50   25  102 1    
    51   26  103 1    
    52   26  104 1    
    53   26  105 1    
    54   27   28 am   BACKBONE|DICT|INTERRES
    55   27  106 1    
    56   28   29 2    
    57   28   30 1    
    58   30   31 1    
    59   30   32 1    
    60   30  107 1    
    61   31  108 1    
    62   31  109 1    
    63   31  110 1    
    64   32   33 am   BACKBONE|DICT|INTERRES
    65   32  111 1    
    66   33   34 2    
    67   33   35 1    
    68   35   36 1    
    69   35   37 1    
    70   35  112 1    
    71   36  113 1    
    72   36  114 1    
    73   36  115 1    
    74   37   38 am   BACKBONE|DICT|INTERRES
    75   37  116 1    
    76   38   39 2    
    77   38   40 1    
    78   40   41 1    
    79   40   42 1    
    80   40  117 1    
    81   41  118 1    
    82   41  119 1    
    83   41  120 1    
    84   42   43 am   BACKBONE|DICT|INTERRES
    85   42  121 1    
    86   43   44 2    
    87   43   45 1    
    88   45   46 1    
    89   45   47 1    
    90   45  122 1    
    91   46  123 1    
    92   46  124 1    
    93   46  125 1    
    94   47   48 am   BACKBONE|DICT|INTERRES
    95   47  126 1    
    96   48   49 2    
    97   48   50 1    
    98   50   51 1    
    99   50   52 1    
   100   50  127 1    
   101   51  128 1    
   102   51  129 1    
   103   51  130 1    
   104   52   53 am   BACKBONE|DICT|INTERRES
   105   52  131 1    
   106   53   54 2    
   107   53   55 1    
   108   55   56 1    
   109   55   59 1    
   110   55  132 1    
   111   56   57 1    
   112   56  133 1    
   113   56  134 1    
   114   57   58 1    
   115   58  135 1    
   116   58  136 1    
   117   59   60 am   BACKBONE|DICT|INTERRES
   118   59  137 1    
   119   60   61 2    
   120   60   62 1    
   121   62   63 1    
   122   62   64 1    
   123   62  138 1    
   124   63  139 1    
   125   63  140 1    
   126   63  141 1    
   127   64   65 am   BACKBONE|DICT|INTERRES
   128   64  142 1    
   129   65   66 2    
   130   65   67 1    
   131   67   68 1    
   132   67   69 1    
   133   67  143 1    
   134   68  144 1    
   135   68  145 1    
   136   68  146 1    
   137   69   70 am   BACKBONE|DICT|INTERRES
   138   69  147 1    
   139   70   71 2    
   140   70   72 1    
   141   72   73 1    
   142   72   74 1    
   143   72  148 1    
   144   73  149 1    
   145   73  150 1    
   146   73  151 1    
   147   74   75 am   BACKBONE|DICT|INTERRES
   148   74  152 1    
   149   75   76 2    
   150   75   77 1    
   151   77   78 1    
   152   77   79 1    
   153   77  153 1    
   154   78  154 1    
   155   78  155 1    
   156   78  156 1    
   157   79   80 am   BACKBONE|DICT|INTERRES
   158   79  157 1    
   159   80   81 2    
@<TRIPOS>SUBSTRUCTURE
     1 UNK         1 GROUP             0       ****    0 ROOT    
