@<TRIPOS>MOLECULE
3R207
157   159    1
SMALL
USER_CHARGES


@<TRIPOS>ATOM
      1 CA        -49.2987  -30.6788    6.9968 C.3       0 UNK        -0.1975 
      2 C         -50.4687  -29.7857    7.4033 C.2       0 UNK         0.4852 
      3 O         -50.8541  -29.8114    8.5685 O.2       0 UNK        -0.5216 
      4 N         -51.0622  -28.9888    6.4988 N.am      1 UNK        -0.4461 
      5 CA        -50.6780  -28.7844    5.0916 C.3       1 UNK         0.0864 
      6 C6        -51.7539  -27.9996    4.2964 C.3       14 UNK        -0.0898 
      7 S7        -53.2993  -28.9479    4.0883 S.3       14 UNK        -0.2598 
      8 C8        -54.5320  -27.8787    4.9025 C.3       14 UNK         0.0286 
      9 C9        -54.2661  -27.7438    6.3936 C.ar      14 UNK        -0.0844 
     10 C10       -53.9227  -26.5058    6.9449 C.ar      14 UNK        -0.0881 
     11 C11       -53.6222  -26.3956    8.3058 C.ar      14 UNK        -0.0643 
     12 C12       -53.6693  -27.5346    9.1160 C.ar      14 UNK        -0.0930 
     13 C13       -54.0267  -28.7741    8.5760 C.ar      14 UNK        -0.0827 
     14 C14       -54.3375  -28.8690    7.2185 C.ar      14 UNK        -0.1249 
     15 C15       -54.0013  -30.0301    9.4321 C.3       14 UNK         0.0141 
     16 S16       -55.6553  -30.5353    9.9987 S.3       14 UNK        -0.2313 
     17 C17       -55.9532  -29.3783   11.3786 C.3       14 UNK        -0.0915 
     18 CA        -55.6959  -29.9368   12.8106 C.3       13 UNK         0.0968 
     19 C         -56.6136  -31.1224   13.2407 C.2       13 UNK         0.5732 
     20 N         -56.1942  -31.9781   14.1649 N.am      13 UNK        -0.7310 
     21 O         -57.7444  -31.2420   12.7740 O.2       13 UNK        -0.5035 
     22 N         -54.2641  -30.0354   13.1483 N.am      13 UNK        -0.4233 
     23 C         -53.3955  -31.0155   12.8511 C.2       13 UNK         0.4989 
     24 O         -53.6938  -32.0487   12.2532 O.2       13 UNK        -0.4996 
     25 CA        -51.9264  -30.8191   13.2815 C.3       12 UNK         0.0216 
     26 CB        -51.0434  -30.4965   12.0647 C.3       12 UNK        -0.1964 
     27 N         -51.7368  -29.7748   14.2909 N.am      12 UNK        -0.4276 
     28 C         -52.1232  -29.8677   15.5699 C.2       12 UNK         0.5020 
     29 O         -52.5989  -30.8891   16.0674 O.2       12 UNK        -0.5489 
     30 CA        -51.9943  -28.5978   16.4304 C.3       11 UNK         0.0294 
     31 CB        -50.7102  -28.6511   17.2728 C.3       11 UNK        -0.2019 
     32 N         -52.0360  -27.3353   15.6769 N.am      11 UNK        -0.4493 
     33 C         -53.0648  -26.9228   14.9161 C.2       11 UNK         0.4932 
     34 O         -54.0590  -27.6155   14.6967 O.2       11 UNK        -0.5029 
     35 CA        -52.9684  -25.5170   14.2859 C.3       10 UNK         0.0280 
     36 CB        -54.3351  -24.9646   13.8324 C.3       10 UNK        -0.1976 
     37 N         -52.2718  -24.5424   15.1306 N.am      10 UNK        -0.4242 
     38 C         -52.5406  -24.2248   16.4069 C.2       10 UNK         0.5072 
     39 O         -53.5364  -24.6210   17.0158 O.2       10 UNK        -0.5224 
     40 CA        -51.5070  -23.3401   17.1390 C.3       9 UNK         0.0343 
     41 CB        -51.4731  -23.6242   18.6555 C.3       9 UNK        -0.2003 
     42 N         -50.1430  -23.4084   16.5927 N.am      9 UNK        -0.4272 
     43 C         -49.3770  -24.4920   16.3920 C.2       9 UNK         0.4988 
     44 O         -49.7587  -25.6437   16.6042 O.2       9 UNK        -0.5108 
     45 CA        -47.9611  -24.2402   15.8286 C.3       8 UNK         0.0248 
     46 CB        -47.1789  -25.5485   15.6075 C.3       8 UNK        -0.2001 
     47 N         -47.9837  -23.4845   14.5718 N.am      8 UNK        -0.4140 
     48 C         -48.2765  -22.1821   14.4468 C.2       8 UNK         0.5028 
     49 O         -48.4846  -21.4368   15.4060 O.2       8 UNK        -0.5428 
     50 CA        -48.4195  -21.6223   13.0230 C.3       7 UNK         0.0264 
     51 CB        -47.0667  -21.0977   12.5176 C.3       7 UNK        -0.1988 
     52 N         -48.9744  -22.5835   12.0628 N.am      7 UNK        -0.4454 
     53 C         -50.1959  -23.1366   12.1408 C.2       7 UNK         0.5027 
     54 O         -50.9960  -22.8932   13.0447 O.2       7 UNK        -0.5083 
     55 CA        -50.5776  -24.1608   11.0528 C.3       6 UNK         0.0844 
     56 C56       -51.0446  -23.4632    9.7515 C.3       14 UNK        -0.0967 
     57 S57       -51.4978  -24.6599    8.4512 S.3       14 UNK        -0.2604 
     58 C58       -53.2164  -25.0529    8.8928 C.3       14 UNK         0.0134 
     59 N         -49.4972  -25.1226   10.8320 N.am      6 UNK        -0.4116 
     60 C         -49.1362  -26.0733   11.7043 C.2       5 UNK         0.5034 
     61 O         -49.7218  -26.2997   12.7639 O.2       5 UNK        -0.5045 
     62 CA        -47.8829  -26.8865   11.3466 C.3       5 UNK         0.0224 
     63 CB        -48.2414  -28.0871   10.4553 C.3       5 UNK        -0.1978 
     64 N         -46.8637  -26.0657   10.6859 N.am      5 UNK        -0.4737 
     65 C         -46.1555  -25.1068   11.2994 C.2       4 UNK         0.5027 
     66 O         -46.2707  -24.8311   12.4928 O.2       4 UNK        -0.5211 
     67 CA        -45.1789  -24.2969   10.4294 C.3       4 UNK         0.0297 
     68 CB        -43.8365  -25.0335   10.2991 C.3       4 UNK        -0.1993 
     69 N         -45.7071  -23.9982    9.0957 N.am      4 UNK        -0.4486 
     70 C         -46.7753  -23.2239    8.8582 C.2       3 UNK         0.4961 
     71 O         -47.4235  -22.6598    9.7367 O.2       3 UNK        -0.5105 
     72 CA        -47.2344  -23.0970    7.3973 C.3       3 UNK         0.0299 
     73 CB        -46.4554  -21.9823    6.6816 C.3       3 UNK        -0.1972 
     74 N         -47.1351  -24.3432    6.6302 N.am      3 UNK        -0.4305 
     75 C         -47.7327  -25.4946    6.9640 C.2       2 UNK         0.5006 
     76 O         -48.3609  -25.6731    8.0097 O.2       2 UNK        -0.5106 
     77 CA        -47.5767  -26.6578    5.9872 C.3       2 UNK         0.0296 
     78 CB        -46.4424  -27.5984    6.4327 C.3       2 UNK        -0.2002 
     79 N         -48.8434  -27.3780    5.9571 N.am      2 UNK        -0.4032 
     80 C         -49.3018  -28.1014    4.9291 C.2       1 UNK         0.5000 
     81 O         -48.6778  -28.2588    3.8781 O.2       1 UNK        -0.5238 
     82 H82       -49.1631  -31.4738    7.7298 H         1 UNK         0.0889 
     83 H83       -48.3728  -30.1062    6.9569 H         1 UNK         0.0889 
     84 H84       -49.4631  -31.1555    6.0318 H         1 UNK         0.0889 
     85 H85       -51.8720  -28.4613    6.8000 H         1 UNK         0.3028 
     86 H86       -50.5889  -29.7676    4.6265 H         1 UNK         0.0864 
     87 H87       -51.3975  -27.7676    3.2905 H         1 UNK         0.0720 
     88 H88       -51.9587  -27.0377    4.7696 H         1 UNK         0.0720 
     89 H89       -55.5246  -28.3067    4.7553 H         1 UNK         0.0814 
     90 H90       -54.5421  -26.9035    4.4132 H         1 UNK         0.0814 
     91 H91       -53.8637  -25.6288    6.3144 H         1 UNK         0.1469 
     92 H92       -53.4068  -27.4602   10.1623 H         1 UNK         0.1381 
     93 H93       -54.5948  -29.8299    6.7935 H         1 UNK         0.1206 
     94 H94       -53.3399  -29.8859   10.2841 H         1 UNK         0.0813 
     95 H95       -53.5657  -30.8484    8.8568 H         1 UNK         0.0813 
     96 H96       -55.3614  -28.4757   11.2276 H         1 UNK         0.0638 
     97 H97       -56.9905  -29.0490   11.2994 H         1 UNK         0.0638 
     98 H98       -56.0369  -29.1430   13.4758 H         1 UNK         0.0568 
     99 H99       -56.7984  -32.7319   14.4512 H         1 UNK         0.3450 
    100 H100      -55.2713  -31.8893   14.5597 H         1 UNK         0.3450 
    101 H101      -53.9278  -29.2485   13.6948 H         1 UNK         0.2987 
    102 H102      -51.5876  -31.7669   13.7054 H         1 UNK         0.0766 
    103 H103      -51.2899  -29.5276   11.6283 H         1 UNK         0.0798 
    104 H104      -51.1639  -31.2443   11.2792 H         1 UNK         0.0798 
    105 H105      -49.9880  -30.4853   12.3364 H         1 UNK         0.0798 
    106 H106      -51.3473  -28.8962   13.9789 H         1 UNK         0.3198 
    107 H107      -52.8467  -28.5910   17.1129 H         1 UNK         0.0843 
    108 H108      -50.6760  -27.8336   17.9933 H         1 UNK         0.0831 
    109 H109      -49.8169  -28.5857   16.6502 H         1 UNK         0.0831 
    110 H110      -50.6487  -29.5815   17.8391 H         1 UNK         0.0831 
    111 H111      -51.2569  -26.6986   15.8291 H         1 UNK         0.3133 
    112 H112      -52.3517  -25.6370   13.3958 H         1 UNK         0.0566 
    113 H113      -54.8050  -25.6267   13.1039 H         1 UNK         0.0814 
    114 H114      -55.0246  -24.8593   14.6706 H         1 UNK         0.0814 
    115 H115      -54.2288  -23.9884   13.3591 H         1 UNK         0.0814 
    116 H116      -51.4687  -24.1000   14.6969 H         1 UNK         0.3091 
    117 H117      -51.8392  -22.3107   16.9986 H         1 UNK         0.0702 
    118 H118      -50.7577  -22.9785   19.1646 H         1 UNK         0.0785 
    119 H119      -51.1981  -24.6592   18.8630 H         1 UNK         0.0785 
    120 H120      -52.4473  -23.4471   19.1130 H         1 UNK         0.0785 
    121 H121      -49.7271  -22.5164   16.3317 H         1 UNK         0.2998 
    122 H122      -47.4212  -23.6521   16.5733 H         1 UNK         0.0697 
    123 H123      -46.1611  -25.3504   15.2710 H         1 UNK         0.0825 
    124 H124      -47.1079  -26.1257   16.5303 H         1 UNK         0.0825 
    125 H125      -47.6603  -26.1816   14.8607 H         1 UNK         0.0825 
    126 H126      -47.7661  -24.0084   13.7306 H         1 UNK         0.3029 
    127 H127      -49.1122  -20.7797   13.0753 H         1 UNK         0.0897 
    128 H128      -47.1685  -20.6029   11.5516 H         1 UNK         0.0792 
    129 H129      -46.6454  -20.3684   13.2110 H         1 UNK         0.0792 
    130 H130      -46.3397  -21.9027   12.4080 H         1 UNK         0.0792 
    131 H131      -48.3908  -22.7918   11.2530 H         1 UNK         0.3086 
    132 H132      -51.4299  -24.7237   11.4364 H         1 UNK         0.0583 
    133 H133      -51.8961  -22.8080    9.9464 H         1 UNK         0.1020 
    134 H134      -50.2534  -22.8241    9.3545 H         1 UNK         0.1020 
    135 H135      -53.3282  -25.0686    9.9778 H         1 UNK         0.0694 
    136 H136      -53.8760  -24.2662    8.5237 H         1 UNK         0.0694 
    137 H137      -49.0016  -25.0594    9.9494 H         1 UNK         0.2989 
    138 H138      -47.4606  -27.2662   12.2799 H         1 UNK         0.1055 
    139 H139      -48.6999  -27.7790    9.5155 H         1 UNK         0.0806 
    140 H140      -48.9541  -28.7417   10.9559 H         1 UNK         0.0806 
    141 H141      -47.3624  -28.6869   10.2200 H         1 UNK         0.0806 
    142 H142      -46.7707  -26.1738    9.6854 H         1 UNK         0.3061 
    143 H143      -44.9963  -23.3467   10.9353 H         1 UNK         0.0734 
    144 H144      -43.1039  -24.4326    9.7599 H         1 UNK         0.0832 
    145 H145      -43.4148  -25.2492   11.2819 H         1 UNK         0.0832 
    146 H146      -43.9438  -25.9844    9.7755 H         1 UNK         0.0832 
    147 H147      -45.2415  -24.4256    8.3085 H         1 UNK         0.3156 
    148 H148      -48.2894  -22.8151    7.4147 H         1 UNK         0.0589 
    149 H149      -45.3952  -22.2218    6.5907 H         1 UNK         0.0808 
    150 H150      -46.8473  -21.8031    5.6803 H         1 UNK         0.0808 
    151 H151      -46.5309  -21.0413    7.2289 H         1 UNK         0.0808 
    152 H152      -46.6240  -24.2970    5.7600 H         1 UNK         0.3098 
    153 H153      -47.3582  -26.2615    4.9931 H         1 UNK         0.0720 
    154 H154      -45.4888  -27.0708    6.4750 H         1 UNK         0.0791 
    155 H155      -46.6309  -28.0159    7.4228 H         1 UNK         0.0791 
    156 H156      -46.3208  -28.4297    5.7380 H         1 UNK         0.0791 
    157 H157      -49.4228  -27.2449    6.7777 H         1 UNK         0.3028 
@<TRIPOS>BOND
     1    1    2 1    
     2    1   82 1    
     3    1   83 1    
     4    1   84 1    
     5    2    3 2    
     6    2    4 am   BACKBONE|DICT|INTERRES
     7    4    5 1    
     8    4   85 1    
     9    5    6 1    
    10    5   80 1    
    11    5   86 1    
    12    6    7 1    
    13    6   87 1    
    14    6   88 1    
    15    7    8 1    
    16    8    9 1    
    17    8   89 1    
    18    8   90 1    
    19    9   10 ar   
    20    9   14 ar   
    21   10   11 ar   
    22   10   91 1    
    23   11   12 ar   
    24   11   58 1    
    25   12   13 ar   
    26   12   92 1    
    27   13   14 ar   
    28   13   15 1    
    29   14   93 1    
    30   15   16 1    
    31   15   94 1    
    32   15   95 1    
    33   16   17 1    
    34   17   18 1    
    35   17   96 1    
    36   17   97 1    
    37   18   19 1    
    38   18   22 1    
    39   18   98 1    
    40   19   20 am   BACKBONE|DICT|INTERRES
    41   19   21 2    
    42   20   99 1    
    43   20  100 1    
    44   22   23 am   BACKBONE|DICT|INTERRES
    45   22  101 1    
    46   23   24 2    
    47   23   25 1    
    48   25   26 1    
    49   25   27 1    
    50   25  102 1    
    51   26  103 1    
    52   26  104 1    
    53   26  105 1    
    54   27   28 am   BACKBONE|DICT|INTERRES
    55   27  106 1    
    56   28   29 2    
    57   28   30 1    
    58   30   31 1    
    59   30   32 1    
    60   30  107 1    
    61   31  108 1    
    62   31  109 1    
    63   31  110 1    
    64   32   33 am   BACKBONE|DICT|INTERRES
    65   32  111 1    
    66   33   34 2    
    67   33   35 1    
    68   35   36 1    
    69   35   37 1    
    70   35  112 1    
    71   36  113 1    
    72   36  114 1    
    73   36  115 1    
    74   37   38 am   BACKBONE|DICT|INTERRES
    75   37  116 1    
    76   38   39 2    
    77   38   40 1    
    78   40   41 1    
    79   40   42 1    
    80   40  117 1    
    81   41  118 1    
    82   41  119 1    
    83   41  120 1    
    84   42   43 am   BACKBONE|DICT|INTERRES
    85   42  121 1    
    86   43   44 2    
    87   43   45 1    
    88   45   46 1    
    89   45   47 1    
    90   45  122 1    
    91   46  123 1    
    92   46  124 1    
    93   46  125 1    
    94   47   48 am   BACKBONE|DICT|INTERRES
    95   47  126 1    
    96   48   49 2    
    97   48   50 1    
    98   50   51 1    
    99   50   52 1    
   100   50  127 1    
   101   51  128 1    
   102   51  129 1    
   103   51  130 1    
   104   52   53 am   BACKBONE|DICT|INTERRES
   105   52  131 1    
   106   53   54 2    
   107   53   55 1    
   108   55   56 1    
   109   55   59 1    
   110   55  132 1    
   111   56   57 1    
   112   56  133 1    
   113   56  134 1    
   114   57   58 1    
   115   58  135 1    
   116   58  136 1    
   117   59   60 am   BACKBONE|DICT|INTERRES
   118   59  137 1    
   119   60   61 2    
   120   60   62 1    
   121   62   63 1    
   122   62   64 1    
   123   62  138 1    
   124   63  139 1    
   125   63  140 1    
   126   63  141 1    
   127   64   65 am   BACKBONE|DICT|INTERRES
   128   64  142 1    
   129   65   66 2    
   130   65   67 1    
   131   67   68 1    
   132   67   69 1    
   133   67  143 1    
   134   68  144 1    
   135   68  145 1    
   136   68  146 1    
   137   69   70 am   BACKBONE|DICT|INTERRES
   138   69  147 1    
   139   70   71 2    
   140   70   72 1    
   141   72   73 1    
   142   72   74 1    
   143   72  148 1    
   144   73  149 1    
   145   73  150 1    
   146   73  151 1    
   147   74   75 am   BACKBONE|DICT|INTERRES
   148   74  152 1    
   149   75   76 2    
   150   75   77 1    
   151   77   78 1    
   152   77   79 1    
   153   77  153 1    
   154   78  154 1    
   155   78  155 1    
   156   78  156 1    
   157   79   80 am   BACKBONE|DICT|INTERRES
   158   79  157 1    
   159   80   81 2    
@<TRIPOS>SUBSTRUCTURE
     1 UNK         1 GROUP             0       ****    0 ROOT    
