@<TRIPOS>MOLECULE
3R207
157   159    1
SMALL
USER_CHARGES


@<TRIPOS>ATOM
      1 CA        -46.8516  -32.1334    4.9967 C.3       0 UNK        -0.1975 
      2 C         -47.5747  -30.8872    4.5078 C.2       0 UNK         0.4852 
      3 O         -47.1650  -30.2946    3.5090 O.2       0 UNK        -0.5216 
      4 N         -48.6463  -30.4855    5.2050 N.am      1 UNK        -0.4461 
      5 CA        -49.4754  -29.3166    4.8771 C.3       1 UNK         0.0864 
      6 C6        -50.8319  -29.3496    5.6206 C.3       14 UNK        -0.0898 
      7 S7        -51.8295  -30.8225    5.2086 S.3       14 UNK        -0.2598 
      8 C8        -53.4916  -30.2983    5.7439 C.3       14 UNK         0.0286 
      9 C9        -53.5819  -30.1862    7.2589 C.ar      14 UNK        -0.0844 
     10 C10       -53.2407  -28.9892    7.8935 C.ar      14 UNK        -0.0881 
     11 C11       -53.2638  -28.8924    9.2860 C.ar      14 UNK        -0.0643 
     12 C12       -53.6578  -29.9942   10.0480 C.ar      14 UNK        -0.0930 
     13 C13       -54.0569  -31.1793    9.4232 C.ar      14 UNK        -0.0827 
     14 C14       -54.0033  -31.2752    8.0285 C.ar      14 UNK        -0.1249 
     15 C15       -54.5576  -32.3511   10.2535 C.3       14 UNK         0.0141 
     16 S16       -56.3617  -32.2660   10.5017 S.3       14 UNK        -0.2313 
     17 C17       -56.5172  -30.9356   11.7426 C.3       14 UNK        -0.0915 
     18 CA        -56.8910  -29.5597   11.1246 C.3       13 UNK         0.0968 
     19 C         -58.4113  -29.4528   10.8211 C.2       13 UNK         0.5732 
     20 N         -58.8314  -29.7952    9.6110 N.am      13 UNK        -0.7310 
     21 O         -59.2138  -29.0950   11.6820 O.2       13 UNK        -0.5035 
     22 N         -56.4107  -28.4724   11.9860 N.am      13 UNK        -0.4233 
     23 C         -56.3919  -27.1711   11.6833 C.2       13 UNK         0.4989 
     24 O         -56.6944  -26.7223   10.5775 O.2       13 UNK        -0.4996 
     25 CA        -55.9537  -26.1908   12.7927 C.3       12 UNK         0.0216 
     26 CB        -57.1308  -25.8751   13.7360 C.3       12 UNK        -0.1964 
     27 N         -54.7538  -26.5790   13.5553 N.am      12 UNK        -0.4276 
     28 C         -54.5587  -27.6481   14.3427 C.2       12 UNK         0.5020 
     29 O         -55.4027  -28.5209   14.5509 O.2       12 UNK        -0.5489 
     30 CA        -53.1724  -27.7833   14.9877 C.3       11 UNK         0.0294 
     31 CB        -52.2002  -28.4813   14.0224 C.3       11 UNK        -0.2019 
     32 N         -52.6030  -26.5053   15.4229 N.am      11 UNK        -0.4493 
     33 C         -52.9995  -25.8237   16.5080 C.2       11 UNK         0.4932 
     34 O         -53.9645  -26.1421   17.2047 O.2       11 UNK        -0.5029 
     35 CA        -52.1263  -24.6107   16.8914 C.3       10 UNK         0.0280 
     36 CB        -52.4759  -24.0097   18.2692 C.3       10 UNK        -0.1976 
     37 N         -50.6963  -24.9325   16.7926 N.am      10 UNK        -0.4242 
     38 C         -50.0215  -25.8728   17.4734 C.2       10 UNK         0.5072 
     39 O         -50.4816  -26.5017   18.4274 O.2       10 UNK        -0.5224 
     40 CA        -48.6037  -26.2147   16.9807 C.3       9 UNK         0.0343 
     41 CB        -48.6368  -27.5079   16.1495 C.3       9 UNK        -0.2003 
     42 N         -47.9859  -25.1544   16.1808 N.am      9 UNK        -0.4272 
     43 C         -47.4617  -24.0320   16.6917 C.2       9 UNK         0.4988 
     44 O         -47.4214  -23.7802   17.8967 O.2       9 UNK        -0.5108 
     45 CA        -46.8937  -23.0130   15.6896 C.3       8 UNK         0.0248 
     46 CB        -45.4947  -23.4399   15.2166 C.3       8 UNK        -0.2001 
     47 N         -47.7657  -22.7968   14.5312 N.am      8 UNK        -0.4140 
     48 C         -48.9935  -22.2598   14.5959 C.2       8 UNK         0.5028 
     49 O         -49.5183  -21.8674   15.6381 O.2       8 UNK        -0.5428 
     50 CA        -49.7861  -22.1653   13.2826 C.3       7 UNK         0.0264 
     51 CB        -49.3227  -20.9596   12.4494 C.3       7 UNK        -0.1988 
     52 N         -49.7033  -23.3844   12.4770 N.am      7 UNK        -0.4454 
     53 C         -50.1869  -24.5781   12.8505 C.2       7 UNK         0.5027 
     54 O         -50.7930  -24.7802   13.9027 O.2       7 UNK        -0.5083 
     55 CA        -49.9426  -25.7634   11.9007 C.3       6 UNK         0.0844 
     56 C56       -50.9605  -25.7245   10.7388 C.3       14 UNK        -0.0967 
     57 S57       -51.0770  -27.3223    9.8791 S.3       14 UNK        -0.2604 
     58 C58       -52.8737  -27.5907    9.9594 C.3       14 UNK         0.0134 
     59 N         -48.5517  -25.8241   11.4403 N.am      6 UNK        -0.4116 
     60 C         -47.4822  -25.9117   12.2470 C.2       5 UNK         0.5034 
     61 O         -47.5453  -26.0235   13.4710 O.2       5 UNK        -0.5045 
     62 CA        -46.1050  -25.7812   11.5836 C.3       5 UNK         0.0224 
     63 CB        -45.6668  -27.1124   10.9540 C.3       5 UNK        -0.1978 
     64 N         -46.0910  -24.7128   10.5818 N.am      5 UNK        -0.4737 
     65 C         -46.1796  -23.4078   10.8793 C.2       4 UNK         0.5027 
     66 O         -46.2371  -22.9713   12.0284 O.2       4 UNK        -0.5211 
     67 CA        -46.2620  -22.4289    9.6965 C.3       4 UNK         0.0297 
     68 CB        -44.8579  -22.1092    9.1603 C.3       4 UNK        -0.1993 
     69 N         -47.1054  -22.9271    8.6072 N.am      4 UNK        -0.4486 
     70 C         -48.4253  -23.1399    8.7082 C.2       3 UNK         0.4961 
     71 O         -49.0824  -22.8951    9.7192 O.2       3 UNK        -0.5105 
     72 CA        -49.1234  -23.7743    7.4926 C.3       3 UNK         0.0299 
     73 CB        -49.5836  -22.6870    6.5093 C.3       3 UNK        -0.1972 
     74 N         -48.3024  -24.7631    6.7849 N.am      3 UNK        -0.4305 
     75 C         -47.7980  -25.8775    7.3322 C.2       2 UNK         0.5006 
     76 O         -47.9444  -26.1896    8.5157 O.2       2 UNK        -0.5106 
     77 CA        -46.9780  -26.7866    6.4039 C.3       2 UNK         0.0296 
     78 CB        -45.6638  -27.2335    7.0679 C.3       2 UNK        -0.2002 
     79 N         -47.7501  -27.9669    6.0208 N.am      2 UNK        -0.4032 
     80 C         -48.7576  -27.9720    5.1354 C.2       1 UNK         0.5000 
     81 O         -49.1251  -26.9682    4.5210 O.2       1 UNK        -0.5238 
     82 H82       -47.3223  -32.5569    5.8839 H         1 UNK         0.0889 
     83 H83       -45.8172  -31.8950    5.2424 H         1 UNK         0.0889 
     84 H84       -46.8502  -32.8955    4.2179 H         1 UNK         0.0889 
     85 H85       -48.9571  -31.0294    5.9979 H         1 UNK         0.3028 
     86 H86       -49.6825  -29.3526    3.8050 H         1 UNK         0.0864 
     87 H87       -51.4187  -28.4635    5.3701 H         1 UNK         0.0720 
     88 H88       -50.6755  -29.3245    6.7010 H         1 UNK         0.0720 
     89 H89       -54.2226  -31.0225    5.3813 H         1 UNK         0.0814 
     90 H90       -53.7491  -29.3478    5.2740 H         1 UNK         0.0814 
     91 H91       -52.9298  -28.1356    7.3072 H         1 UNK         0.1469 
     92 H92       -53.6828  -29.9188   11.1261 H         1 UNK         0.1381 
     93 H93       -54.2914  -32.1973    7.5420 H         1 UNK         0.1206 
     94 H94       -54.3176  -33.2886    9.7496 H         1 UNK         0.0813 
     95 H95       -54.0475  -32.3882   11.2173 H         1 UNK         0.0813 
     96 H96       -55.5716  -30.8683   12.2824 H         1 UNK         0.0638 
     97 H97       -57.2502  -31.2395   12.4924 H         1 UNK         0.0638 
     98 H98       -56.3611  -29.4457   10.1777 H         1 UNK         0.0568 
     99 H99       -59.8154  -29.7451    9.3996 H         1 UNK         0.3450 
    100 H100      -58.1821  -30.1190    8.9111 H         1 UNK         0.3450 
    101 H101      -56.1620  -28.7219   12.9414 H         1 UNK         0.2987 
    102 H102      -55.6866  -25.2603   12.2888 H         1 UNK         0.0766 
    103 H103      -57.9898  -25.5026   13.1762 H         1 UNK         0.0798 
    104 H104      -56.8611  -25.1095   14.4636 H         1 UNK         0.0798 
    105 H105      -57.4615  -26.7570   14.2857 H         1 UNK         0.0798 
    106 H106      -53.9739  -25.9426   13.4687 H         1 UNK         0.3198 
    107 H107      -53.2837  -28.4185   15.8695 H         1 UNK         0.0843 
    108 H108      -51.2350  -28.6649   14.4938 H         1 UNK         0.0831 
    109 H109      -52.0292  -27.8933   13.1215 H         1 UNK         0.0831 
    110 H110      -52.5924  -29.4495   13.7075 H         1 UNK         0.0831 
    111 H111      -51.8265  -26.1240   14.8898 H         1 UNK         0.3133 
    112 H112      -52.3178  -23.8434   16.1398 H         1 UNK         0.0566 
    113 H113      -51.8389  -23.1561   18.5008 H         1 UNK         0.0814 
    114 H114      -52.3664  -24.7385   19.0727 H         1 UNK         0.0814 
    115 H115      -53.5084  -23.6592   18.2893 H         1 UNK         0.0814 
    116 H116      -50.2270  -24.5145   15.9982 H         1 UNK         0.3091 
    117 H117      -47.9829  -26.3920   17.8615 H         1 UNK         0.0702 
    118 H118      -47.6335  -27.8129   15.8513 H         1 UNK         0.0785 
    119 H119      -49.2310  -27.3860   15.2430 H         1 UNK         0.0785 
    120 H120      -49.0713  -28.3311   16.7183 H         1 UNK         0.0785 
    121 H121      -47.9250  -25.3172   15.1776 H         1 UNK         0.2998 
    122 H122      -46.7964  -22.0581   16.2101 H         1 UNK         0.0697 
    123 H123      -45.5262  -24.3724   14.6522 H         1 UNK         0.0825 
    124 H124      -44.8245  -23.5922   16.0636 H         1 UNK         0.0825 
    125 H125      -45.0433  -22.6796   14.5789 H         1 UNK         0.0825 
    126 H126      -47.3837  -23.0410   13.6210 H         1 UNK         0.3029 
    127 H127      -50.8360  -22.0136   13.5430 H         1 UNK         0.0897 
    128 H128      -48.2865  -21.0651   12.1264 H         1 UNK         0.0792 
    129 H129      -49.3941  -20.0358   13.0250 H         1 UNK         0.0792 
    130 H130      -49.9378  -20.8349   11.5580 H         1 UNK         0.0792 
    131 H131      -49.2798  -23.2925   11.5558 H         1 UNK         0.3086 
    132 H132      -50.1166  -26.6697   12.4834 H         1 UNK         0.0583 
    133 H133      -51.9527  -25.4519   11.1048 H         1 UNK         0.1020 
    134 H134      -50.6963  -24.9560   10.0134 H         1 UNK         0.1020 
    135 H135      -53.1986  -27.5873   11.0006 H         1 UNK         0.0694 
    136 H136      -53.3892  -26.7625    9.4705 H         1 UNK         0.0694 
    137 H137      -48.4008  -25.7899   10.4365 H         1 UNK         0.2989 
    138 H138      -45.3840  -25.5217   12.3622 H         1 UNK         0.1055 
    139 H139      -46.3878  -27.4730   10.2208 H         1 UNK         0.0806 
    140 H140      -44.6986  -27.0225   10.4613 H         1 UNK         0.0806 
    141 H141      -45.5716  -27.8859   11.7171 H         1 UNK         0.0806 
    142 H142      -46.1210  -24.9944    9.6125 H         1 UNK         0.3061 
    143 H143      -46.7056  -21.5016   10.0657 H         1 UNK         0.0734 
    144 H144      -44.3667  -22.9934    8.7523 H         1 UNK         0.0832 
    145 H145      -44.8946  -21.3523    8.3766 H         1 UNK         0.0832 
    146 H146      -44.2188  -21.7194    9.9541 H         1 UNK         0.0832 
    147 H147      -46.6491  -23.1515    7.7351 H         1 UNK         0.3156 
    148 H148      -50.0105  -24.2952    7.8569 H         1 UNK         0.0589 
    149 H149      -50.1687  -23.1115    5.6932 H         1 UNK         0.0808 
    150 H150      -50.2159  -21.9519    7.0095 H         1 UNK         0.0808 
    151 H151      -48.7400  -22.1492    6.0748 H         1 UNK         0.0808 
    152 H152      -48.1636  -24.6106    5.7955 H         1 UNK         0.3098 
    153 H153      -46.7198  -26.2289    5.5009 H         1 UNK         0.0720 
    154 H154      -45.0849  -26.3752    7.4116 H         1 UNK         0.0791 
    155 H155      -45.0371  -27.7860    6.3675 H         1 UNK         0.0791 
    156 H156      -45.8419  -27.8756    7.9306 H         1 UNK         0.0791 
    157 H157      -47.5331  -28.8279    6.5002 H         1 UNK         0.3028 
@<TRIPOS>BOND
     1    1    2 1    
     2    1   82 1    
     3    1   83 1    
     4    1   84 1    
     5    2    3 2    
     6    2    4 am   BACKBONE|DICT|INTERRES
     7    4    5 1    
     8    4   85 1    
     9    5    6 1    
    10    5   80 1    
    11    5   86 1    
    12    6    7 1    
    13    6   87 1    
    14    6   88 1    
    15    7    8 1    
    16    8    9 1    
    17    8   89 1    
    18    8   90 1    
    19    9   10 ar   
    20    9   14 ar   
    21   10   11 ar   
    22   10   91 1    
    23   11   12 ar   
    24   11   58 1    
    25   12   13 ar   
    26   12   92 1    
    27   13   14 ar   
    28   13   15 1    
    29   14   93 1    
    30   15   16 1    
    31   15   94 1    
    32   15   95 1    
    33   16   17 1    
    34   17   18 1    
    35   17   96 1    
    36   17   97 1    
    37   18   19 1    
    38   18   22 1    
    39   18   98 1    
    40   19   20 am   BACKBONE|DICT|INTERRES
    41   19   21 2    
    42   20   99 1    
    43   20  100 1    
    44   22   23 am   BACKBONE|DICT|INTERRES
    45   22  101 1    
    46   23   24 2    
    47   23   25 1    
    48   25   26 1    
    49   25   27 1    
    50   25  102 1    
    51   26  103 1    
    52   26  104 1    
    53   26  105 1    
    54   27   28 am   BACKBONE|DICT|INTERRES
    55   27  106 1    
    56   28   29 2    
    57   28   30 1    
    58   30   31 1    
    59   30   32 1    
    60   30  107 1    
    61   31  108 1    
    62   31  109 1    
    63   31  110 1    
    64   32   33 am   BACKBONE|DICT|INTERRES
    65   32  111 1    
    66   33   34 2    
    67   33   35 1    
    68   35   36 1    
    69   35   37 1    
    70   35  112 1    
    71   36  113 1    
    72   36  114 1    
    73   36  115 1    
    74   37   38 am   BACKBONE|DICT|INTERRES
    75   37  116 1    
    76   38   39 2    
    77   38   40 1    
    78   40   41 1    
    79   40   42 1    
    80   40  117 1    
    81   41  118 1    
    82   41  119 1    
    83   41  120 1    
    84   42   43 am   BACKBONE|DICT|INTERRES
    85   42  121 1    
    86   43   44 2    
    87   43   45 1    
    88   45   46 1    
    89   45   47 1    
    90   45  122 1    
    91   46  123 1    
    92   46  124 1    
    93   46  125 1    
    94   47   48 am   BACKBONE|DICT|INTERRES
    95   47  126 1    
    96   48   49 2    
    97   48   50 1    
    98   50   51 1    
    99   50   52 1    
   100   50  127 1    
   101   51  128 1    
   102   51  129 1    
   103   51  130 1    
   104   52   53 am   BACKBONE|DICT|INTERRES
   105   52  131 1    
   106   53   54 2    
   107   53   55 1    
   108   55   56 1    
   109   55   59 1    
   110   55  132 1    
   111   56   57 1    
   112   56  133 1    
   113   56  134 1    
   114   57   58 1    
   115   58  135 1    
   116   58  136 1    
   117   59   60 am   BACKBONE|DICT|INTERRES
   118   59  137 1    
   119   60   61 2    
   120   60   62 1    
   121   62   63 1    
   122   62   64 1    
   123   62  138 1    
   124   63  139 1    
   125   63  140 1    
   126   63  141 1    
   127   64   65 am   BACKBONE|DICT|INTERRES
   128   64  142 1    
   129   65   66 2    
   130   65   67 1    
   131   67   68 1    
   132   67   69 1    
   133   67  143 1    
   134   68  144 1    
   135   68  145 1    
   136   68  146 1    
   137   69   70 am   BACKBONE|DICT|INTERRES
   138   69  147 1    
   139   70   71 2    
   140   70   72 1    
   141   72   73 1    
   142   72   74 1    
   143   72  148 1    
   144   73  149 1    
   145   73  150 1    
   146   73  151 1    
   147   74   75 am   BACKBONE|DICT|INTERRES
   148   74  152 1    
   149   75   76 2    
   150   75   77 1    
   151   77   78 1    
   152   77   79 1    
   153   77  153 1    
   154   78  154 1    
   155   78  155 1    
   156   78  156 1    
   157   79   80 am   BACKBONE|DICT|INTERRES
   158   79  157 1    
   159   80   81 2    
@<TRIPOS>SUBSTRUCTURE
     1 UNK         1 GROUP             0       ****    0 ROOT    
