@<TRIPOS>MOLECULE
3R207
157   159    1
SMALL
USER_CHARGES


@<TRIPOS>ATOM
      1 CA        -46.5047  -26.8440    3.7626 C.3       0 UNK        -0.1975 
      2 C         -47.3222  -25.7612    4.4494 C.2       0 UNK         0.4852 
      3 O         -46.8978  -24.6053    4.4894 O.2       0 UNK        -0.5216 
      4 N         -48.4903  -26.1179    4.9995 N.am      1 UNK        -0.4461 
      5 CA        -49.3579  -25.2108    5.7550 C.3       1 UNK         0.0864 
      6 C6        -50.7727  -25.8019    5.9870 C.3       14 UNK        -0.0898 
      7 S7        -50.7941  -27.4318    6.8122 S.3       14 UNK        -0.2598 
      8 C8        -52.5774  -27.6608    7.1313 C.3       14 UNK         0.0286 
      9 C9        -52.8441  -28.1534    8.5493 C.ar      14 UNK        -0.0844 
     10 C10       -52.2270  -29.3177    9.0151 C.ar      14 UNK        -0.0881 
     11 C11       -52.4453  -29.7674   10.3195 C.ar      14 UNK        -0.0643 
     12 C12       -53.3253  -29.0698   11.1492 C.ar      14 UNK        -0.0930 
     13 C13       -53.9614  -27.9118   10.6947 C.ar      14 UNK        -0.0827 
     14 C14       -53.7113  -27.4537    9.3963 C.ar      14 UNK        -0.1249 
     15 C15       -54.9092  -27.1570   11.6172 C.3       14 UNK         0.0141 
     16 S16       -56.6257  -27.1592   11.0099 S.3       14 UNK        -0.2313 
     17 C17       -57.0213  -28.9400   10.9347 C.3       14 UNK        -0.0915 
     18 CA        -57.9967  -29.3827   12.0529 C.3       13 UNK         0.0968 
     19 C         -58.5708  -30.8001   11.7616 C.2       13 UNK         0.5732 
     20 N         -58.2814  -31.8180   12.5647 N.am      13 UNK        -0.7310 
     21 O         -59.3056  -30.9766   10.7926 O.2       13 UNK        -0.5035 
     22 N         -57.3914  -29.2557   13.3884 N.am      13 UNK        -0.4233 
     23 C         -58.0832  -29.0783   14.5173 C.2       13 UNK         0.4989 
     24 O         -59.2979  -28.8741   14.5431 O.2       13 UNK        -0.4996 
     25 CA        -57.3246  -29.1516   15.8565 C.3       12 UNK         0.0216 
     26 CB        -57.4848  -30.5492   16.4867 C.3       12 UNK        -0.1964 
     27 N         -55.9087  -28.7508   15.8459 N.am      12 UNK        -0.4276 
     28 C         -54.8584  -29.3069   15.2291 C.2       12 UNK         0.5020 
     29 O         -54.9520  -30.2015   14.3866 O.2       12 UNK        -0.5489 
     30 CA        -53.4748  -28.7511   15.6243 C.3       11 UNK         0.0294 
     31 CB        -52.3232  -29.6600   15.1679 C.3       11 UNK        -0.2019 
     32 N         -53.2314  -27.3966   15.1236 N.am      11 UNK        -0.4493 
     33 C         -53.8290  -26.2860   15.5766 C.2       11 UNK         0.4932 
     34 O         -54.7043  -26.2831   16.4455 O.2       11 UNK        -0.5029 
     35 CA        -53.3262  -24.9640   14.9760 C.3       10 UNK         0.0280 
     36 CB        -54.0578  -23.7235   15.5290 C.3       10 UNK        -0.1976 
     37 N         -51.8750  -24.8255   15.1242 N.am      10 UNK        -0.4242 
     38 C         -51.1506  -24.8052   16.2550 C.2       10 UNK         0.5072 
     39 O         -51.6275  -24.8680   17.3887 O.2       10 UNK        -0.5224 
     40 CA        -49.6208  -24.7054   16.0971 C.3       9 UNK         0.0343 
     41 CB        -48.9797  -26.0918   16.2745 C.3       9 UNK        -0.2003 
     42 N         -49.2120  -24.1620   14.8006 N.am      9 UNK        -0.4272 
     43 C         -49.3728  -22.8913   14.4056 C.2       9 UNK         0.4988 
     44 O         -49.7627  -21.9844   15.1413 O.2       9 UNK        -0.5108 
     45 CA        -49.1058  -22.6039   12.9185 C.3       8 UNK         0.0248 
     46 CB        -47.6079  -22.3768   12.6561 C.3       8 UNK        -0.2001 
     47 N         -49.6117  -23.6794   12.0576 N.am      8 UNK        -0.4140 
     48 C         -50.9135  -23.9237   11.8439 C.2       8 UNK         0.5028 
     49 O         -51.8215  -23.2420   12.3166 O.2       8 UNK        -0.5428 
     50 CA        -51.2762  -25.1308   10.9673 C.3       7 UNK         0.0264 
     51 CB        -51.4307  -24.6778    9.5119 C.3       7 UNK        -0.1988 
     52 N         -50.3041  -26.2258   11.0554 N.am      7 UNK        -0.4454 
     53 C         -50.2538  -27.0914   12.0817 C.2       7 UNK         0.5027 
     54 O         -51.0328  -27.0547   13.0394 O.2       7 UNK        -0.5083 
     55 CA        -49.0936  -28.1175   12.0775 C.3       6 UNK         0.0844 
     56 C56       -49.3929  -29.3798   11.2281 C.3       14 UNK        -0.0967 
     57 S57       -50.4597  -30.5814   12.0918 S.3       14 UNK        -0.2604 
     58 C58       -51.7134  -30.9968   10.8350 C.3       14 UNK         0.0134 
     59 N         -47.8088  -27.5366   11.6795 N.am      6 UNK        -0.4116 
     60 C         -47.1877  -26.4960   12.2423 C.2       5 UNK         0.5034 
     61 O         -47.6683  -25.8342   13.1599 O.2       5 UNK        -0.5045 
     62 CA        -45.8094  -26.0962   11.6869 C.3       5 UNK         0.0224 
     63 CB        -44.6801  -26.6858   12.5527 C.3       5 UNK        -0.1978 
     64 N         -45.5933  -26.3791   10.2589 N.am      5 UNK        -0.4737 
     65 C         -45.5006  -27.5596    9.6241 C.2       4 UNK         0.5027 
     66 O         -45.6523  -28.6427   10.1887 O.2       4 UNK        -0.5211 
     67 CA        -45.2353  -27.5417    8.1058 C.3       4 UNK         0.0297 
     68 CB        -46.2871  -28.3733    7.3491 C.3       4 UNK        -0.1993 
     69 N         -45.2141  -26.1796    7.5665 N.am      4 UNK        -0.4486 
     70 C         -44.1187  -25.4086    7.4851 C.2       3 UNK         0.4961 
     71 O         -42.9844  -25.8090    7.7465 O.2       3 UNK        -0.5105 
     72 CA        -44.3086  -23.9347    7.0775 C.3       3 UNK         0.0299 
     73 CB        -43.8206  -23.7013    5.6386 C.3       3 UNK        -0.1972 
     74 N         -45.6912  -23.4637    7.2170 N.am      3 UNK        -0.4305 
     75 C         -46.2929  -23.2298    8.3950 C.2       2 UNK         0.5006 
     76 O         -45.7309  -23.3623    9.4820 O.2       2 UNK        -0.5106 
     77 CA        -47.7861  -22.8487    8.3713 C.3       2 UNK         0.0296 
     78 CB        -47.9579  -21.3223    8.3569 C.3       2 UNK        -0.2002 
     79 N         -48.5279  -23.4416    7.2523 N.am      2 UNK        -0.4032 
     80 C         -48.6603  -24.7616    7.0574 C.2       1 UNK         0.5000 
     81 O         -48.2068  -25.6035    7.8368 O.2       1 UNK        -0.5238 
     82 H82       -46.9866  -27.8195    3.8251 H         1 UNK         0.0889 
     83 H83       -45.5209  -26.9194    4.2252 H         1 UNK         0.0889 
     84 H84       -46.3684  -26.5986    2.7098 H         1 UNK         0.0889 
     85 H85       -48.7888  -27.0828    4.9803 H         1 UNK         0.3028 
     86 H86       -49.4930  -24.3225    5.1336 H         1 UNK         0.0864 
     87 H87       -51.2758  -25.9147    5.0253 H         1 UNK         0.0720 
     88 H88       -51.3834  -25.0983    6.5545 H         1 UNK         0.0720 
     89 H89       -52.9749  -28.3855    6.4197 H         1 UNK         0.0814 
     90 H90       -53.1125  -26.7281    6.9481 H         1 UNK         0.0814 
     91 H91       -51.5524  -29.8585    8.3655 H         1 UNK         0.1469 
     92 H92       -53.5039  -29.4256   12.1540 H         1 UNK         0.1381 
     93 H93       -54.1994  -26.5540    9.0475 H         1 UNK         0.1206 
     94 H94       -54.5721  -26.1243   11.7103 H         1 UNK         0.0813 
     95 H95       -54.8915  -27.5765   12.6236 H         1 UNK         0.0813 
     96 H96       -56.1122  -29.5408   10.9670 H         1 UNK         0.0638 
     97 H97       -57.4597  -29.1165    9.9507 H         1 UNK         0.0638 
     98 H98       -58.8563  -28.7110   12.0097 H         1 UNK         0.0568 
     99 H99       -57.6688  -31.6893   13.3536 H         1 UNK         0.3450 
    100 H100      -58.6661  -32.7278   12.3653 H         1 UNK         0.3450 
    101 H101      -56.4099  -29.5054   13.4771 H         1 UNK         0.2987 
    102 H102      -57.8184  -28.4376   16.5178 H         1 UNK         0.0766 
    103 H103      -57.0612  -30.5818   17.4906 H         1 UNK         0.0798 
    104 H104      -56.9966  -31.3223   15.8925 H         1 UNK         0.0798 
    105 H105      -58.5376  -30.8225   16.5723 H         1 UNK         0.0798 
    106 H106      -55.6944  -27.9213   16.3964 H         1 UNK         0.3198 
    107 H107      -53.4444  -28.7174   16.7157 H         1 UNK         0.0843 
    108 H108      -52.2703  -29.7108   14.0827 H         1 UNK         0.0831 
    109 H109      -52.4537  -30.6780   15.5371 H         1 UNK         0.0831 
    110 H110      -51.3606  -29.3007   15.5322 H         1 UNK         0.0831 
    111 H111      -52.5133  -27.3014   14.4096 H         1 UNK         0.3133 
    112 H112      -53.5237  -25.0134   13.9042 H         1 UNK         0.0566 
    113 H113      -53.6973  -22.8105   15.0546 H         1 UNK         0.0814 
    114 H114      -53.9241  -23.6176   16.6061 H         1 UNK         0.0814 
    115 H115      -55.1298  -23.7870   15.3391 H         1 UNK         0.0814 
    116 H116      -51.3601  -24.7898   14.2560 H         1 UNK         0.3091 
    117 H117      -49.2458  -24.0441   16.8809 H         1 UNK         0.0702 
    118 H118      -47.8923  -26.0363   16.2176 H         1 UNK         0.0785 
    119 H119      -49.3186  -26.7918   15.5089 H         1 UNK         0.0785 
    120 H120      -49.2335  -26.5199   17.2452 H         1 UNK         0.0785 
    121 H121      -48.7936  -24.8218   14.1463 H         1 UNK         0.2998 
    122 H122      -49.6358  -21.6856   12.6560 H         1 UNK         0.0697 
    123 H123      -47.0071  -23.2404   12.9397 H         1 UNK         0.0825 
    124 H124      -47.2403  -21.5268   13.2323 H         1 UNK         0.0825 
    125 H125      -47.4134  -22.1619   11.6053 H         1 UNK         0.0825 
    126 H126      -48.9308  -24.3190   11.6768 H         1 UNK         0.3029 
    127 H127      -52.2439  -25.5063   11.3050 H         1 UNK         0.0897 
    128 H128      -52.2398  -23.9529    9.4135 H         1 UNK         0.0792 
    129 H129      -51.6688  -25.5172    8.8648 H         1 UNK         0.0792 
    130 H130      -50.5244  -24.2047    9.1402 H         1 UNK         0.0792 
    131 H131      -49.6425  -26.3218   10.2968 H         1 UNK         0.3086 
    132 H132      -48.9561  -28.4328   13.1141 H         1 UNK         0.0583 
    133 H133      -49.7966  -29.1084   10.2526 H         1 UNK         0.1020 
    134 H134      -48.4649  -29.9126   11.0121 H         1 UNK         0.1020 
    135 H135      -51.2304  -31.5337   10.0171 H         1 UNK         0.0694 
    136 H136      -52.4356  -31.6879   11.2719 H         1 UNK         0.0694 
    137 H137      -47.2785  -28.0406   10.9752 H         1 UNK         0.2989 
    138 H138      -45.7524  -25.0102   11.7761 H         1 UNK         0.1055 
    139 H139      -44.7903  -26.3816   13.5946 H         1 UNK         0.0806 
    140 H140      -43.7022  -26.3407   12.2170 H         1 UNK         0.0806 
    141 H141      -44.6763  -27.7761   12.5340 H         1 UNK         0.0806 
    142 H142      -45.4993  -25.5466    9.6889 H         1 UNK         0.3061 
    143 H143      -44.2632  -28.0131    7.9470 H         1 UNK         0.0734 
    144 H144      -46.0895  -28.3830    6.2782 H         1 UNK         0.0832 
    145 H145      -46.2781  -29.4115    7.6834 H         1 UNK         0.0832 
    146 H146      -47.2979  -27.9957    7.5031 H         1 UNK         0.0832 
    147 H147      -46.1224  -25.7679    7.3832 H         1 UNK         0.3156 
    148 H148      -43.6834  -23.3333    7.7411 H         1 UNK         0.0589 
    149 H149      -44.3517  -24.3261    4.9210 H         1 UNK         0.0808 
    150 H150      -43.9450  -22.6609    5.3379 H         1 UNK         0.0808 
    151 H151      -42.7599  -23.9389    5.5467 H         1 UNK         0.0808 
    152 H152      -46.2286  -23.3836    6.3621 H         1 UNK         0.3098 
    153 H153      -48.2273  -23.2281    9.2952 H         1 UNK         0.0720 
    154 H154      -49.0074  -21.0403    8.4444 H         1 UNK         0.0791 
    155 H155      -47.5643  -20.8789    7.4413 H         1 UNK         0.0791 
    156 H156      -47.4310  -20.8626    9.1944 H         1 UNK         0.0791 
    157 H157      -48.9052  -22.8018    6.5675 H         1 UNK         0.3028 
@<TRIPOS>BOND
     1    1    2 1    
     2    1   82 1    
     3    1   83 1    
     4    1   84 1    
     5    2    3 2    
     6    2    4 am   BACKBONE|DICT|INTERRES
     7    4    5 1    
     8    4   85 1    
     9    5    6 1    
    10    5   80 1    
    11    5   86 1    
    12    6    7 1    
    13    6   87 1    
    14    6   88 1    
    15    7    8 1    
    16    8    9 1    
    17    8   89 1    
    18    8   90 1    
    19    9   10 ar   
    20    9   14 ar   
    21   10   11 ar   
    22   10   91 1    
    23   11   12 ar   
    24   11   58 1    
    25   12   13 ar   
    26   12   92 1    
    27   13   14 ar   
    28   13   15 1    
    29   14   93 1    
    30   15   16 1    
    31   15   94 1    
    32   15   95 1    
    33   16   17 1    
    34   17   18 1    
    35   17   96 1    
    36   17   97 1    
    37   18   19 1    
    38   18   22 1    
    39   18   98 1    
    40   19   20 am   BACKBONE|DICT|INTERRES
    41   19   21 2    
    42   20   99 1    
    43   20  100 1    
    44   22   23 am   BACKBONE|DICT|INTERRES
    45   22  101 1    
    46   23   24 2    
    47   23   25 1    
    48   25   26 1    
    49   25   27 1    
    50   25  102 1    
    51   26  103 1    
    52   26  104 1    
    53   26  105 1    
    54   27   28 am   BACKBONE|DICT|INTERRES
    55   27  106 1    
    56   28   29 2    
    57   28   30 1    
    58   30   31 1    
    59   30   32 1    
    60   30  107 1    
    61   31  108 1    
    62   31  109 1    
    63   31  110 1    
    64   32   33 am   BACKBONE|DICT|INTERRES
    65   32  111 1    
    66   33   34 2    
    67   33   35 1    
    68   35   36 1    
    69   35   37 1    
    70   35  112 1    
    71   36  113 1    
    72   36  114 1    
    73   36  115 1    
    74   37   38 am   BACKBONE|DICT|INTERRES
    75   37  116 1    
    76   38   39 2    
    77   38   40 1    
    78   40   41 1    
    79   40   42 1    
    80   40  117 1    
    81   41  118 1    
    82   41  119 1    
    83   41  120 1    
    84   42   43 am   BACKBONE|DICT|INTERRES
    85   42  121 1    
    86   43   44 2    
    87   43   45 1    
    88   45   46 1    
    89   45   47 1    
    90   45  122 1    
    91   46  123 1    
    92   46  124 1    
    93   46  125 1    
    94   47   48 am   BACKBONE|DICT|INTERRES
    95   47  126 1    
    96   48   49 2    
    97   48   50 1    
    98   50   51 1    
    99   50   52 1    
   100   50  127 1    
   101   51  128 1    
   102   51  129 1    
   103   51  130 1    
   104   52   53 am   BACKBONE|DICT|INTERRES
   105   52  131 1    
   106   53   54 2    
   107   53   55 1    
   108   55   56 1    
   109   55   59 1    
   110   55  132 1    
   111   56   57 1    
   112   56  133 1    
   113   56  134 1    
   114   57   58 1    
   115   58  135 1    
   116   58  136 1    
   117   59   60 am   BACKBONE|DICT|INTERRES
   118   59  137 1    
   119   60   61 2    
   120   60   62 1    
   121   62   63 1    
   122   62   64 1    
   123   62  138 1    
   124   63  139 1    
   125   63  140 1    
   126   63  141 1    
   127   64   65 am   BACKBONE|DICT|INTERRES
   128   64  142 1    
   129   65   66 2    
   130   65   67 1    
   131   67   68 1    
   132   67   69 1    
   133   67  143 1    
   134   68  144 1    
   135   68  145 1    
   136   68  146 1    
   137   69   70 am   BACKBONE|DICT|INTERRES
   138   69  147 1    
   139   70   71 2    
   140   70   72 1    
   141   72   73 1    
   142   72   74 1    
   143   72  148 1    
   144   73  149 1    
   145   73  150 1    
   146   73  151 1    
   147   74   75 am   BACKBONE|DICT|INTERRES
   148   74  152 1    
   149   75   76 2    
   150   75   77 1    
   151   77   78 1    
   152   77   79 1    
   153   77  153 1    
   154   78  154 1    
   155   78  155 1    
   156   78  156 1    
   157   79   80 am   BACKBONE|DICT|INTERRES
   158   79  157 1    
   159   80   81 2    
@<TRIPOS>SUBSTRUCTURE
     1 UNK         1 GROUP             0       ****    0 ROOT    
