@<TRIPOS>MOLECULE
3R207
157   159    1
SMALL
USER_CHARGES


@<TRIPOS>ATOM
      1 CA        -44.7848  -31.0297    4.7227 C.3       0 UNK        -0.1975 
      2 C         -46.0919  -30.2942    4.9761 C.2       0 UNK         0.4852 
      3 O         -46.4255  -30.0228    6.1302 O.2       0 UNK        -0.5216 
      4 N         -46.8264  -29.9543    3.9062 N.am      1 UNK        -0.4461 
      5 CA        -48.1250  -29.2610    3.8852 C.3       1 UNK         0.0864 
      6 C6        -49.2255  -30.0104    4.6821 C.3       14 UNK        -0.0898 
      7 S7        -50.8981  -29.7066    4.0255 S.3       14 UNK        -0.2598 
      8 C8        -51.8995  -30.7557    5.1266 C.3       14 UNK         0.0286 
      9 C9        -51.9768  -30.1699    6.5277 C.ar      14 UNK        -0.0844 
     10 C10       -51.1210  -30.6245    7.5333 C.ar      14 UNK        -0.0881 
     11 C11       -51.1538  -30.0483    8.8052 C.ar      14 UNK        -0.0643 
     12 C12       -52.0702  -29.0251    9.0735 C.ar      14 UNK        -0.0930 
     13 C13       -52.9641  -28.5842    8.0854 C.ar      14 UNK        -0.0827 
     14 C14       -52.9001  -29.1621    6.8143 C.ar      14 UNK        -0.1249 
     15 C15       -54.0132  -27.4906    8.3138 C.3       14 UNK         0.0141 
     16 S16       -54.0548  -26.7279    9.9711 S.3       14 UNK        -0.2313 
     17 C17       -54.7446  -28.0822   10.9853 C.3       14 UNK        -0.0915 
     18 CA        -56.2460  -27.8669   11.3305 C.3       13 UNK         0.0968 
     19 C         -56.9000  -29.1156   12.0007 C.2       13 UNK         0.5732 
     20 N         -57.8839  -28.9552   12.8779 N.am      13 UNK        -0.7310 
     21 O         -56.5421  -30.2511   11.6962 O.2       13 UNK        -0.5035 
     22 N         -56.4997  -26.5859   12.0173 N.am      13 UNK        -0.4233 
     23 C         -56.0827  -26.2454   13.2436 C.2       13 UNK         0.4989 
     24 O         -55.4283  -26.9779   13.9910 O.2       13 UNK        -0.4996 
     25 CA        -56.4982  -24.8493   13.7226 C.3       12 UNK         0.0216 
     26 CB        -58.0241  -24.7530   13.9260 C.3       12 UNK        -0.1964 
     27 N         -55.8161  -24.5547   14.9788 N.am      12 UNK        -0.4276 
     28 C         -55.5578  -23.3356   15.4624 C.2       12 UNK         0.5020 
     29 O         -55.8669  -22.2939   14.8812 O.2       12 UNK        -0.5489 
     30 CA        -54.8634  -23.2445   16.8343 C.3       11 UNK         0.0294 
     31 CB        -55.8547  -22.7519   17.9026 C.3       11 UNK        -0.2019 
     32 N         -54.2638  -24.5029   17.2917 N.am      11 UNK        -0.4493 
     33 C         -53.1022  -24.9942   16.8443 C.2       11 UNK         0.4932 
     34 O         -52.4404  -24.4798   15.9415 O.2       11 UNK        -0.5029 
     35 CA        -52.6060  -26.2831   17.5176 C.3       10 UNK         0.0280 
     36 CB        -52.9208  -27.5173   16.6573 C.3       10 UNK        -0.1976 
     37 N         -51.1660  -26.2037   17.7641 N.am      10 UNK        -0.4242 
     38 C         -50.6180  -25.5011   18.7676 C.2       10 UNK         0.5072 
     39 O         -51.2767  -24.9399   19.6451 O.2       10 UNK        -0.5224 
     40 CA        -49.0821  -25.4024   18.8200 C.3       9 UNK         0.0343 
     41 CB        -48.5049  -26.4743   19.7588 C.3       9 UNK        -0.2003 
     42 N         -48.4510  -25.5253   17.5064 N.am      9 UNK        -0.4272 
     43 C         -48.4958  -24.5967   16.5414 C.2       9 UNK         0.4988 
     44 O         -49.0043  -23.4840   16.6809 O.2       9 UNK        -0.5108 
     45 CA        -47.8586  -24.9713   15.1913 C.3       8 UNK         0.0248 
     46 CB        -46.6263  -25.8927   15.3281 C.3       8 UNK        -0.2001 
     47 N         -48.8230  -25.5456   14.2487 N.am      8 UNK        -0.4140 
     48 C         -49.6058  -26.6227   14.4221 C.2       8 UNK         0.5028 
     49 O         -49.6848  -27.2665   15.4702 O.2       8 UNK        -0.5428 
     50 CA        -50.4002  -27.0962   13.1928 C.3       7 UNK         0.0264 
     51 CB        -51.6128  -26.1886   12.9378 C.3       7 UNK        -0.1988 
     52 N         -49.5791  -27.1632   11.9803 N.am      7 UNK        -0.4454 
     53 C         -48.4943  -27.9387   11.8161 C.2       7 UNK         0.5027 
     54 O         -48.0929  -28.7443   12.6570 O.2       7 UNK        -0.5083 
     55 CA        -47.7020  -27.7542   10.5039 C.3       6 UNK         0.0844 
     56 C56       -48.3529  -28.4737    9.2952 C.3       14 UNK        -0.0967 
     57 S57       -48.4446  -30.2885    9.4523 S.3       14 UNK        -0.2604 
     58 C58       -50.1999  -30.5348    9.8900 C.3       14 UNK         0.0134 
     59 N         -47.5253  -26.3234   10.2445 N.am      6 UNK        -0.4116 
     60 C         -46.6155  -25.5446   10.8475 C.2       5 UNK         0.5034 
     61 O         -45.7137  -25.9779   11.5642 O.2       5 UNK        -0.5045 
     62 CA        -46.7356  -24.0221   10.6450 C.3       5 UNK         0.0224 
     63 CB        -45.6471  -23.4886    9.7016 C.3       5 UNK        -0.1978 
     64 N         -48.0527  -23.6105   10.1495 N.am      5 UNK        -0.4737 
     65 C         -49.1295  -23.4684   10.9347 C.2       4 UNK         0.5027 
     66 O         -49.1049  -23.6348   12.1531 O.2       4 UNK        -0.5211 
     67 CA        -50.4673  -23.1387   10.2472 C.3       4 UNK         0.0297 
     68 CB        -50.6465  -21.6180   10.1230 C.3       4 UNK        -0.1993 
     69 N         -50.6231  -23.7604    8.9281 N.am      4 UNK        -0.4486 
     70 C         -50.5800  -25.0791    8.6954 C.2       3 UNK         0.4961 
     71 O         -50.4061  -25.9124    9.5830 O.2       3 UNK        -0.5105 
     72 CA        -50.6997  -25.5574    7.2367 C.3       3 UNK         0.0299 
     73 CB        -51.2861  -24.4985    6.2774 C.3       3 UNK        -0.1972 
     74 N         -49.4316  -26.0759    6.7078 N.am      3 UNK        -0.4305 
     75 C         -48.2463  -25.4460    6.6585 C.2       2 UNK         0.5006 
     76 O         -48.0438  -24.3367    7.1558 O.2       2 UNK        -0.5106 
     77 CA        -47.0800  -26.1573    5.9407 C.3       2 UNK         0.0296 
     78 CB        -45.8362  -26.2628    6.8398 C.3       2 UNK        -0.2002 
     79 N         -47.4005  -27.4942    5.4346 N.am      2 UNK        -0.4032 
     80 C         -48.0258  -27.7704    4.2835 C.2       1 UNK         0.5000 
     81 O         -48.4860  -26.9064    3.5357 O.2       1 UNK        -0.5238 
     82 H82       -44.6128  -31.2040    3.6608 H         1 UNK         0.0889 
     83 H83       -44.7956  -31.9952    5.2277 H         1 UNK         0.0889 
     84 H84       -43.9479  -30.4507    5.1122 H         1 UNK         0.0889 
     85 H85       -46.4656  -30.1839    2.9899 H         1 UNK         0.3028 
     86 H86       -48.4128  -29.2745    2.8323 H         1 UNK         0.0864 
     87 H87       -49.1879  -29.7544    5.7421 H         1 UNK         0.0720 
     88 H88       -49.0548  -31.0869    4.6289 H         1 UNK         0.0720 
     89 H89       -51.4878  -31.7660    5.1495 H         1 UNK         0.0814 
     90 H90       -52.9045  -30.8463    4.7117 H         1 UNK         0.0814 
     91 H91       -50.4068  -31.4086    7.3216 H         1 UNK         0.1469 
     92 H92       -52.0783  -28.5801   10.0578 H         1 UNK         0.1381 
     93 H93       -53.5678  -28.8181    6.0357 H         1 UNK         0.1206 
     94 H94       -55.0022  -27.8961    8.0955 H         1 UNK         0.0813 
     95 H95       -53.8441  -26.6936    7.5887 H         1 UNK         0.0813 
     96 H96       -54.6064  -29.0224   10.4494 H         1 UNK         0.0638 
     97 H97       -54.1501  -28.1677   11.8959 H         1 UNK         0.0638 
     98 H98       -56.7731  -27.7824   10.3797 H         1 UNK         0.0568 
     99 H99       -58.1987  -28.0335   13.1319 H         1 UNK         0.3450 
    100 H100      -58.3079  -29.7683   13.2956 H         1 UNK         0.3450 
    101 H101      -57.0427  -25.9185   11.4896 H         1 UNK         0.2987 
    102 H102      -56.1806  -24.1287   12.9656 H         1 UNK         0.0766 
    103 H103      -58.3175  -23.7583   14.2624 H         1 UNK         0.0798 
    104 H104      -58.3761  -25.4712   14.6677 H         1 UNK         0.0798 
    105 H105      -58.5652  -24.9459   12.9992 H         1 UNK         0.0798 
    106 H106      -55.4671  -25.3707   15.4662 H         1 UNK         0.3198 
    107 H107      -54.0691  -22.5001   16.7412 H         1 UNK         0.0843 
    108 H108      -56.6765  -23.4545   18.0465 H         1 UNK         0.0831 
    109 H109      -56.2927  -21.7942   17.6174 H         1 UNK         0.0831 
    110 H110      -55.3631  -22.6052   18.8646 H         1 UNK         0.0831 
    111 H111      -54.7475  -24.9920   18.0320 H         1 UNK         0.3133 
    112 H112      -53.1172  -26.4042   18.4753 H         1 UNK         0.0566 
    113 H113      -52.6141  -28.4359   17.1576 H         1 UNK         0.0814 
    114 H114      -53.9907  -27.5968   16.4602 H         1 UNK         0.0814 
    115 H115      -52.4160  -27.4818   15.6931 H         1 UNK         0.0814 
    116 H116      -50.5599  -26.5899   17.0433 H         1 UNK         0.3091 
    117 H117      -48.8298  -24.4209   19.2272 H         1 UNK         0.0702 
    118 H118      -48.9362  -26.3909   20.7574 H         1 UNK         0.0785 
    119 H119      -48.7125  -27.4822   19.3970 H         1 UNK         0.0785 
    120 H120      -47.4248  -26.3699   19.8643 H         1 UNK         0.0785 
    121 H121      -48.0543  -26.4248   17.2741 H         1 UNK         0.2998 
    122 H122      -47.5175  -24.0370   14.7425 H         1 UNK         0.0697 
    123 H123      -46.8906  -26.8987   15.6554 H         1 UNK         0.0825 
    124 H124      -45.9089  -25.4879   16.0433 H         1 UNK         0.0825 
    125 H125      -46.1076  -25.9893   14.3741 H         1 UNK         0.0825 
    126 H126      -48.9200  -25.0263   13.3780 H         1 UNK         0.3029 
    127 H127      -50.7640  -28.1050   13.3985 H         1 UNK         0.0897 
    128 H128      -52.1768  -26.5271   12.0722 H         1 UNK         0.0792 
    129 H129      -51.3190  -25.1543   12.7599 H         1 UNK         0.0792 
    130 H130      -52.2963  -26.1882   13.7862 H         1 UNK         0.0792 
    131 H131      -49.8742  -26.5795   11.1994 H         1 UNK         0.3086 
    132 H132      -46.7145  -28.1970   10.6522 H         1 UNK         0.0583 
    133 H133      -49.3436  -28.0779    9.0843 H         1 UNK         0.1020 
    134 H134      -47.7673  -28.2735    8.3983 H         1 UNK         0.1020 
    135 H135      -50.3720  -31.5986   10.0588 H         1 UNK         0.0694 
    136 H136      -50.4049  -30.0391   10.8399 H         1 UNK         0.0694 
    137 H137      -48.2666  -25.8721    9.7247 H         1 UNK         0.2989 
    138 H138      -46.5707  -23.5677   11.6251 H         1 UNK         0.1055 
    139 H139      -44.6590  -23.8505    9.9895 H         1 UNK         0.0806 
    140 H140      -45.6105  -22.3994    9.7237 H         1 UNK         0.0806 
    141 H141      -45.8226  -23.7896    8.6712 H         1 UNK         0.0806 
    142 H142      -48.1567  -23.5118    9.1443 H         1 UNK         0.3061 
    143 H143      -51.2655  -23.5251   10.8843 H         1 UNK         0.0734 
    144 H144      -51.6302  -21.3640    9.7276 H         1 UNK         0.0832 
    145 H145      -50.5571  -21.1350   11.0972 H         1 UNK         0.0832 
    146 H146      -49.8946  -21.1739    9.4693 H         1 UNK         0.0832 
    147 H147      -50.7313  -23.1402    8.1388 H         1 UNK         0.3156 
    148 H148      -51.3878  -26.4017    7.2521 H         1 UNK         0.0589 
    149 H149      -50.6196  -23.6460    6.1414 H         1 UNK         0.0808 
    150 H150      -51.4679  -24.9286    5.2923 H         1 UNK         0.0808 
    151 H151      -52.2439  -24.1228    6.6405 H         1 UNK         0.0808 
    152 H152      -49.4822  -26.9952    6.2939 H         1 UNK         0.3098 
    153 H153      -46.8146  -25.5309    5.0865 H         1 UNK         0.0720 
    154 H154      -45.0394  -26.8245    6.3516 H         1 UNK         0.0791 
    155 H155      -46.0532  -26.7506    7.7895 H         1 UNK         0.0791 
    156 H156      -45.4320  -25.2756    7.0575 H         1 UNK         0.0791 
    157 H157      -47.0337  -28.2910    5.9530 H         1 UNK         0.3028 
@<TRIPOS>BOND
     1    1    2 1    
     2    1   82 1    
     3    1   83 1    
     4    1   84 1    
     5    2    3 2    
     6    2    4 am   BACKBONE|DICT|INTERRES
     7    4    5 1    
     8    4   85 1    
     9    5    6 1    
    10    5   80 1    
    11    5   86 1    
    12    6    7 1    
    13    6   87 1    
    14    6   88 1    
    15    7    8 1    
    16    8    9 1    
    17    8   89 1    
    18    8   90 1    
    19    9   10 ar   
    20    9   14 ar   
    21   10   11 ar   
    22   10   91 1    
    23   11   12 ar   
    24   11   58 1    
    25   12   13 ar   
    26   12   92 1    
    27   13   14 ar   
    28   13   15 1    
    29   14   93 1    
    30   15   16 1    
    31   15   94 1    
    32   15   95 1    
    33   16   17 1    
    34   17   18 1    
    35   17   96 1    
    36   17   97 1    
    37   18   19 1    
    38   18   22 1    
    39   18   98 1    
    40   19   20 am   BACKBONE|DICT|INTERRES
    41   19   21 2    
    42   20   99 1    
    43   20  100 1    
    44   22   23 am   BACKBONE|DICT|INTERRES
    45   22  101 1    
    46   23   24 2    
    47   23   25 1    
    48   25   26 1    
    49   25   27 1    
    50   25  102 1    
    51   26  103 1    
    52   26  104 1    
    53   26  105 1    
    54   27   28 am   BACKBONE|DICT|INTERRES
    55   27  106 1    
    56   28   29 2    
    57   28   30 1    
    58   30   31 1    
    59   30   32 1    
    60   30  107 1    
    61   31  108 1    
    62   31  109 1    
    63   31  110 1    
    64   32   33 am   BACKBONE|DICT|INTERRES
    65   32  111 1    
    66   33   34 2    
    67   33   35 1    
    68   35   36 1    
    69   35   37 1    
    70   35  112 1    
    71   36  113 1    
    72   36  114 1    
    73   36  115 1    
    74   37   38 am   BACKBONE|DICT|INTERRES
    75   37  116 1    
    76   38   39 2    
    77   38   40 1    
    78   40   41 1    
    79   40   42 1    
    80   40  117 1    
    81   41  118 1    
    82   41  119 1    
    83   41  120 1    
    84   42   43 am   BACKBONE|DICT|INTERRES
    85   42  121 1    
    86   43   44 2    
    87   43   45 1    
    88   45   46 1    
    89   45   47 1    
    90   45  122 1    
    91   46  123 1    
    92   46  124 1    
    93   46  125 1    
    94   47   48 am   BACKBONE|DICT|INTERRES
    95   47  126 1    
    96   48   49 2    
    97   48   50 1    
    98   50   51 1    
    99   50   52 1    
   100   50  127 1    
   101   51  128 1    
   102   51  129 1    
   103   51  130 1    
   104   52   53 am   BACKBONE|DICT|INTERRES
   105   52  131 1    
   106   53   54 2    
   107   53   55 1    
   108   55   56 1    
   109   55   59 1    
   110   55  132 1    
   111   56   57 1    
   112   56  133 1    
   113   56  134 1    
   114   57   58 1    
   115   58  135 1    
   116   58  136 1    
   117   59   60 am   BACKBONE|DICT|INTERRES
   118   59  137 1    
   119   60   61 2    
   120   60   62 1    
   121   62   63 1    
   122   62   64 1    
   123   62  138 1    
   124   63  139 1    
   125   63  140 1    
   126   63  141 1    
   127   64   65 am   BACKBONE|DICT|INTERRES
   128   64  142 1    
   129   65   66 2    
   130   65   67 1    
   131   67   68 1    
   132   67   69 1    
   133   67  143 1    
   134   68  144 1    
   135   68  145 1    
   136   68  146 1    
   137   69   70 am   BACKBONE|DICT|INTERRES
   138   69  147 1    
   139   70   71 2    
   140   70   72 1    
   141   72   73 1    
   142   72   74 1    
   143   72  148 1    
   144   73  149 1    
   145   73  150 1    
   146   73  151 1    
   147   74   75 am   BACKBONE|DICT|INTERRES
   148   74  152 1    
   149   75   76 2    
   150   75   77 1    
   151   77   78 1    
   152   77   79 1    
   153   77  153 1    
   154   78  154 1    
   155   78  155 1    
   156   78  156 1    
   157   79   80 am   BACKBONE|DICT|INTERRES
   158   79  157 1    
   159   80   81 2    
@<TRIPOS>SUBSTRUCTURE
     1 UNK         1 GROUP             0       ****    0 ROOT    
