@<TRIPOS>MOLECULE
3R207
157   159    1
SMALL
USER_CHARGES


@<TRIPOS>ATOM
      1 CA        -47.6925  -26.9065    4.2180 C.3       0 UNK        -0.1975 
      2 C         -48.4819  -25.9400    5.0877 C.2       0 UNK         0.4852 
      3 O         -48.1541  -24.7538    5.1397 O.2       0 UNK        -0.5216 
      4 N         -49.5104  -26.4431    5.7819 N.am      1 UNK        -0.4461 
      5 CA        -50.4146  -25.6945    6.6623 C.3       1 UNK         0.0864 
      6 C6        -51.6078  -26.5681    7.1173 C.3       14 UNK        -0.0898 
      7 S7        -52.6263  -27.1419    5.7140 S.3       14 UNK        -0.2598 
      8 C8        -52.4049  -28.9519    5.7822 C.3       14 UNK         0.0286 
      9 C9        -52.9428  -29.5387    7.0795 C.ar      14 UNK        -0.0844 
     10 C10       -52.0696  -30.0722    8.0317 C.ar      14 UNK        -0.0881 
     11 C11       -52.5540  -30.5497    9.2545 C.ar      14 UNK        -0.0643 
     12 C12       -53.9310  -30.5257    9.5005 C.ar      14 UNK        -0.0930 
     13 C13       -54.8156  -30.0039    8.5514 C.ar      14 UNK        -0.0827 
     14 C14       -54.3150  -29.5220    7.3394 C.ar      14 UNK        -0.1249 
     15 C15       -56.3118  -29.9445    8.8244 C.3       14 UNK         0.0141 
     16 S16       -56.8625  -28.2318    9.1223 S.3       14 UNK        -0.2313 
     17 C17       -56.9604  -28.1621   10.9418 C.3       14 UNK        -0.0915 
     18 CA        -55.5827  -27.9968   11.6489 C.3       13 UNK         0.0968 
     19 C         -55.0576  -26.5380   11.6345 C.2       13 UNK         0.5732 
     20 N         -54.7287  -26.0102   10.4648 N.am      13 UNK        -0.7310 
     21 O         -54.9554  -25.8797   12.6688 O.2       13 UNK        -0.5035 
     22 N         -55.6016  -28.5166   13.0182 N.am      13 UNK        -0.4233 
     23 C         -55.7001  -29.8022   13.3703 C.2       13 UNK         0.4989 
     24 O         -55.8170  -30.7281   12.5655 O.2       13 UNK        -0.4996 
     25 CA        -55.6620  -30.0910   14.8840 C.3       12 UNK         0.0216 
     26 CB        -55.6139  -31.6002   15.2074 C.3       12 UNK        -0.1964 
     27 N         -54.5776  -29.3808   15.5752 N.am      12 UNK        -0.4276 
     28 C         -53.2632  -29.4687   15.3244 C.2       12 UNK         0.5020 
     29 O         -52.7677  -30.1434   14.4202 O.2       12 UNK        -0.5489 
     30 CA        -52.3599  -28.6311   16.2388 C.3       11 UNK         0.0294 
     31 CB        -50.8804  -29.0516   16.1632 C.3       11 UNK        -0.2019 
     32 N         -52.4695  -27.2183   15.8911 N.am      11 UNK        -0.4493 
     33 C         -53.3663  -26.3556   16.3834 C.2       11 UNK         0.4932 
     34 O         -54.2752  -26.6824   17.1493 O.2       11 UNK        -0.5029 
     35 CA        -53.1865  -24.8853   15.9509 C.3       10 UNK         0.0280 
     36 CB        -54.0070  -23.8912   16.7992 C.3       10 UNK        -0.1976 
     37 N         -51.7642  -24.5140   15.8989 N.am      10 UNK        -0.4242 
     38 C         -50.8900  -24.4915   16.9188 C.2       10 UNK         0.5072 
     39 O         -51.2074  -24.6058   18.1034 O.2       10 UNK        -0.5224 
     40 CA        -49.3957  -24.3721   16.5664 C.3       9 UNK         0.0343 
     41 CB        -48.7029  -25.7344   16.7370 C.3       9 UNK        -0.2003 
     42 N         -49.1545  -23.8968   15.2030 N.am      9 UNK        -0.4272 
     43 C         -49.1588  -22.6074   14.8382 C.2       9 UNK         0.4988 
     44 O         -49.3470  -21.6721   15.6167 O.2       9 UNK        -0.5108 
     45 CA        -48.9333  -22.3168   13.3461 C.3       8 UNK         0.0248 
     46 CB        -47.4513  -22.4740   12.9672 C.3       8 UNK        -0.2001 
     47 N         -49.7583  -23.1786   12.4984 N.am      8 UNK        -0.4140 
     48 C         -51.0831  -23.0403   12.3461 C.2       8 UNK         0.5028 
     49 O         -51.7423  -22.1430   12.8708 O.2       8 UNK        -0.5428 
     50 CA        -51.8027  -24.0721   11.4625 C.3       7 UNK         0.0264 
     51 CB        -52.0775  -23.4875   10.0682 C.3       7 UNK        -0.1988 
     52 N         -51.0770  -25.3417   11.3405 N.am      7 UNK        -0.4454 
     53 C         -51.0380  -26.2587   12.3185 C.2       7 UNK         0.5027 
     54 O         -51.5509  -26.1039   13.4255 O.2       7 UNK        -0.5083 
     55 CA        -50.2522  -27.5474   12.0325 C.3       6 UNK         0.0844 
     56 C56       -50.9944  -28.3976   10.9747 C.3       14 UNK        -0.0967 
     57 S57       -50.1678  -29.9834   10.6194 S.3       14 UNK        -0.2604 
     58 C58       -51.5990  -31.0792   10.3218 C.3       14 UNK         0.0134 
     59 N         -48.8569  -27.2772   11.6760 N.am      6 UNK        -0.4116 
     60 C         -47.9723  -26.5689   12.3927 C.2       5 UNK         0.5034 
     61 O         -48.2544  -25.9780   13.4355 O.2       5 UNK        -0.5045 
     62 CA        -46.5354  -26.4471   11.8575 C.3       5 UNK         0.0224 
     63 CB        -45.5292  -27.1749   12.7707 C.3       5 UNK        -0.1978 
     64 N         -46.3748  -26.8190   10.4456 N.am      5 UNK        -0.4737 
     65 C         -46.3923  -28.0334    9.8731 C.2       4 UNK         0.5027 
     66 O         -46.5116  -29.0829   10.5023 O.2       4 UNK        -0.5211 
     67 CA        -46.3189  -28.0915    8.3336 C.3       4 UNK         0.0297 
     68 CB        -47.5823  -28.7591    7.7601 C.3       4 UNK        -0.1993 
     69 N         -46.1714  -26.7643    7.7310 N.am      4 UNK        -0.4486 
     70 C         -45.0133  -26.1039    7.5887 C.2       3 UNK         0.4961 
     71 O         -43.9104  -26.5968    7.8230 O.2       3 UNK        -0.5105 
     72 CA        -45.1038  -24.6294    7.1526 C.3       3 UNK         0.0299 
     73 CB        -44.7418  -24.4731    5.6669 C.3       3 UNK        -0.1972 
     74 N         -46.4242  -24.0385    7.4055 N.am      3 UNK        -0.4305 
     75 C         -46.8838  -23.7106    8.6242 C.2       2 UNK         0.5006 
     76 O         -46.2307  -23.8524    9.6567 O.2       2 UNK        -0.5106 
     77 CA        -48.3306  -23.2016    8.7238 C.3       2 UNK         0.0296 
     78 CB        -48.3896  -21.6780    8.5385 C.3       2 UNK        -0.2002 
     79 N         -49.2105  -23.8558    7.7539 N.am      2 UNK        -0.4032 
     80 C         -49.6553  -25.1137    7.8732 C.2       1 UNK         0.5000 
     81 O         -49.4617  -25.8111    8.8732 O.2       1 UNK        -0.5238 
     82 H82       -48.2136  -27.8549    4.0891 H         1 UNK         0.0889 
     83 H83       -46.7205  -27.1102    4.6659 H         1 UNK         0.0889 
     84 H84       -47.5301  -26.4753    3.2306 H         1 UNK         0.0889 
     85 H85       -49.7292  -27.4233    5.6871 H         1 UNK         0.3028 
     86 H86       -50.8178  -24.8579    6.0873 H         1 UNK         0.0864 
     87 H87       -51.2516  -27.4236    7.6909 H         1 UNK         0.0720 
     88 H88       -52.2630  -26.0083    7.7865 H         1 UNK         0.0720 
     89 H89       -51.3495  -29.1941    5.6502 H         1 UNK         0.0814 
     90 H90       -52.9303  -29.4044    4.9401 H         1 UNK         0.0814 
     91 H91       -51.0058  -30.0873    7.8377 H         1 UNK         0.1469 
     92 H92       -54.3140  -30.8981   10.4406 H         1 UNK         0.1381 
     93 H93       -54.9931  -29.1045    6.6073 H         1 UNK         0.1206 
     94 H94       -56.5821  -30.5846    9.6658 H         1 UNK         0.0813 
     95 H95       -56.8469  -30.3387    7.9594 H         1 UNK         0.0813 
     96 H96       -57.4655  -29.0720   11.2669 H         1 UNK         0.0638 
     97 H97       -57.6339  -27.3502   11.2217 H         1 UNK         0.0638 
     98 H98       -54.8320  -28.5830   11.1220 H         1 UNK         0.0568 
     99 H99       -54.4142  -25.0557   10.4290 H         1 UNK         0.3450 
    100 H100      -54.8579  -26.5367    9.6142 H         1 UNK         0.3450 
    101 H101      -55.4714  -27.8073   13.7277 H         1 UNK         0.2987 
    102 H102      -56.5958  -29.6990   15.2901 H         1 UNK         0.0766 
    103 H103      -55.6243  -31.7766   16.2829 H         1 UNK         0.0798 
    104 H104      -54.7204  -32.0734   14.7983 H         1 UNK         0.0798 
    105 H105      -56.4769  -32.1182   14.7871 H         1 UNK         0.0798 
    106 H106      -54.8626  -28.7417   16.3090 H         1 UNK         0.3198 
    107 H107      -52.6924  -28.7822   17.2685 H         1 UNK         0.0843 
    108 H108      -50.4567  -28.8797   15.1740 H         1 UNK         0.0831 
    109 H109      -50.7656  -30.1130   16.3867 H         1 UNK         0.0831 
    110 H110      -50.2775  -28.5035   16.8870 H         1 UNK         0.0831 
    111 H111      -51.8616  -26.8788   15.1502 H         1 UNK         0.3133 
    112 H112      -53.5536  -24.8216   14.9255 H         1 UNK         0.0566 
    113 H113      -53.8454  -22.8642   16.4722 H         1 UNK         0.0814 
    114 H114      -55.0745  -24.0958   16.7103 H         1 UNK         0.0814 
    115 H115      -53.7546  -23.9514   17.8581 H         1 UNK         0.0814 
    116 H116      -51.3784  -24.4633   14.9650 H         1 UNK         0.3091 
    117 H117      -48.9461  -23.6714   17.2733 H         1 UNK         0.0702 
    118 H118      -47.6300  -25.6581   16.5597 H         1 UNK         0.0785 
    119 H119      -49.1022  -26.4765   16.0446 H         1 UNK         0.0785 
    120 H120      -48.8385  -26.1221   17.7476 H         1 UNK         0.0785 
    121 H121      -48.9399  -24.6098   14.5082 H         1 UNK         0.2998 
    122 H122      -49.2189  -21.2794   13.1582 H         1 UNK         0.0697 
    123 H123      -47.0824  -23.4797   13.1672 H         1 UNK         0.0825 
    124 H124      -46.8310  -21.7838   13.5405 H         1 UNK         0.0825 
    125 H125      -47.2833  -22.2581   11.9117 H         1 UNK         0.0825 
    126 H126      -49.3059  -23.9689   12.0647 H         1 UNK         0.3029 
    127 H127      -52.7653  -24.2784   11.9359 H         1 UNK         0.0897 
    128 H128      -52.5489  -24.2157    9.4095 H         1 UNK         0.0792 
    129 H129      -52.7493  -22.6307   10.1364 H         1 UNK         0.0792 
    130 H130      -51.1650  -23.1366    9.5898 H         1 UNK         0.0792 
    131 H131      -50.5800  -25.5261   10.4726 H         1 UNK         0.3086 
    132 H132      -50.2274  -28.1217   12.9597 H         1 UNK         0.0583 
    133 H133      -52.0118  -28.6036   11.3156 H         1 UNK         0.1020 
    134 H134      -51.0930  -27.8546   10.0336 H         1 UNK         0.1020 
    135 H135      -51.2349  -32.0603   10.0149 H         1 UNK         0.0694 
    136 H136      -52.1221  -31.2239   11.2690 H         1 UNK         0.0694 
    137 H137      -48.5248  -27.7305   10.8373 H         1 UNK         0.2989 
    138 H138      -46.2938  -25.3844   11.9006 H         1 UNK         0.1055 
    139 H139      -45.5618  -26.7685   13.7826 H         1 UNK         0.0806 
    140 H140      -44.5078  -27.0596   12.4084 H         1 UNK         0.0806 
    141 H141      -45.7421  -28.2412   12.8483 H         1 UNK         0.0806 
    142 H142      -46.2769  -26.0214    9.8289 H         1 UNK         0.3061 
    143 H143      -45.4555  -28.7056    8.0690 H         1 UNK         0.0734 
    144 H144      -47.5338  -28.8377    6.6744 H         1 UNK         0.0832 
    145 H145      -47.6988  -29.7720    8.1485 H         1 UNK         0.0832 
    146 H146      -48.4874  -28.2106    8.0228 H         1 UNK         0.0832 
    147 H147      -47.0260  -26.2653    7.5349 H         1 UNK         0.3156 
    148 H148      -44.3665  -24.0734    7.7358 H         1 UNK         0.0589 
    149 H149      -45.4350  -25.0074    5.0181 H         1 UNK         0.0808 
    150 H150      -44.7436  -23.4251    5.3670 H         1 UNK         0.0808 
    151 H151      -43.7433  -24.8641    5.4664 H         1 UNK         0.0808 
    152 H152      -47.0392  -23.9483    6.6014 H         1 UNK         0.3098 
    153 H153      -48.6893  -23.4313    9.7290 H         1 UNK         0.0720 
    154 H154      -48.0513  -21.3758    7.5465 H         1 UNK         0.0791 
    155 H155      -47.7552  -21.1725    9.2682 H         1 UNK         0.0791 
    156 H156      -49.4031  -21.3010    8.6775 H         1 UNK         0.0791 
    157 H157      -49.3756  -23.3667    6.8843 H         1 UNK         0.3028 
@<TRIPOS>BOND
     1    1    2 1    
     2    1   82 1    
     3    1   83 1    
     4    1   84 1    
     5    2    3 2    
     6    2    4 am   BACKBONE|DICT|INTERRES
     7    4    5 1    
     8    4   85 1    
     9    5    6 1    
    10    5   80 1    
    11    5   86 1    
    12    6    7 1    
    13    6   87 1    
    14    6   88 1    
    15    7    8 1    
    16    8    9 1    
    17    8   89 1    
    18    8   90 1    
    19    9   10 ar   
    20    9   14 ar   
    21   10   11 ar   
    22   10   91 1    
    23   11   12 ar   
    24   11   58 1    
    25   12   13 ar   
    26   12   92 1    
    27   13   14 ar   
    28   13   15 1    
    29   14   93 1    
    30   15   16 1    
    31   15   94 1    
    32   15   95 1    
    33   16   17 1    
    34   17   18 1    
    35   17   96 1    
    36   17   97 1    
    37   18   19 1    
    38   18   22 1    
    39   18   98 1    
    40   19   20 am   BACKBONE|DICT|INTERRES
    41   19   21 2    
    42   20   99 1    
    43   20  100 1    
    44   22   23 am   BACKBONE|DICT|INTERRES
    45   22  101 1    
    46   23   24 2    
    47   23   25 1    
    48   25   26 1    
    49   25   27 1    
    50   25  102 1    
    51   26  103 1    
    52   26  104 1    
    53   26  105 1    
    54   27   28 am   BACKBONE|DICT|INTERRES
    55   27  106 1    
    56   28   29 2    
    57   28   30 1    
    58   30   31 1    
    59   30   32 1    
    60   30  107 1    
    61   31  108 1    
    62   31  109 1    
    63   31  110 1    
    64   32   33 am   BACKBONE|DICT|INTERRES
    65   32  111 1    
    66   33   34 2    
    67   33   35 1    
    68   35   36 1    
    69   35   37 1    
    70   35  112 1    
    71   36  113 1    
    72   36  114 1    
    73   36  115 1    
    74   37   38 am   BACKBONE|DICT|INTERRES
    75   37  116 1    
    76   38   39 2    
    77   38   40 1    
    78   40   41 1    
    79   40   42 1    
    80   40  117 1    
    81   41  118 1    
    82   41  119 1    
    83   41  120 1    
    84   42   43 am   BACKBONE|DICT|INTERRES
    85   42  121 1    
    86   43   44 2    
    87   43   45 1    
    88   45   46 1    
    89   45   47 1    
    90   45  122 1    
    91   46  123 1    
    92   46  124 1    
    93   46  125 1    
    94   47   48 am   BACKBONE|DICT|INTERRES
    95   47  126 1    
    96   48   49 2    
    97   48   50 1    
    98   50   51 1    
    99   50   52 1    
   100   50  127 1    
   101   51  128 1    
   102   51  129 1    
   103   51  130 1    
   104   52   53 am   BACKBONE|DICT|INTERRES
   105   52  131 1    
   106   53   54 2    
   107   53   55 1    
   108   55   56 1    
   109   55   59 1    
   110   55  132 1    
   111   56   57 1    
   112   56  133 1    
   113   56  134 1    
   114   57   58 1    
   115   58  135 1    
   116   58  136 1    
   117   59   60 am   BACKBONE|DICT|INTERRES
   118   59  137 1    
   119   60   61 2    
   120   60   62 1    
   121   62   63 1    
   122   62   64 1    
   123   62  138 1    
   124   63  139 1    
   125   63  140 1    
   126   63  141 1    
   127   64   65 am   BACKBONE|DICT|INTERRES
   128   64  142 1    
   129   65   66 2    
   130   65   67 1    
   131   67   68 1    
   132   67   69 1    
   133   67  143 1    
   134   68  144 1    
   135   68  145 1    
   136   68  146 1    
   137   69   70 am   BACKBONE|DICT|INTERRES
   138   69  147 1    
   139   70   71 2    
   140   70   72 1    
   141   72   73 1    
   142   72   74 1    
   143   72  148 1    
   144   73  149 1    
   145   73  150 1    
   146   73  151 1    
   147   74   75 am   BACKBONE|DICT|INTERRES
   148   74  152 1    
   149   75   76 2    
   150   75   77 1    
   151   77   78 1    
   152   77   79 1    
   153   77  153 1    
   154   78  154 1    
   155   78  155 1    
   156   78  156 1    
   157   79   80 am   BACKBONE|DICT|INTERRES
   158   79  157 1    
   159   80   81 2    
@<TRIPOS>SUBSTRUCTURE
     1 UNK         1 GROUP             0       ****    0 ROOT    
