@<TRIPOS>MOLECULE
3R207
157   159    1
SMALL
USER_CHARGES


@<TRIPOS>ATOM
      1 CA        -50.0134  -29.6782    8.3972 C.3       0 UNK        -0.1975 
      2 C         -50.0456  -28.6147    7.3120 C.2       0 UNK         0.4852 
      3 O         -49.9419  -27.4266    7.6090 O.2       0 UNK        -0.5216 
      4 N         -50.1658  -29.0470    6.0501 N.am      1 UNK        -0.4461 
      5 CA        -50.3713  -28.2479    4.8289 C.3       1 UNK         0.0864 
      6 C6        -51.6871  -27.4234    4.8463 C.3       14 UNK        -0.0898 
      7 S7        -53.1499  -28.5000    5.0470 S.3       14 UNK        -0.2598 
      8 C8        -54.2571  -27.4830    6.0770 C.3       14 UNK         0.0286 
      9 C9        -53.7339  -27.2672    7.4921 C.ar      14 UNK        -0.0844 
     10 C10       -53.4434  -25.9756    7.9398 C.ar      14 UNK        -0.0881 
     11 C11       -52.9999  -25.7597    9.2468 C.ar      14 UNK        -0.0643 
     12 C12       -52.8388  -26.8519   10.1040 C.ar      14 UNK        -0.0930 
     13 C13       -53.1387  -28.1543    9.6816 C.ar      14 UNK        -0.0827 
     14 C14       -53.5882  -28.3470    8.3702 C.ar      14 UNK        -0.1249 
     15 C15       -53.0273  -29.3766   10.6003 C.3       14 UNK         0.0141 
     16 S16       -52.2450  -29.0854   12.2274 S.3       14 UNK        -0.2313 
     17 C17       -52.2376  -30.7674   12.9290 C.3       14 UNK        -0.0915 
     18 CA        -53.4576  -31.0402   13.8578 C.3       13 UNK         0.0968 
     19 C         -53.6533  -32.5544   14.1826 C.2       13 UNK         0.5732 
     20 N         -54.2382  -32.9151   15.3193 N.am      13 UNK        -0.7310 
     21 O         -53.3058  -33.4206   13.3829 O.2       13 UNK        -0.5035 
     22 N         -53.5173  -30.1519   15.0358 N.am      13 UNK        -0.4233 
     23 C         -52.6687  -30.1431   16.0769 C.2       13 UNK         0.4989 
     24 O         -51.6535  -30.8380   16.1313 O.2       13 UNK        -0.4996 
     25 CA        -53.0216  -29.2432   17.2812 C.3       12 UNK         0.0216 
     26 CB        -51.7911  -28.5843   17.9339 C.3       12 UNK        -0.1964 
     27 N         -54.0118  -28.2138   16.9498 N.am      12 UNK        -0.4276 
     28 C         -55.3280  -28.3335   17.1767 C.2       12 UNK         0.5020 
     29 O         -55.8416  -29.2963   17.7475 O.2       12 UNK        -0.5489 
     30 CA        -56.2355  -27.2148   16.6386 C.3       11 UNK         0.0294 
     31 CB        -56.2877  -26.0402   17.6285 C.3       11 UNK        -0.2019 
     32 N         -55.8361  -26.7170   15.3209 N.am      11 UNK        -0.4493 
     33 C         -55.7129  -27.4363   14.1980 C.2       11 UNK         0.4932 
     34 O         -55.9414  -28.6441   14.1384 O.2       11 UNK        -0.5029 
     35 CA        -55.2069  -26.7104   12.9366 C.3       10 UNK         0.0280 
     36 CB        -56.3739  -26.2037   12.0688 C.3       10 UNK        -0.1976 
     37 N         -54.2198  -25.6511   13.1999 N.am      10 UNK        -0.4242 
     38 C         -54.3886  -24.4792   13.8299 C.2       10 UNK         0.5072 
     39 O         -55.4732  -24.0899   14.2661 O.2       10 UNK        -0.5224 
     40 CA        -53.1264  -23.6261   14.0556 C.3       9 UNK         0.0343 
     41 CB        -53.2687  -22.6727   15.2609 C.3       9 UNK        -0.2003 
     42 N         -51.8830  -24.4000   14.1708 N.am      9 UNK        -0.4272 
     43 C         -51.5828  -25.3513   15.0726 C.2       9 UNK         0.4988 
     44 O         -52.4015  -25.8169   15.8689 O.2       9 UNK        -0.5108 
     45 CA        -50.1381  -25.9014   15.0847 C.3       8 UNK         0.0248 
     46 CB        -50.1194  -27.3661   14.6208 C.3       8 UNK        -0.2001 
     47 N         -49.1928  -25.1484   14.2524 N.am      8 UNK        -0.4140 
     48 C         -48.7582  -23.8980   14.4809 C.2       8 UNK         0.5028 
     49 O         -48.9879  -23.2785   15.5197 O.2       8 UNK        -0.5428 
     50 CA        -47.9835  -23.1933   13.3416 C.3       7 UNK         0.0264 
     51 CB        -46.4712  -23.2379   13.6104 C.3       7 UNK        -0.1988 
     52 N         -48.2445  -23.7467   12.0062 N.am      7 UNK        -0.4454 
     53 C         -49.4542  -23.8662   11.4364 C.2       7 UNK         0.5027 
     54 O         -50.4578  -23.3404   11.9155 O.2       7 UNK        -0.5083 
     55 CA        -49.5977  -24.8109   10.2155 C.3       6 UNK         0.0844 
     56 C56       -49.9709  -24.0616    8.9106 C.3       14 UNK        -0.0967 
     57 S57       -51.6463  -23.3367    8.7462 S.3       14 UNK        -0.2604 
     58 C58       -52.7766  -24.3452    9.7684 C.3       14 UNK         0.0134 
     59 N         -48.4212  -25.6620    9.9977 N.am      6 UNK        -0.4116 
     60 C         -47.9321  -26.5880   10.8342 C.2       5 UNK         0.5034 
     61 O         -48.4290  -26.8474   11.9285 O.2       5 UNK        -0.5045 
     62 CA        -46.6230  -27.2755   10.4202 C.3       5 UNK         0.0224 
     63 CB        -46.8883  -28.4624    9.4847 C.3       5 UNK        -0.1978 
     64 N         -45.7148  -26.3335    9.7634 N.am      5 UNK        -0.4737 
     65 C         -44.8042  -25.5894   10.4042 C.2       4 UNK         0.5027 
     66 O         -44.6007  -25.6536   11.6161 O.2       4 UNK        -0.5211 
     67 CA        -43.9795  -24.6037    9.5566 C.3       4 UNK         0.0297 
     68 CB        -42.6781  -25.2680    9.0796 C.3       4 UNK        -0.1993 
     69 N         -44.7068  -24.0767    8.3985 N.am      4 UNK        -0.4486 
     70 C         -45.7500  -23.2391    8.4745 C.2       3 UNK         0.4961 
     71 O         -46.2061  -22.8037    9.5319 O.2       3 UNK        -0.5105 
     72 CA        -46.4195  -22.8426    7.1448 C.3       3 UNK         0.0299 
     73 CB        -45.7068  -21.6264    6.5321 C.3       3 UNK        -0.1972 
     74 N         -46.5136  -23.9120    6.1388 N.am      3 UNK        -0.4305 
     75 C         -47.0377  -25.1289    6.3400 C.2       2 UNK         0.5006 
     76 O         -47.3690  -25.5593    7.4447 O.2       2 UNK        -0.5106 
     77 CA        -47.1936  -26.0353    5.1182 C.3       2 UNK         0.0296 
     78 CB        -45.9408  -26.9057    4.9196 C.3       2 UNK        -0.2002 
     79 N         -48.3607  -26.8865    5.3357 N.am      2 UNK        -0.4032 
     80 C         -49.1657  -27.3812    4.3909 C.2       1 UNK         0.5000 
     81 O         -48.9796  -27.1943    3.1864 O.2       1 UNK        -0.5238 
     82 H82       -49.0798  -30.2378    8.3577 H         1 UNK         0.0889 
     83 H83       -50.8400  -30.3767    8.2722 H         1 UNK         0.0889 
     84 H84       -50.1026  -29.2208    9.3829 H         1 UNK         0.0889 
     85 H85       -50.1979  -30.0449    5.8950 H         1 UNK         0.3028 
     86 H86       -50.4769  -28.9902    4.0358 H         1 UNK         0.0864 
     87 H87       -51.8108  -26.8719    3.9124 H         1 UNK         0.0720 
     88 H88       -51.6605  -26.6763    5.6411 H         1 UNK         0.0720 
     89 H89       -55.2284  -27.9759    6.1354 H         1 UNK         0.0814 
     90 H90       -54.4305  -26.5306    5.5737 H         1 UNK         0.0814 
     91 H91       -53.5782  -25.1308    7.2786 H         1 UNK         0.1469 
     92 H92       -52.4993  -26.6716   11.1110 H         1 UNK         0.1381 
     93 H93       -53.8301  -29.3438    8.0274 H         1 UNK         0.1206 
     94 H94       -52.4682  -30.1563   10.0828 H         1 UNK         0.0813 
     95 H95       -54.0295  -29.7730   10.7686 H         1 UNK         0.0813 
     96 H96       -52.2086  -31.4756   12.0996 H         1 UNK         0.0638 
     97 H97       -51.3024  -30.9095   13.4717 H         1 UNK         0.0638 
     98 H98       -54.3474  -30.7920   13.2787 H         1 UNK         0.0568 
     99 H99       -54.5536  -32.2212   15.9775 H         1 UNK         0.3450 
    100 H100      -54.3709  -33.8947   15.5146 H         1 UNK         0.3450 
    101 H101      -54.3390  -29.5602   15.0698 H         1 UNK         0.2987 
    102 H102      -53.4370  -29.9207   18.0298 H         1 UNK         0.0766 
    103 H103      -51.3398  -27.8254   17.2993 H         1 UNK         0.0798 
    104 H104      -51.0198  -29.3191   18.1680 H         1 UNK         0.0798 
    105 H105      -52.0637  -28.1010   18.8721 H         1 UNK         0.0798 
    106 H106      -53.6624  -27.3808   16.4831 H         1 UNK         0.3198 
    107 H107      -57.2418  -27.6269   16.5391 H         1 UNK         0.0843 
    108 H108      -57.0023  -25.2820   17.3076 H         1 UNK         0.0831 
    109 H109      -55.3142  -25.5592   17.7354 H         1 UNK         0.0831 
    110 H110      -56.5969  -26.3771   18.6191 H         1 UNK         0.0831 
    111 H111      -55.6676  -25.7180   15.2374 H         1 UNK         0.3133 
    112 H112      -54.6807  -27.4610   12.3480 H         1 UNK         0.0566 
    113 H113      -57.0354  -27.0259   11.7930 H         1 UNK         0.0814 
    114 H114      -56.9810  -25.4614   12.5874 H         1 UNK         0.0814 
    115 H115      -56.0112  -25.7566   11.1430 H         1 UNK         0.0814 
    116 H116      -53.2693  -25.8889   12.9596 H         1 UNK         0.3091 
    117 H117      -53.0173  -23.0119   13.1606 H         1 UNK         0.0702 
    118 H118      -52.3735  -22.0643   15.3917 H         1 UNK         0.0785 
    119 H119      -53.4406  -23.2197   16.1887 H         1 UNK         0.0785 
    120 H120      -54.1066  -21.9877   15.1256 H         1 UNK         0.0785 
    121 H121      -51.1573  -24.1087   13.5212 H         1 UNK         0.2998 
    122 H122      -49.7909  -25.8607   16.1188 H         1 UNK         0.0697 
    123 H123      -49.1473  -27.8268   14.7959 H         1 UNK         0.0825 
    124 H124      -50.8638  -27.9723   15.1331 H         1 UNK         0.0825 
    125 H125      -50.3352  -27.4428   13.5568 H         1 UNK         0.0825 
    126 H126      -48.9112  -25.6053   13.3892 H         1 UNK         0.3029 
    127 H127      -48.3033  -22.1494   13.3304 H         1 UNK         0.0897 
    128 H128      -45.9160  -22.6848   12.8521 H         1 UNK         0.0792 
    129 H129      -46.2325  -22.7918   14.5769 H         1 UNK         0.0792 
    130 H130      -46.0943  -24.2617   13.6208 H         1 UNK         0.0792 
    131 H131      -47.4580  -24.1672   11.5312 H         1 UNK         0.3086 
    132 H132      -50.4009  -25.5053   10.4554 H         1 UNK         0.0583 
    133 H133      -49.2426  -23.2739    8.7146 H         1 UNK         0.1020 
    134 H134      -49.8797  -24.7532    8.0712 H         1 UNK         0.1020 
    135 H135      -52.4455  -24.3567   10.8046 H         1 UNK         0.0694 
    136 H136      -53.7446  -23.8430    9.7841 H         1 UNK         0.0694 
    137 H137      -47.9731  -25.5658    9.0874 H         1 UNK         0.2989 
    138 H138      -46.1545  -27.6640   11.3276 H         1 UNK         0.1055 
    139 H139      -47.5537  -29.1842    9.9589 H         1 UNK         0.0806 
    140 H140      -47.3487  -28.1444    8.5493 H         1 UNK         0.0806 
    141 H141      -45.9645  -28.9868    9.2401 H         1 UNK         0.0806 
    142 H142      -45.8753  -26.1633    8.7774 H         1 UNK         0.3061 
    143 H143      -43.7159  -23.7610   10.1997 H         1 UNK         0.0734 
    144 H144      -42.0412  -24.5602    8.5486 H         1 UNK         0.0832 
    145 H145      -42.1022  -25.6473    9.9251 H         1 UNK         0.0832 
    146 H146      -42.8733  -26.1109    8.4153 H         1 UNK         0.0832 
    147 H147      -44.4063  -24.3851    7.4852 H         1 UNK         0.3156 
    148 H148      -47.4418  -22.5424    7.3793 H         1 UNK         0.0589 
    149 H149      -46.2443  -21.2454    5.6636 H         1 UNK         0.0808 
    150 H150      -45.6405  -20.8087    7.2515 H         1 UNK         0.0808 
    151 H151      -44.6901  -21.8681    6.2196 H         1 UNK         0.0808 
    152 H152      -46.2405  -23.6611    5.1991 H         1 UNK         0.3098 
    153 H153      -47.3548  -25.4109    4.2368 H         1 UNK         0.0720 
    154 H154      -45.0541  -26.2899    4.7646 H         1 UNK         0.0791 
    155 H155      -45.7524  -27.5417    5.7858 H         1 UNK         0.0791 
    156 H156      -46.0424  -27.5517    4.0474 H         1 UNK         0.0791 
    157 H157      -48.6431  -26.9993    6.3095 H         1 UNK         0.3028 
@<TRIPOS>BOND
     1    1    2 1    
     2    1   82 1    
     3    1   83 1    
     4    1   84 1    
     5    2    3 2    
     6    2    4 am   BACKBONE|DICT|INTERRES
     7    4    5 1    
     8    4   85 1    
     9    5    6 1    
    10    5   80 1    
    11    5   86 1    
    12    6    7 1    
    13    6   87 1    
    14    6   88 1    
    15    7    8 1    
    16    8    9 1    
    17    8   89 1    
    18    8   90 1    
    19    9   10 ar   
    20    9   14 ar   
    21   10   11 ar   
    22   10   91 1    
    23   11   12 ar   
    24   11   58 1    
    25   12   13 ar   
    26   12   92 1    
    27   13   14 ar   
    28   13   15 1    
    29   14   93 1    
    30   15   16 1    
    31   15   94 1    
    32   15   95 1    
    33   16   17 1    
    34   17   18 1    
    35   17   96 1    
    36   17   97 1    
    37   18   19 1    
    38   18   22 1    
    39   18   98 1    
    40   19   20 am   BACKBONE|DICT|INTERRES
    41   19   21 2    
    42   20   99 1    
    43   20  100 1    
    44   22   23 am   BACKBONE|DICT|INTERRES
    45   22  101 1    
    46   23   24 2    
    47   23   25 1    
    48   25   26 1    
    49   25   27 1    
    50   25  102 1    
    51   26  103 1    
    52   26  104 1    
    53   26  105 1    
    54   27   28 am   BACKBONE|DICT|INTERRES
    55   27  106 1    
    56   28   29 2    
    57   28   30 1    
    58   30   31 1    
    59   30   32 1    
    60   30  107 1    
    61   31  108 1    
    62   31  109 1    
    63   31  110 1    
    64   32   33 am   BACKBONE|DICT|INTERRES
    65   32  111 1    
    66   33   34 2    
    67   33   35 1    
    68   35   36 1    
    69   35   37 1    
    70   35  112 1    
    71   36  113 1    
    72   36  114 1    
    73   36  115 1    
    74   37   38 am   BACKBONE|DICT|INTERRES
    75   37  116 1    
    76   38   39 2    
    77   38   40 1    
    78   40   41 1    
    79   40   42 1    
    80   40  117 1    
    81   41  118 1    
    82   41  119 1    
    83   41  120 1    
    84   42   43 am   BACKBONE|DICT|INTERRES
    85   42  121 1    
    86   43   44 2    
    87   43   45 1    
    88   45   46 1    
    89   45   47 1    
    90   45  122 1    
    91   46  123 1    
    92   46  124 1    
    93   46  125 1    
    94   47   48 am   BACKBONE|DICT|INTERRES
    95   47  126 1    
    96   48   49 2    
    97   48   50 1    
    98   50   51 1    
    99   50   52 1    
   100   50  127 1    
   101   51  128 1    
   102   51  129 1    
   103   51  130 1    
   104   52   53 am   BACKBONE|DICT|INTERRES
   105   52  131 1    
   106   53   54 2    
   107   53   55 1    
   108   55   56 1    
   109   55   59 1    
   110   55  132 1    
   111   56   57 1    
   112   56  133 1    
   113   56  134 1    
   114   57   58 1    
   115   58  135 1    
   116   58  136 1    
   117   59   60 am   BACKBONE|DICT|INTERRES
   118   59  137 1    
   119   60   61 2    
   120   60   62 1    
   121   62   63 1    
   122   62   64 1    
   123   62  138 1    
   124   63  139 1    
   125   63  140 1    
   126   63  141 1    
   127   64   65 am   BACKBONE|DICT|INTERRES
   128   64  142 1    
   129   65   66 2    
   130   65   67 1    
   131   67   68 1    
   132   67   69 1    
   133   67  143 1    
   134   68  144 1    
   135   68  145 1    
   136   68  146 1    
   137   69   70 am   BACKBONE|DICT|INTERRES
   138   69  147 1    
   139   70   71 2    
   140   70   72 1    
   141   72   73 1    
   142   72   74 1    
   143   72  148 1    
   144   73  149 1    
   145   73  150 1    
   146   73  151 1    
   147   74   75 am   BACKBONE|DICT|INTERRES
   148   74  152 1    
   149   75   76 2    
   150   75   77 1    
   151   77   78 1    
   152   77   79 1    
   153   77  153 1    
   154   78  154 1    
   155   78  155 1    
   156   78  156 1    
   157   79   80 am   BACKBONE|DICT|INTERRES
   158   79  157 1    
   159   80   81 2    
@<TRIPOS>SUBSTRUCTURE
     1 UNK         1 GROUP             0       ****    0 ROOT    
