@<TRIPOS>MOLECULE
3R207
157   159    1
SMALL
USER_CHARGES


@<TRIPOS>ATOM
      1 CA        -53.5787  -25.6308    2.3319 C.3       0 UNK        -0.1975 
      2 C         -53.5113  -25.6370    3.8522 C.2       0 UNK         0.4852 
      3 O         -54.3456  -25.0059    4.5031 O.2       0 UNK        -0.5216 
      4 N         -52.5309  -26.3515    4.4205 N.am      1 UNK        -0.4461 
      5 CA        -52.2699  -26.4104    5.8620 C.3       1 UNK         0.0864 
      6 C6        -51.4802  -27.6920    6.2328 C.3       14 UNK        -0.0898 
      7 S7        -51.7860  -28.1860    7.9571 S.3       14 UNK        -0.2598 
      8 C8        -50.8808  -29.7623    8.0597 C.3       14 UNK         0.0286 
      9 C9        -50.6436  -30.1971    9.5031 C.ar      14 UNK        -0.0844 
     10 C10       -49.3618  -30.5656    9.9236 C.ar      14 UNK        -0.0881 
     11 C11       -49.1321  -30.9722   11.2421 C.ar      14 UNK        -0.0643 
     12 C12       -50.1961  -31.0101   12.1482 C.ar      14 UNK        -0.0930 
     13 C13       -51.4842  -30.6501   11.7410 C.ar      14 UNK        -0.0827 
     14 C14       -51.6987  -30.2432   10.4202 C.ar      14 UNK        -0.1249 
     15 C15       -52.6429  -30.6751   12.7272 C.3       14 UNK         0.0141 
     16 S16       -53.9887  -31.7677   12.1684 S.3       14 UNK        -0.2313 
     17 C17       -55.4444  -30.9461   12.8979 C.3       14 UNK        -0.0915 
     18 CA        -56.2906  -30.1885   11.8395 C.3       13 UNK         0.0968 
     19 C         -57.6390  -29.7216   12.4556 C.2       13 UNK         0.5732 
     20 N         -58.6491  -30.5810   12.4548 N.am      13 UNK        -0.7310 
     21 O         -57.7676  -28.6101   12.9662 O.2       13 UNK        -0.5035 
     22 N         -55.5364  -29.0817   11.2333 N.am      13 UNK        -0.4233 
     23 C         -55.9349  -28.3437   10.1908 C.2       13 UNK         0.4989 
     24 O         -56.9437  -28.5860    9.5253 O.2       13 UNK        -0.4996 
     25 CA        -55.0650  -27.1126    9.8586 C.3       12 UNK         0.0216 
     26 CB        -55.5342  -26.3635    8.5969 C.3       12 UNK        -0.1964 
     27 N         -55.0064  -26.1717   10.9839 N.am      12 UNK        -0.4276 
     28 C         -54.2462  -26.3469   12.0719 C.2       12 UNK         0.5020 
     29 O         -53.4887  -27.3114   12.1970 O.2       12 UNK        -0.5489 
     30 CA        -54.3435  -25.2825   13.1825 C.3       11 UNK         0.0294 
     31 CB        -55.7980  -24.9975   13.6187 C.3       11 UNK        -0.2019 
     32 N         -53.4714  -25.6317   14.3137 N.am      11 UNK        -0.4493 
     33 C         -53.6546  -26.5948   15.2299 C.2       11 UNK         0.4932 
     34 O         -54.7216  -27.1810   15.4169 O.2       11 UNK        -0.5029 
     35 CA        -52.4368  -27.0250   16.0680 C.3       10 UNK         0.0280 
     36 CB        -51.9360  -28.3995   15.5909 C.3       10 UNK        -0.1976 
     37 N         -51.3090  -26.0887   16.0542 N.am      10 UNK        -0.4242 
     38 C         -51.2349  -24.9668   16.7839 C.2       10 UNK         0.5072 
     39 O         -52.1647  -24.5294   17.4629 O.2       10 UNK        -0.5224 
     40 CA        -49.8887  -24.2230   16.7843 C.3       9 UNK         0.0343 
     41 CB        -48.8558  -24.9716   17.6438 C.3       9 UNK        -0.2003 
     42 N         -49.3626  -24.0629   15.4297 N.am      9 UNK        -0.4272 
     43 C         -49.5041  -22.9590   14.6815 C.2       9 UNK         0.4988 
     44 O         -50.0152  -21.9149   15.0891 O.2       9 UNK        -0.5108 
     45 CA        -49.0090  -23.0239   13.2221 C.3       8 UNK         0.0248 
     46 CB        -47.5929  -22.4395   13.1011 C.3       8 UNK        -0.2001 
     47 N         -49.0265  -24.3725   12.6500 N.am      8 UNK        -0.4140 
     48 C         -50.1221  -25.1300   12.5185 C.2       8 UNK         0.5028 
     49 O         -51.2492  -24.7402   12.8121 O.2       8 UNK        -0.5428 
     50 CA        -49.9293  -26.5745   12.0317 C.3       7 UNK         0.0264 
     51 CB        -49.9974  -26.6279   10.5038 C.3       7 UNK        -0.1988 
     52 N         -48.6782  -27.1878   12.4850 N.am      7 UNK        -0.4454 
     53 C         -48.3487  -27.4115   13.7639 C.2       7 UNK         0.5027 
     54 O         -49.0570  -27.0883   14.7180 O.2       7 UNK        -0.5083 
     55 CA        -46.9721  -28.0534   14.0236 C.3       6 UNK         0.0844 
     56 C56       -46.9560  -29.5733   13.7068 C.3       14 UNK        -0.0967 
     57 S57       -46.6454  -29.9728   11.9467 S.3       14 UNK        -0.2604 
     58 C58       -47.7367  -31.4002   11.6683 C.3       14 UNK         0.0134 
     59 N         -45.9079  -27.3268   13.3300 N.am      6 UNK        -0.4116 
     60 C         -45.5161  -26.0747   13.5942 C.2       5 UNK         0.5034 
     61 O         -45.9141  -25.4146   14.5539 O.2       5 UNK        -0.5045 
     62 CA        -44.5376  -25.4416   12.5876 C.3       5 UNK         0.0224 
     63 CB        -43.0836  -25.7368   12.9890 C.3       5 UNK        -0.1978 
     64 N         -44.7592  -25.8646   11.1956 N.am      5 UNK        -0.4737 
     65 C         -45.8870  -25.6353   10.5091 C.2       4 UNK         0.5027 
     66 O         -46.8760  -25.0914   10.9981 O.2       4 UNK        -0.5211 
     67 CA        -45.9417  -26.1437    9.0592 C.3       4 UNK         0.0297 
     68 CB        -46.4430  -27.5967    9.0130 C.3       4 UNK        -0.1993 
     69 N         -46.8181  -25.3079    8.2337 N.am      4 UNK        -0.4486 
     70 C         -46.5075  -24.0745    7.8130 C.2       3 UNK         0.4961 
     71 O         -45.4204  -23.5343    8.0244 O.2       3 UNK        -0.5105 
     72 CA        -47.5648  -23.3184    6.9884 C.3       3 UNK         0.0299 
     73 CB        -47.3005  -23.5054    5.4855 C.3       3 UNK        -0.1972 
     74 N         -48.9524  -23.6938    7.2755 N.am      3 UNK        -0.4305 
     75 C         -49.6231  -23.3972    8.3947 C.2       2 UNK         0.5006 
     76 O         -49.1090  -22.8361    9.3615 O.2       2 UNK        -0.5106 
     77 CA        -51.1265  -23.7469    8.4598 C.3       2 UNK         0.0296 
     78 CB        -51.9779  -22.5091    8.1178 C.3       2 UNK        -0.2002 
     79 N         -51.5851  -24.9132    7.6824 N.am      2 UNK        -0.4032 
     80 C         -51.5695  -25.1223    6.3569 C.2       1 UNK         0.5000 
     81 O         -51.0158  -24.3698    5.5501 O.2       1 UNK        -0.5238 
     82 H82       -53.4705  -24.6136    1.9566 H         1 UNK         0.0889 
     83 H83       -54.5409  -26.0176    1.9972 H         1 UNK         0.0889 
     84 H84       -52.7941  -26.2419    1.8860 H         1 UNK         0.0889 
     85 H85       -51.8548  -26.8175    3.8326 H         1 UNK         0.3028 
     86 H86       -53.2446  -26.4561    6.3541 H         1 UNK         0.0864 
     87 H87       -50.4082  -27.5710    6.0635 H         1 UNK         0.0720 
     88 H88       -51.7969  -28.5258    5.6035 H         1 UNK         0.0720 
     89 H89       -49.9305  -29.6576    7.5339 H         1 UNK         0.0814 
     90 H90       -51.4448  -30.5366    7.5383 H         1 UNK         0.0814 
     91 H91       -48.5359  -30.5393    9.2257 H         1 UNK         0.1469 
     92 H92       -50.0218  -31.3252   13.1677 H         1 UNK         0.1381 
     93 H93       -52.6938  -29.9582   10.1072 H         1 UNK         0.1206 
     94 H94       -52.3133  -31.0017   13.7144 H         1 UNK         0.0813 
     95 H95       -53.0116  -29.6596   12.8501 H         1 UNK         0.0813 
     96 H96       -55.1356  -30.2745   13.7016 H         1 UNK         0.0638 
     97 H97       -56.0411  -31.7272   13.3728 H         1 UNK         0.0638 
     98 H98       -56.5273  -30.8851   11.0327 H         1 UNK         0.0568 
     99 H99       -59.5278  -30.3026   12.8627 H         1 UNK         0.3450 
    100 H100      -58.5534  -31.4996   12.0506 H         1 UNK         0.3450 
    101 H101      -54.7180  -28.7581   11.7400 H         1 UNK         0.2987 
    102 H102      -54.0575  -27.4831    9.6620 H         1 UNK         0.0766 
    103 H103      -54.8690  -25.5341    8.3559 H         1 UNK         0.0798 
    104 H104      -56.5418  -25.9630    8.7147 H         1 UNK         0.0798 
    105 H105      -55.5459  -27.0278    7.7316 H         1 UNK         0.0798 
    106 H106      -55.6314  -25.3797   10.9454 H         1 UNK         0.3198 
    107 H107      -53.9320  -24.3609   12.7683 H         1 UNK         0.0843 
    108 H108      -56.3451  -25.9153   13.8392 H         1 UNK         0.0831 
    109 H109      -56.3497  -24.4763   12.8362 H         1 UNK         0.0831 
    110 H110      -55.8301  -24.3660   14.5064 H         1 UNK         0.0831 
    111 H111      -52.5226  -25.2884   14.1906 H         1 UNK         0.3133 
    112 H112      -52.7768  -27.1322   17.1002 H         1 UNK         0.0566 
    113 H113      -51.1139  -28.7616   16.2085 H         1 UNK         0.0814 
    114 H114      -52.7308  -29.1451   15.6386 H         1 UNK         0.0814 
    115 H115      -51.5875  -28.3604   14.5579 H         1 UNK         0.0814 
    116 H116      -50.4845  -26.3931   15.5381 H         1 UNK         0.3091 
    117 H117      -50.0497  -23.2437   17.2402 H         1 UNK         0.0702 
    118 H118      -47.9193  -24.4170   17.7056 H         1 UNK         0.0785 
    119 H119      -48.6300  -25.9606   17.2429 H         1 UNK         0.0785 
    120 H120      -49.2206  -25.1070   18.6629 H         1 UNK         0.0785 
    121 H121      -48.9427  -24.8811   15.0063 H         1 UNK         0.2998 
    122 H122      -49.6829  -22.4105   12.6205 H         1 UNK         0.0697 
    123 H123      -46.8682  -23.0187   13.6736 H         1 UNK         0.0825 
    124 H124      -47.5599  -21.4145   13.4723 H         1 UNK         0.0825 
    125 H125      -47.2619  -22.4201   12.0621 H         1 UNK         0.0825 
    126 H126      -48.1521  -24.7229   12.2615 H         1 UNK         0.3029 
    127 H127      -50.7501  -27.1746   12.4310 H         1 UNK         0.0897 
    128 H128      -49.2681  -25.9655   10.0379 H         1 UNK         0.0792 
    129 H129      -50.9885  -26.3286   10.1652 H         1 UNK         0.0792 
    130 H130      -49.8207  -27.6367   10.1371 H         1 UNK         0.0792 
    131 H131      -48.0239  -27.4652   11.7692 H         1 UNK         0.3086 
    132 H132      -46.7842  -27.9483   15.0946 H         1 UNK         0.0583 
    133 H133      -46.1600  -30.0457   14.2844 H         1 UNK         0.1020 
    134 H134      -47.8773  -30.0508   14.0467 H         1 UNK         0.1020 
    135 H135      -47.3004  -32.0217   10.8849 H         1 UNK         0.0694 
    136 H136      -47.7713  -32.0249   12.5622 H         1 UNK         0.0694 
    137 H137      -45.5182  -27.7908   12.5224 H         1 UNK         0.2989 
    138 H138      -44.6920  -24.3608   12.6302 H         1 UNK         0.1055 
    139 H139      -42.8884  -25.4135   14.0127 H         1 UNK         0.0806 
    140 H140      -42.3789  -25.2088   12.3461 H         1 UNK         0.0806 
    141 H141      -42.8560  -26.8022   12.9350 H         1 UNK         0.0806 
    142 H142      -43.9895  -26.3266   10.7316 H         1 UNK         0.3061 
    143 H143      -44.9350  -26.1089    8.6371 H         1 UNK         0.0734 
    144 H144      -47.4352  -27.7027    9.4511 H         1 UNK         0.0832 
    145 H145      -46.4886  -27.9689    7.9894 H         1 UNK         0.0832 
    146 H146      -45.7720  -28.2577    9.5624 H         1 UNK         0.0832 
    147 H147      -47.7452  -25.6560    8.0443 H         1 UNK         0.3156 
    148 H148      -47.4558  -22.2567    7.2201 H         1 UNK         0.0589 
    149 H149      -47.4207  -24.5460    5.1814 H         1 UNK         0.0808 
    150 H150      -47.9798  -22.9001    4.8846 H         1 UNK         0.0808 
    151 H151      -46.2846  -23.2042    5.2259 H         1 UNK         0.0808 
    152 H152      -49.5004  -24.0704    6.5045 H         1 UNK         0.3098 
    153 H153      -51.3283  -23.9953    9.5031 H         1 UNK         0.0720 
    154 H154      -51.8409  -22.1964    7.0820 H         1 UNK         0.0791 
    155 H155      -51.7089  -21.6622    8.7508 H         1 UNK         0.0791 
    156 H156      -53.0394  -22.7031    8.2720 H         1 UNK         0.0791 
    157 H157      -51.9936  -25.6517    8.2398 H         1 UNK         0.3028 
@<TRIPOS>BOND
     1    1    2 1    
     2    1   82 1    
     3    1   83 1    
     4    1   84 1    
     5    2    3 2    
     6    2    4 am   BACKBONE|DICT|INTERRES
     7    4    5 1    
     8    4   85 1    
     9    5    6 1    
    10    5   80 1    
    11    5   86 1    
    12    6    7 1    
    13    6   87 1    
    14    6   88 1    
    15    7    8 1    
    16    8    9 1    
    17    8   89 1    
    18    8   90 1    
    19    9   10 ar   
    20    9   14 ar   
    21   10   11 ar   
    22   10   91 1    
    23   11   12 ar   
    24   11   58 1    
    25   12   13 ar   
    26   12   92 1    
    27   13   14 ar   
    28   13   15 1    
    29   14   93 1    
    30   15   16 1    
    31   15   94 1    
    32   15   95 1    
    33   16   17 1    
    34   17   18 1    
    35   17   96 1    
    36   17   97 1    
    37   18   19 1    
    38   18   22 1    
    39   18   98 1    
    40   19   20 am   BACKBONE|DICT|INTERRES
    41   19   21 2    
    42   20   99 1    
    43   20  100 1    
    44   22   23 am   BACKBONE|DICT|INTERRES
    45   22  101 1    
    46   23   24 2    
    47   23   25 1    
    48   25   26 1    
    49   25   27 1    
    50   25  102 1    
    51   26  103 1    
    52   26  104 1    
    53   26  105 1    
    54   27   28 am   BACKBONE|DICT|INTERRES
    55   27  106 1    
    56   28   29 2    
    57   28   30 1    
    58   30   31 1    
    59   30   32 1    
    60   30  107 1    
    61   31  108 1    
    62   31  109 1    
    63   31  110 1    
    64   32   33 am   BACKBONE|DICT|INTERRES
    65   32  111 1    
    66   33   34 2    
    67   33   35 1    
    68   35   36 1    
    69   35   37 1    
    70   35  112 1    
    71   36  113 1    
    72   36  114 1    
    73   36  115 1    
    74   37   38 am   BACKBONE|DICT|INTERRES
    75   37  116 1    
    76   38   39 2    
    77   38   40 1    
    78   40   41 1    
    79   40   42 1    
    80   40  117 1    
    81   41  118 1    
    82   41  119 1    
    83   41  120 1    
    84   42   43 am   BACKBONE|DICT|INTERRES
    85   42  121 1    
    86   43   44 2    
    87   43   45 1    
    88   45   46 1    
    89   45   47 1    
    90   45  122 1    
    91   46  123 1    
    92   46  124 1    
    93   46  125 1    
    94   47   48 am   BACKBONE|DICT|INTERRES
    95   47  126 1    
    96   48   49 2    
    97   48   50 1    
    98   50   51 1    
    99   50   52 1    
   100   50  127 1    
   101   51  128 1    
   102   51  129 1    
   103   51  130 1    
   104   52   53 am   BACKBONE|DICT|INTERRES
   105   52  131 1    
   106   53   54 2    
   107   53   55 1    
   108   55   56 1    
   109   55   59 1    
   110   55  132 1    
   111   56   57 1    
   112   56  133 1    
   113   56  134 1    
   114   57   58 1    
   115   58  135 1    
   116   58  136 1    
   117   59   60 am   BACKBONE|DICT|INTERRES
   118   59  137 1    
   119   60   61 2    
   120   60   62 1    
   121   62   63 1    
   122   62   64 1    
   123   62  138 1    
   124   63  139 1    
   125   63  140 1    
   126   63  141 1    
   127   64   65 am   BACKBONE|DICT|INTERRES
   128   64  142 1    
   129   65   66 2    
   130   65   67 1    
   131   67   68 1    
   132   67   69 1    
   133   67  143 1    
   134   68  144 1    
   135   68  145 1    
   136   68  146 1    
   137   69   70 am   BACKBONE|DICT|INTERRES
   138   69  147 1    
   139   70   71 2    
   140   70   72 1    
   141   72   73 1    
   142   72   74 1    
   143   72  148 1    
   144   73  149 1    
   145   73  150 1    
   146   73  151 1    
   147   74   75 am   BACKBONE|DICT|INTERRES
   148   74  152 1    
   149   75   76 2    
   150   75   77 1    
   151   77   78 1    
   152   77   79 1    
   153   77  153 1    
   154   78  154 1    
   155   78  155 1    
   156   78  156 1    
   157   79   80 am   BACKBONE|DICT|INTERRES
   158   79  157 1    
   159   80   81 2    
@<TRIPOS>SUBSTRUCTURE
     1 UNK         1 GROUP             0       ****    0 ROOT    
