@<TRIPOS>MOLECULE
3R207
157   159    1
SMALL
USER_CHARGES


@<TRIPOS>ATOM
      1 CA        -46.3588  -27.3680   11.2609 C.3       0 UNK        -0.1975 
      2 C         -46.9907  -27.4332    9.8794 C.2       0 UNK         0.4852 
      3 O         -46.6320  -26.6447    9.0041 O.2       0 UNK        -0.5216 
      4 N         -47.9106  -28.3866    9.6698 N.am      1 UNK        -0.4461 
      5 CA        -48.7027  -28.5791    8.4459 C.3       1 UNK         0.0864 
      6 C6        -49.8046  -27.4918    8.2898 C.3       14 UNK        -0.0898 
      7 S7        -51.2385  -28.1190    7.3547 S.3       14 UNK        -0.2598 
      8 C8        -51.8504  -26.6160    6.5177 C.3       14 UNK         0.0286 
      9 C9        -52.8183  -25.7810    7.3548 C.ar      14 UNK        -0.0844 
     10 C10       -52.7934  -24.3840    7.2579 C.ar      14 UNK        -0.0881 
     11 C11       -53.7297  -23.6028    7.9457 C.ar      14 UNK        -0.0643 
     12 C12       -54.6855  -24.2288    8.7499 C.ar      14 UNK        -0.0930 
     13 C13       -54.7287  -25.6215    8.8505 C.ar      14 UNK        -0.0827 
     14 C14       -53.7957  -26.3909    8.1518 C.ar      14 UNK        -0.1249 
     15 C15       -55.8174  -26.2873    9.6773 C.3       14 UNK         0.0141 
     16 S16       -55.3811  -26.3258   11.4397 S.3       14 UNK        -0.2313 
     17 C17       -54.5307  -27.9309   11.5985 C.3       14 UNK        -0.0915 
     18 CA        -55.3553  -28.9214   12.4692 C.3       13 UNK         0.0968 
     19 C         -56.3048  -29.7901   11.5972 C.2       13 UNK         0.5732 
     20 N         -57.4852  -29.2827   11.2697 N.am      13 UNK        -0.7310 
     21 O         -55.9659  -30.8988   11.1865 O.2       13 UNK        -0.5035 
     22 N         -54.4919  -29.7220   13.3524 N.am      13 UNK        -0.4233 
     23 C         -54.9464  -30.4706   14.3674 C.2       13 UNK         0.4989 
     24 O         -56.1182  -30.4768   14.7465 O.2       13 UNK        -0.4996 
     25 CA        -53.9289  -31.3667   15.0815 C.3       12 UNK         0.0216 
     26 CB        -53.2777  -32.3785   14.1175 C.3       12 UNK        -0.1964 
     27 N         -52.9080  -30.5704   15.7613 N.am      12 UNK        -0.4276 
     28 C         -52.2301  -30.9728   16.8444 C.2       12 UNK         0.5020 
     29 O         -52.4211  -32.0502   17.4109 O.2       12 UNK        -0.5489 
     30 CA        -51.1494  -30.0283   17.3907 C.3       11 UNK         0.0294 
     31 CB        -49.8791  -30.1045   16.5260 C.3       11 UNK        -0.2019 
     32 N         -51.6149  -28.6426   17.4485 N.am      11 UNK        -0.4493 
     33 C         -52.0804  -28.0354   18.5492 C.2       11 UNK         0.4932 
     34 O         -52.1801  -28.5894   19.6445 O.2       11 UNK        -0.5029 
     35 CA        -52.4851  -26.5529   18.4293 C.3       10 UNK         0.0280 
     36 CB        -51.3650  -25.6495   18.9699 C.3       10 UNK        -0.1976 
     37 N         -52.8040  -26.1481   17.0590 N.am      10 UNK        -0.4242 
     38 C         -53.9348  -26.4820   16.4179 C.2       10 UNK         0.5072 
     39 O         -54.8647  -27.0925   16.9455 O.2       10 UNK        -0.5224 
     40 CA        -54.0402  -26.1006   14.9290 C.3       9 UNK         0.0343 
     41 CB        -54.7416  -24.7407   14.7847 C.3       9 UNK        -0.2003 
     42 N         -52.7519  -26.0533   14.2293 N.am      9 UNK        -0.4272 
     43 C         -51.8538  -27.0504   14.1794 C.2       9 UNK         0.4988 
     44 O         -52.0777  -28.1807   14.6104 O.2       9 UNK        -0.5108 
     45 CA        -50.4575  -26.7540   13.6025 C.3       8 UNK         0.0248 
     46 CB        -50.3467  -27.3586   12.1966 C.3       8 UNK        -0.2001 
     47 N         -50.1060  -25.3323   13.5416 N.am      8 UNK        -0.4140 
     48 C         -50.1478  -24.4578   14.5616 C.2       8 UNK         0.5028 
     49 O         -50.3639  -24.7834   15.7306 O.2       8 UNK        -0.5428 
     50 CA        -50.0157  -22.9610   14.2131 C.3       7 UNK         0.0264 
     51 CB        -48.6085  -22.4536   14.5659 C.3       7 UNK        -0.1988 
     52 N         -50.3002  -22.6455   12.8073 N.am      7 UNK        -0.4454 
     53 C         -51.4325  -22.9268   12.1393 C.2       7 UNK         0.5027 
     54 O         -52.4427  -23.3746   12.6832 O.2       7 UNK        -0.5083 
     55 CA        -51.4120  -22.7491   10.6032 C.3       6 UNK         0.0844 
     56 C56       -52.3250  -21.5758   10.1689 C.3       14 UNK        -0.0967 
     57 S57       -52.2574  -21.2618    8.3696 S.3       14 UNK        -0.2604 
     58 C58       -53.7620  -22.0890    7.7690 C.3       14 UNK         0.0134 
     59 N         -50.0581  -22.6319   10.0417 N.am      6 UNK        -0.4116 
     60 C         -49.1138  -23.5797   10.0639 C.2       5 UNK         0.5034 
     61 O         -49.2415  -24.6672   10.6306 O.2       5 UNK        -0.5045 
     62 CA        -47.7944  -23.2325    9.3651 C.3       5 UNK         0.0224 
     63 CB        -46.5898  -23.4409   10.2982 C.3       5 UNK        -0.1978 
     64 N         -47.6403  -24.0594    8.1729 N.am      5 UNK        -0.4737 
     65 C         -48.1465  -23.7508    6.9707 C.2       4 UNK         0.5027 
     66 O         -48.7942  -22.7249    6.7571 O.2       4 UNK        -0.5211 
     67 CA        -47.8922  -24.7433    5.8166 C.3       4 UNK         0.0297 
     68 CB        -47.9102  -24.0685    4.4287 C.3       4 UNK        -0.1993 
     69 N         -46.6816  -25.5518    5.9990 N.am      4 UNK        -0.4486 
     70 C         -45.4092  -25.1249    6.0672 C.2       3 UNK         0.4961 
     71 O         -45.0686  -23.9567    5.8772 O.2       3 UNK        -0.5105 
     72 CA        -44.3277  -26.1601    6.4360 C.3       3 UNK         0.0299 
     73 CB        -43.5304  -25.6968    7.6688 C.3       3 UNK        -0.1972 
     74 N         -44.9014  -27.4767    6.7229 N.am      3 UNK        -0.4305 
     75 C         -44.9466  -28.5049    5.8641 C.2       2 UNK         0.5006 
     76 O         -44.4297  -28.4857    4.7465 O.2       2 UNK        -0.5106 
     77 CA        -45.7079  -29.7705    6.3102 C.3       2 UNK         0.0296 
     78 CB        -44.7220  -30.8369    6.8148 C.3       2 UNK        -0.2002 
     79 N         -46.7285  -29.5359    7.3387 N.am      2 UNK        -0.4032 
     80 C         -47.8164  -28.7644    7.1886 C.2       1 UNK         0.5000 
     81 O         -48.0772  -28.1698    6.1411 O.2       1 UNK        -0.5238 
     82 H82       -46.8011  -26.5544   11.8351 H         1 UNK         0.0889 
     83 H83       -45.2878  -27.1857   11.1772 H         1 UNK         0.0889 
     84 H84       -46.5020  -28.2946   11.8161 H         1 UNK         0.0889 
     85 H85       -48.1312  -29.0223   10.4239 H         1 UNK         0.3028 
     86 H86       -49.2019  -29.5388    8.5901 H         1 UNK         0.0864 
     87 H87       -49.4054  -26.5836    7.8380 H         1 UNK         0.0720 
     88 H88       -50.1788  -27.1870    9.2673 H         1 UNK         0.0720 
     89 H89       -52.3746  -26.9242    5.6123 H         1 UNK         0.0814 
     90 H90       -51.0043  -26.0145    6.1854 H         1 UNK         0.0814 
     91 H91       -52.0628  -23.8983    6.6249 H         1 UNK         0.1469 
     92 H92       -55.4179  -23.6345    9.2793 H         1 UNK         0.1381 
     93 H93       -53.8470  -27.4690    8.2129 H         1 UNK         0.1206 
     94 H94       -56.0246  -27.2955    9.3150 H         1 UNK         0.0813 
     95 H95       -56.7493  -25.7317    9.5627 H         1 UNK         0.0813 
     96 H96       -54.2914  -28.3440   10.6168 H         1 UNK         0.0638 
     97 H97       -53.5667  -27.7219   12.0573 H         1 UNK         0.0638 
     98 H98       -55.9906  -28.3440   13.1440 H         1 UNK         0.0568 
     99 H99       -58.1103  -29.8257   10.6953 H         1 UNK         0.3450 
    100 H100      -57.7620  -28.3671   11.5875 H         1 UNK         0.3450 
    101 H101      -53.5171  -29.7767   13.0992 H         1 UNK         0.2987 
    102 H102      -54.4879  -31.9307   15.8318 H         1 UNK         0.0766 
    103 H103      -54.0344  -32.9218   13.5496 H         1 UNK         0.0798 
    104 H104      -52.6907  -33.1188   14.6614 H         1 UNK         0.0798 
    105 H105      -52.6148  -31.8925   13.4010 H         1 UNK         0.0798 
    106 H106      -52.6913  -29.6599   15.3540 H         1 UNK         0.3198 
    107 H107      -50.8857  -30.3716   18.3937 H         1 UNK         0.0843 
    108 H108      -50.0608  -29.7843   15.4995 H         1 UNK         0.0831 
    109 H109      -49.4985  -31.1260   16.4846 H         1 UNK         0.0831 
    110 H110      -49.0846  -29.4803   16.9351 H         1 UNK         0.0831 
    111 H111      -51.6308  -28.1387   16.5698 H         1 UNK         0.3133 
    112 H112      -53.3712  -26.4012   19.0494 H         1 UNK         0.0566 
    113 H113      -51.6561  -24.5992   18.9478 H         1 UNK         0.0814 
    114 H114      -50.4470  -25.7545   18.3898 H         1 UNK         0.0814 
    115 H115      -51.1271  -25.8979   20.0052 H         1 UNK         0.0814 
    116 H116      -52.0821  -25.6416   16.5542 H         1 UNK         0.3091 
    117 H117      -54.6509  -26.8606   14.4420 H         1 UNK         0.0702 
    118 H118      -54.8887  -24.4761   13.7378 H         1 UNK         0.0785 
    119 H119      -54.1653  -23.9399   15.2498 H         1 UNK         0.0785 
    120 H120      -55.7253  -24.7553   15.2559 H         1 UNK         0.0785 
    121 H121      -52.5125  -25.1654   13.8007 H         1 UNK         0.2998 
    122 H122      -49.7278  -27.2417   14.2514 H         1 UNK         0.0697 
    123 H123      -51.0582  -26.9008   11.5075 H         1 UNK         0.0825 
    124 H124      -50.5440  -28.4314   12.2091 H         1 UNK         0.0825 
    125 H125      -49.3487  -27.2150   11.7878 H         1 UNK         0.0825 
    126 H126      -49.8942  -24.9738   12.6163 H         1 UNK         0.3029 
    127 H127      -50.7436  -22.4236   14.8244 H         1 UNK         0.0897 
    128 H128      -48.3747  -22.6496   15.6135 H         1 UNK         0.0792 
    129 H129      -48.5235  -21.3773   14.4142 H         1 UNK         0.0792 
    130 H130      -47.8404  -22.9414   13.9641 H         1 UNK         0.0792 
    131 H131      -49.5311  -22.2695   12.2730 H         1 UNK         0.3086 
    132 H132      -51.8367  -23.6668   10.1902 H         1 UNK         0.0583 
    133 H133      -53.3585  -21.7668   10.4657 H         1 UNK         0.1020 
    134 H134      -52.0315  -20.6550   10.6768 H         1 UNK         0.1020 
    135 H135      -54.6290  -21.6535    8.2684 H         1 UNK         0.0694 
    136 H136      -53.8803  -21.8646    6.7081 H         1 UNK         0.0694 
    137 H137      -49.8847  -21.7883    9.5138 H         1 UNK         0.2989 
    138 H138      -47.8042  -22.1793    9.0744 H         1 UNK         0.1055 
    139 H139      -46.5116  -24.4719   10.6397 H         1 UNK         0.0806 
    140 H140      -45.6550  -23.1858    9.7987 H         1 UNK         0.0806 
    141 H141      -46.6683  -22.8103   11.1845 H         1 UNK         0.0806 
    142 H142      -47.1848  -24.9599    8.3070 H         1 UNK         0.3061 
    143 H143      -48.7221  -25.4488    5.8400 H         1 UNK         0.0734 
    144 H144      -47.1549  -23.2865    4.3477 H         1 UNK         0.0832 
    145 H145      -47.7330  -24.7920    3.6331 H         1 UNK         0.0832 
    146 H146      -48.8776  -23.6045    4.2328 H         1 UNK         0.0832 
    147 H147      -46.8612  -26.5387    6.1531 H         1 UNK         0.3156 
    148 H148      -43.6386  -26.2246    5.5917 H         1 UNK         0.0589 
    149 H149      -42.7592  -26.4189    7.9371 H         1 UNK         0.0808 
    150 H150      -43.0295  -24.7468    7.4782 H         1 UNK         0.0808 
    151 H151      -44.1749  -25.5552    8.5374 H         1 UNK         0.0808 
    152 H152      -45.3921  -27.5499    7.6078 H         1 UNK         0.3098 
    153 H153      -46.2169  -30.1659    5.4287 H         1 UNK         0.0720 
    154 H154      -43.9662  -31.0587    6.0598 H         1 UNK         0.0791 
    155 H155      -45.2311  -31.7734    7.0436 H         1 UNK         0.0791 
    156 H156      -44.1977  -30.5094    7.7136 H         1 UNK         0.0791 
    157 H157      -46.5738  -29.9704    8.2373 H         1 UNK         0.3028 
@<TRIPOS>BOND
     1    1    2 1    
     2    1   82 1    
     3    1   83 1    
     4    1   84 1    
     5    2    3 2    
     6    2    4 am   BACKBONE|DICT|INTERRES
     7    4    5 1    
     8    4   85 1    
     9    5    6 1    
    10    5   80 1    
    11    5   86 1    
    12    6    7 1    
    13    6   87 1    
    14    6   88 1    
    15    7    8 1    
    16    8    9 1    
    17    8   89 1    
    18    8   90 1    
    19    9   10 ar   
    20    9   14 ar   
    21   10   11 ar   
    22   10   91 1    
    23   11   12 ar   
    24   11   58 1    
    25   12   13 ar   
    26   12   92 1    
    27   13   14 ar   
    28   13   15 1    
    29   14   93 1    
    30   15   16 1    
    31   15   94 1    
    32   15   95 1    
    33   16   17 1    
    34   17   18 1    
    35   17   96 1    
    36   17   97 1    
    37   18   19 1    
    38   18   22 1    
    39   18   98 1    
    40   19   20 am   BACKBONE|DICT|INTERRES
    41   19   21 2    
    42   20   99 1    
    43   20  100 1    
    44   22   23 am   BACKBONE|DICT|INTERRES
    45   22  101 1    
    46   23   24 2    
    47   23   25 1    
    48   25   26 1    
    49   25   27 1    
    50   25  102 1    
    51   26  103 1    
    52   26  104 1    
    53   26  105 1    
    54   27   28 am   BACKBONE|DICT|INTERRES
    55   27  106 1    
    56   28   29 2    
    57   28   30 1    
    58   30   31 1    
    59   30   32 1    
    60   30  107 1    
    61   31  108 1    
    62   31  109 1    
    63   31  110 1    
    64   32   33 am   BACKBONE|DICT|INTERRES
    65   32  111 1    
    66   33   34 2    
    67   33   35 1    
    68   35   36 1    
    69   35   37 1    
    70   35  112 1    
    71   36  113 1    
    72   36  114 1    
    73   36  115 1    
    74   37   38 am   BACKBONE|DICT|INTERRES
    75   37  116 1    
    76   38   39 2    
    77   38   40 1    
    78   40   41 1    
    79   40   42 1    
    80   40  117 1    
    81   41  118 1    
    82   41  119 1    
    83   41  120 1    
    84   42   43 am   BACKBONE|DICT|INTERRES
    85   42  121 1    
    86   43   44 2    
    87   43   45 1    
    88   45   46 1    
    89   45   47 1    
    90   45  122 1    
    91   46  123 1    
    92   46  124 1    
    93   46  125 1    
    94   47   48 am   BACKBONE|DICT|INTERRES
    95   47  126 1    
    96   48   49 2    
    97   48   50 1    
    98   50   51 1    
    99   50   52 1    
   100   50  127 1    
   101   51  128 1    
   102   51  129 1    
   103   51  130 1    
   104   52   53 am   BACKBONE|DICT|INTERRES
   105   52  131 1    
   106   53   54 2    
   107   53   55 1    
   108   55   56 1    
   109   55   59 1    
   110   55  132 1    
   111   56   57 1    
   112   56  133 1    
   113   56  134 1    
   114   57   58 1    
   115   58  135 1    
   116   58  136 1    
   117   59   60 am   BACKBONE|DICT|INTERRES
   118   59  137 1    
   119   60   61 2    
   120   60   62 1    
   121   62   63 1    
   122   62   64 1    
   123   62  138 1    
   124   63  139 1    
   125   63  140 1    
   126   63  141 1    
   127   64   65 am   BACKBONE|DICT|INTERRES
   128   64  142 1    
   129   65   66 2    
   130   65   67 1    
   131   67   68 1    
   132   67   69 1    
   133   67  143 1    
   134   68  144 1    
   135   68  145 1    
   136   68  146 1    
   137   69   70 am   BACKBONE|DICT|INTERRES
   138   69  147 1    
   139   70   71 2    
   140   70   72 1    
   141   72   73 1    
   142   72   74 1    
   143   72  148 1    
   144   73  149 1    
   145   73  150 1    
   146   73  151 1    
   147   74   75 am   BACKBONE|DICT|INTERRES
   148   74  152 1    
   149   75   76 2    
   150   75   77 1    
   151   77   78 1    
   152   77   79 1    
   153   77  153 1    
   154   78  154 1    
   155   78  155 1    
   156   78  156 1    
   157   79   80 am   BACKBONE|DICT|INTERRES
   158   79  157 1    
   159   80   81 2    
@<TRIPOS>SUBSTRUCTURE
     1 UNK         1 GROUP             0       ****    0 ROOT    
