@<TRIPOS>MOLECULE
3R207
157   159    1
SMALL
USER_CHARGES


@<TRIPOS>ATOM
      1 CA        -50.3818  -25.4580    5.5209 C.3       0 UNK        -0.1975 
      2 C         -49.9091  -26.2571    6.7239 C.2       0 UNK         0.4852 
      3 O         -49.1850  -25.7284    7.5682 O.2       0 UNK        -0.5216 
      4 N         -50.2971  -27.5351    6.8187 N.am      1 UNK        -0.4461 
      5 CA        -49.9435  -28.4652    7.9003 C.3       1 UNK         0.0864 
      6 C6        -51.0730  -29.4946    8.1699 C.3       14 UNK        -0.0898 
      7 S7        -51.5645  -30.5385    6.7462 S.3       14 UNK        -0.2598 
      8 C8        -52.7816  -29.5368    5.8209 C.3       14 UNK         0.0286 
      9 C9        -53.8326  -28.8783    6.7037 C.ar      14 UNK        -0.0844 
     10 C10       -53.8264  -27.4923    6.8897 C.ar      14 UNK        -0.0881 
     11 C11       -54.7956  -26.8791    7.6867 C.ar      14 UNK        -0.0643 
     12 C12       -55.7843  -27.6604    8.2931 C.ar      14 UNK        -0.0930 
     13 C13       -55.7979  -29.0472    8.1190 C.ar      14 UNK        -0.0827 
     14 C14       -54.8206  -29.6502    7.3211 C.ar      14 UNK        -0.1249 
     15 C15       -56.8731  -29.8989    8.7753 C.3       14 UNK         0.0141 
     16 S16       -56.3304  -30.5288   10.3944 S.3       14 UNK        -0.2313 
     17 C17       -56.8790  -29.2151   11.5411 C.3       14 UNK        -0.0915 
     18 CA        -55.7643  -28.2242   11.9766 C.3       13 UNK         0.0968 
     19 C         -56.3333  -27.1826   12.9871 C.2       13 UNK         0.5732 
     20 N         -55.8793  -27.1289   14.2331 N.am      13 UNK        -0.7310 
     21 O         -57.2146  -26.4055   12.6280 O.2       13 UNK        -0.5035 
     22 N         -54.5359  -28.9287   12.3788 N.am      13 UNK        -0.4233 
     23 C         -53.3524  -28.3513   12.6025 C.2       13 UNK         0.4989 
     24 O         -53.1781  -27.1345   12.6636 O.2       13 UNK        -0.4996 
     25 CA        -52.1603  -29.2945   12.8132 C.3       12 UNK         0.0216 
     26 CB        -50.8728  -28.7301   12.1854 C.3       12 UNK        -0.1964 
     27 N         -51.9523  -29.4992   14.2426 N.am      12 UNK        -0.4276 
     28 C         -52.6704  -30.3326   15.0059 C.2       12 UNK         0.5020 
     29 O         -53.5248  -31.1022   14.5639 O.2       12 UNK        -0.5489 
     30 CA        -52.4008  -30.2895   16.5196 C.3       11 UNK         0.0294 
     31 CB        -51.3484  -31.3393   16.9102 C.3       11 UNK        -0.2019 
     32 N         -51.9662  -28.9712   16.9909 N.am      11 UNK        -0.4493 
     33 C         -52.7273  -27.8704   17.0221 C.2       11 UNK         0.4932 
     34 O         -53.9010  -27.8430   16.6525 O.2       11 UNK        -0.5029 
     35 CA        -52.0705  -26.5796   17.5425 C.3       10 UNK         0.0280 
     36 CB        -51.8690  -26.6263   19.0699 C.3       10 UNK        -0.1976 
     37 N         -50.8348  -26.2001   16.8414 N.am      10 UNK        -0.4242 
     38 C         -49.6507  -26.8335   16.8057 C.2       10 UNK         0.5072 
     39 O         -49.4274  -27.8876   17.4038 O.2       10 UNK        -0.5224 
     40 CA        -48.5284  -26.2259   15.9402 C.3       9 UNK         0.0343 
     41 CB        -48.0358  -27.2394   14.8932 C.3       9 UNK        -0.2003 
     42 N         -48.9242  -24.9924   15.2548 N.am      9 UNK        -0.4272 
     43 C         -48.8578  -23.7670   15.7931 C.2       9 UNK         0.4988 
     44 O         -48.4068  -23.5345   16.9151 O.2       9 UNK        -0.5108 
     45 CA        -49.4213  -22.6067   14.9536 C.3       8 UNK         0.0248 
     46 CB        -48.3742  -22.1105   13.9433 C.3       8 UNK        -0.2001 
     47 N         -50.6612  -22.9379   14.2448 N.am      8 UNK        -0.4140 
     48 C         -51.8067  -23.3489   14.8049 C.2       8 UNK         0.5028 
     49 O         -51.9490  -23.5054   16.0171 O.2       8 UNK        -0.5428 
     50 CA        -52.9860  -23.6814   13.8724 C.3       7 UNK         0.0264 
     51 CB        -53.8263  -22.4290   13.5579 C.3       7 UNK        -0.1988 
     52 N         -52.6018  -24.4024   12.6529 N.am      7 UNK        -0.4454 
     53 C         -51.8780  -23.9770   11.6091 C.2       7 UNK         0.5027 
     54 O         -51.4419  -22.8296   11.4842 O.2       7 UNK        -0.5083 
     55 CA        -51.5284  -25.0467   10.5507 C.3       6 UNK         0.0844 
     56 C56       -52.3398  -24.8663    9.2416 C.3       14 UNK        -0.0967 
     57 S57       -54.1515  -24.8992    9.5093 S.3       14 UNK        -0.2604 
     58 C58       -54.7926  -25.3705    7.8754 C.3       14 UNK         0.0134 
     59 N         -50.0779  -25.1065   10.3195 N.am      6 UNK        -0.4116 
     60 C         -49.1503  -25.2718   11.2802 C.2       5 UNK         0.5034 
     61 O         -49.4153  -25.4214   12.4738 O.2       5 UNK        -0.5045 
     62 CA        -47.6722  -25.2889   10.8671 C.3       5 UNK         0.0224 
     63 CB        -47.1356  -26.7283   10.8755 C.3       5 UNK        -0.1978 
     64 N         -47.4385  -24.6958    9.5509 N.am      5 UNK        -0.4737 
     65 C         -47.1363  -23.4120    9.3295 C.2       4 UNK         0.5027 
     66 O         -47.0162  -22.5713   10.2221 O.2       4 UNK        -0.5211 
     67 CA        -46.9143  -23.0293    7.8522 C.3       4 UNK         0.0297 
     68 CB        -46.4831  -21.5591    7.6649 C.3       4 UNK        -0.1993 
     69 N         -45.9795  -23.9420    7.1766 N.am      4 UNK        -0.4486 
     70 C         -44.6972  -24.1843    7.4910 C.2       3 UNK         0.4961 
     71 O         -44.0910  -23.6259    8.4068 O.2       3 UNK        -0.5105 
     72 CA        -43.9857  -25.2638    6.6475 C.3       3 UNK         0.0299 
     73 CB        -42.4615  -25.2802    6.8696 C.3       3 UNK        -0.1972 
     74 N         -44.5206  -26.5980    6.9344 N.am      3 UNK        -0.4305 
     75 C         -45.6946  -27.0636    6.4909 C.2       2 UNK         0.5006 
     76 O         -46.4211  -26.4284    5.7213 O.2       2 UNK        -0.5106 
     77 CA        -46.1885  -28.4158    7.0302 C.3       2 UNK         0.0296 
     78 CB        -45.3714  -28.9707    8.2195 C.3       2 UNK        -0.2002 
     79 N         -47.5804  -28.1901    7.3947 N.am      2 UNK        -0.4032 
     80 C         -48.5351  -29.0754    7.6906 C.2       1 UNK         0.5000 
     81 O         -48.3431  -30.2889    7.7841 O.2       1 UNK        -0.5238 
     82 H82       -50.9798  -24.6090    5.8478 H         1 UNK         0.0889 
     83 H83       -50.9842  -26.0588    4.8412 H         1 UNK         0.0889 
     84 H84       -49.5240  -25.0781    4.9683 H         1 UNK         0.0889 
     85 H85       -50.8332  -27.9480    6.0706 H         1 UNK         0.3028 
     86 H86       -49.8578  -27.8813    8.8197 H         1 UNK         0.0864 
     87 H87       -51.9500  -28.9763    8.5578 H         1 UNK         0.0720 
     88 H88       -50.7747  -30.1648    8.9781 H         1 UNK         0.0720 
     89 H89       -53.2834  -30.1862    5.1020 H         1 UNK         0.0814 
     90 H90       -52.2579  -28.7918    5.2218 H         1 UNK         0.0814 
     91 H91       -53.0728  -26.8852    6.4100 H         1 UNK         0.1469 
     92 H92       -56.5398  -27.1867    8.9049 H         1 UNK         0.1381 
     93 H93       -54.8257  -30.7228    7.1816 H         1 UNK         0.1206 
     94 H94       -57.8054  -29.3409    8.8717 H         1 UNK         0.0813 
     95 H95       -57.1026  -30.7509    8.1334 H         1 UNK         0.0813 
     96 H96       -57.2897  -29.7156   12.4201 H         1 UNK         0.0638 
     97 H97       -57.7141  -28.6748   11.0919 H         1 UNK         0.0638 
     98 H98       -55.4878  -27.6402   11.0980 H         1 UNK         0.0568 
     99 H99       -55.1382  -27.7367   14.5472 H         1 UNK         0.3450 
    100 H100      -56.2667  -26.4492   14.8667 H         1 UNK         0.3450 
    101 H101      -54.6017  -29.9362   12.4121 H         1 UNK         0.2987 
    102 H102      -52.3751  -30.2528   12.3344 H         1 UNK         0.0766 
    103 H103      -50.0364  -29.4195   12.3010 H         1 UNK         0.0798 
    104 H104      -50.5888  -27.7795   12.6352 H         1 UNK         0.0798 
    105 H105      -51.0054  -28.5549   11.1176 H         1 UNK         0.0798 
    106 H106      -51.3015  -28.8806   14.7025 H         1 UNK         0.3198 
    107 H107      -53.3369  -30.5356   17.0257 H         1 UNK         0.0843 
    108 H108      -50.3795  -31.1297   16.4548 H         1 UNK         0.0831 
    109 H109      -51.6528  -32.3360   16.5871 H         1 UNK         0.0831 
    110 H110      -51.2096  -31.3790   17.9908 H         1 UNK         0.0831 
    111 H111      -50.9964  -28.8694   17.2860 H         1 UNK         0.3133 
    112 H112      -52.7760  -25.7725   17.3389 H         1 UNK         0.0566 
    113 H113      -51.4895  -25.6762   19.4462 H         1 UNK         0.0814 
    114 H114      -52.8132  -26.8221   19.5797 H         1 UNK         0.0814 
    115 H115      -51.1715  -27.4080   19.3716 H         1 UNK         0.0814 
    116 H116      -50.9076  -25.3263   16.3320 H         1 UNK         0.3091 
    117 H117      -47.6939  -26.0093   16.6102 H         1 UNK         0.0702 
    118 H118      -47.2124  -26.8306   14.3076 H         1 UNK         0.0785 
    119 H119      -48.8286  -27.5241   14.2024 H         1 UNK         0.0785 
    120 H120      -47.6716  -28.1520   15.3669 H         1 UNK         0.0785 
    121 H121      -49.2659  -25.0929   14.3000 H         1 UNK         0.2998 
    122 H122      -49.6499  -21.7879   15.6387 H         1 UNK         0.0697 
    123 H123      -48.7237  -21.2255   13.4112 H         1 UNK         0.0825 
    124 H124      -47.4439  -21.8398   14.4446 H         1 UNK         0.0825 
    125 H125      -48.1349  -22.8722   13.2003 H         1 UNK         0.0825 
    126 H126      -50.6572  -22.8384   13.2335 H         1 UNK         0.3029 
    127 H127      -53.6270  -24.3740   14.4211 H         1 UNK         0.0897 
    128 H128      -54.6902  -22.6779   12.9414 H         1 UNK         0.0792 
    129 H129      -53.2487  -21.6667   13.0346 H         1 UNK         0.0792 
    130 H130      -54.2020  -21.9751   14.4759 H         1 UNK         0.0792 
    131 H131      -52.8612  -25.3910   12.6526 H         1 UNK         0.3086 
    132 H132      -51.7877  -26.0258   10.9488 H         1 UNK         0.0583 
    133 H133      -52.0725  -23.9301    8.7479 H         1 UNK         0.1020 
    134 H134      -52.0863  -25.6673    8.5481 H         1 UNK         0.1020 
    135 H135      -55.8133  -24.9971    7.7807 H         1 UNK         0.0694 
    136 H136      -54.2143  -24.8747    7.0941 H         1 UNK         0.0694 
    137 H137      -49.7627  -25.0167    9.3606 H         1 UNK         0.2989 
    138 H138      -47.1234  -24.7224   11.6232 H         1 UNK         0.1055 
    139 H139      -47.6196  -27.3481   10.1217 H         1 UNK         0.0806 
    140 H140      -46.0614  -26.7437   10.6934 H         1 UNK         0.0806 
    141 H141      -47.3031  -27.2053   11.8420 H         1 UNK         0.0806 
    142 H142      -47.6291  -25.2777    8.7433 H         1 UNK         0.3061 
    143 H143      -47.8786  -23.1539    7.3565 H         1 UNK         0.0734 
    144 H144      -46.3661  -21.3110    6.6102 H         1 UNK         0.0832 
    145 H145      -47.2301  -20.8793    8.0767 H         1 UNK         0.0832 
    146 H146      -45.5393  -21.3450    8.1674 H         1 UNK         0.0832 
    147 H147      -46.3796  -24.5230    6.4454 H         1 UNK         0.3156 
    148 H148      -44.1620  -25.0289    5.5954 H         1 UNK         0.0589 
    149 H149      -42.2029  -25.5320    7.8990 H         1 UNK         0.0808 
    150 H150      -41.9732  -26.0023    6.2149 H         1 UNK         0.0808 
    151 H151      -42.0259  -24.3035    6.6537 H         1 UNK         0.0808 
    152 H152      -44.0012  -27.1586    7.5945 H         1 UNK         0.3098 
    153 H153      -46.1574  -29.1318    6.2069 H         1 UNK         0.0720 
    154 H154      -45.7908  -29.9068    8.5879 H         1 UNK         0.0791 
    155 H155      -45.3414  -28.2748    9.0571 H         1 UNK         0.0791 
    156 H156      -44.3436  -29.1871    7.9258 H         1 UNK         0.0791 
    157 H157      -47.8802  -27.2264    7.2765 H         1 UNK         0.3028 
@<TRIPOS>BOND
     1    1    2 1    
     2    1   82 1    
     3    1   83 1    
     4    1   84 1    
     5    2    3 2    
     6    2    4 am   BACKBONE|DICT|INTERRES
     7    4    5 1    
     8    4   85 1    
     9    5    6 1    
    10    5   80 1    
    11    5   86 1    
    12    6    7 1    
    13    6   87 1    
    14    6   88 1    
    15    7    8 1    
    16    8    9 1    
    17    8   89 1    
    18    8   90 1    
    19    9   10 ar   
    20    9   14 ar   
    21   10   11 ar   
    22   10   91 1    
    23   11   12 ar   
    24   11   58 1    
    25   12   13 ar   
    26   12   92 1    
    27   13   14 ar   
    28   13   15 1    
    29   14   93 1    
    30   15   16 1    
    31   15   94 1    
    32   15   95 1    
    33   16   17 1    
    34   17   18 1    
    35   17   96 1    
    36   17   97 1    
    37   18   19 1    
    38   18   22 1    
    39   18   98 1    
    40   19   20 am   BACKBONE|DICT|INTERRES
    41   19   21 2    
    42   20   99 1    
    43   20  100 1    
    44   22   23 am   BACKBONE|DICT|INTERRES
    45   22  101 1    
    46   23   24 2    
    47   23   25 1    
    48   25   26 1    
    49   25   27 1    
    50   25  102 1    
    51   26  103 1    
    52   26  104 1    
    53   26  105 1    
    54   27   28 am   BACKBONE|DICT|INTERRES
    55   27  106 1    
    56   28   29 2    
    57   28   30 1    
    58   30   31 1    
    59   30   32 1    
    60   30  107 1    
    61   31  108 1    
    62   31  109 1    
    63   31  110 1    
    64   32   33 am   BACKBONE|DICT|INTERRES
    65   32  111 1    
    66   33   34 2    
    67   33   35 1    
    68   35   36 1    
    69   35   37 1    
    70   35  112 1    
    71   36  113 1    
    72   36  114 1    
    73   36  115 1    
    74   37   38 am   BACKBONE|DICT|INTERRES
    75   37  116 1    
    76   38   39 2    
    77   38   40 1    
    78   40   41 1    
    79   40   42 1    
    80   40  117 1    
    81   41  118 1    
    82   41  119 1    
    83   41  120 1    
    84   42   43 am   BACKBONE|DICT|INTERRES
    85   42  121 1    
    86   43   44 2    
    87   43   45 1    
    88   45   46 1    
    89   45   47 1    
    90   45  122 1    
    91   46  123 1    
    92   46  124 1    
    93   46  125 1    
    94   47   48 am   BACKBONE|DICT|INTERRES
    95   47  126 1    
    96   48   49 2    
    97   48   50 1    
    98   50   51 1    
    99   50   52 1    
   100   50  127 1    
   101   51  128 1    
   102   51  129 1    
   103   51  130 1    
   104   52   53 am   BACKBONE|DICT|INTERRES
   105   52  131 1    
   106   53   54 2    
   107   53   55 1    
   108   55   56 1    
   109   55   59 1    
   110   55  132 1    
   111   56   57 1    
   112   56  133 1    
   113   56  134 1    
   114   57   58 1    
   115   58  135 1    
   116   58  136 1    
   117   59   60 am   BACKBONE|DICT|INTERRES
   118   59  137 1    
   119   60   61 2    
   120   60   62 1    
   121   62   63 1    
   122   62   64 1    
   123   62  138 1    
   124   63  139 1    
   125   63  140 1    
   126   63  141 1    
   127   64   65 am   BACKBONE|DICT|INTERRES
   128   64  142 1    
   129   65   66 2    
   130   65   67 1    
   131   67   68 1    
   132   67   69 1    
   133   67  143 1    
   134   68  144 1    
   135   68  145 1    
   136   68  146 1    
   137   69   70 am   BACKBONE|DICT|INTERRES
   138   69  147 1    
   139   70   71 2    
   140   70   72 1    
   141   72   73 1    
   142   72   74 1    
   143   72  148 1    
   144   73  149 1    
   145   73  150 1    
   146   73  151 1    
   147   74   75 am   BACKBONE|DICT|INTERRES
   148   74  152 1    
   149   75   76 2    
   150   75   77 1    
   151   77   78 1    
   152   77   79 1    
   153   77  153 1    
   154   78  154 1    
   155   78  155 1    
   156   78  156 1    
   157   79   80 am   BACKBONE|DICT|INTERRES
   158   79  157 1    
   159   80   81 2    
@<TRIPOS>SUBSTRUCTURE
     1 UNK         1 GROUP             0       ****    0 ROOT    
