@<TRIPOS>MOLECULE
3R207
157   159    1
SMALL
USER_CHARGES


@<TRIPOS>ATOM
      1 CA        -51.7101  -25.2272    3.6999 C.3       0 UNK        -0.1975 
      2 C         -51.8437  -25.1485    5.2129 C.2       0 UNK         0.4852 
      3 O         -51.8491  -24.0513    5.7741 O.2       0 UNK        -0.5216 
      4 N         -51.9514  -26.3101    5.8705 N.am      1 UNK        -0.4461 
      5 CA        -52.0857  -26.4944    7.3196 C.3       1 UNK         0.0864 
      6 C6        -52.2770  -27.9875    7.6980 C.3       14 UNK        -0.0898 
      7 S7        -51.1812  -29.1671    6.8326 S.3       14 UNK        -0.2598 
      8 C8        -51.6451  -30.7280    7.6525 C.3       14 UNK         0.0286 
      9 C9        -51.2050  -30.7451    9.1084 C.ar      14 UNK        -0.0844 
     10 C10       -49.8454  -30.8246    9.4203 C.ar      14 UNK        -0.0881 
     11 C11       -49.4198  -30.7601   10.7486 C.ar      14 UNK        -0.0643 
     12 C12       -50.3677  -30.6758   11.7724 C.ar      14 UNK        -0.0930 
     13 C13       -51.7300  -30.5893   11.4756 C.ar      14 UNK        -0.0827 
     14 C14       -52.1439  -30.6269   10.1392 C.ar      14 UNK        -0.1249 
     15 C15       -52.7264  -30.3396   12.6000 C.3       14 UNK         0.0141 
     16 S16       -54.1580  -31.4614   12.5697 S.3       14 UNK        -0.2313 
     17 C17       -55.2473  -30.6082   13.7609 C.3       14 UNK        -0.0915 
     18 CA        -56.3542  -29.7585   13.0785 C.3       13 UNK         0.0968 
     19 C         -57.4005  -29.2709   14.1179 C.2       13 UNK         0.5732 
     20 N         -57.4793  -27.9877   14.4481 N.am      13 UNK        -0.7310 
     21 O         -58.1817  -30.0764   14.6193 O.2       13 UNK        -0.5035 
     22 N         -55.8027  -28.6690   12.2502 N.am      13 UNK        -0.4233 
     23 C         -55.7882  -28.6680   10.9096 C.2       13 UNK         0.4989 
     24 O         -56.2203  -29.5952   10.2229 O.2       13 UNK        -0.4996 
     25 CA        -55.2114  -27.4403   10.1803 C.3       12 UNK         0.0216 
     26 CB        -56.2573  -26.8155    9.2406 C.3       12 UNK        -0.1964 
     27 N         -54.7113  -26.3991   11.0770 N.am      12 UNK        -0.4276 
     28 C         -53.4429  -26.2701   11.4841 C.2       12 UNK         0.5020 
     29 O         -52.5328  -27.0246   11.1510 O.2       12 UNK        -0.5489 
     30 CA        -53.1280  -25.0710   12.3956 C.3       11 UNK         0.0294 
     31 CB        -54.0393  -23.8496   12.1395 C.3       11 UNK        -0.2019 
     32 N         -53.1255  -25.4072   13.8222 N.am      11 UNK        -0.4493 
     33 C         -54.1067  -25.9974   14.5210 C.2       11 UNK         0.4932 
     34 O         -55.1645  -26.3947   14.0252 O.2       11 UNK        -0.5029 
     35 CA        -53.8632  -26.1407   16.0350 C.3       10 UNK         0.0280 
     36 CB        -54.9132  -27.0285   16.7379 C.3       10 UNK        -0.1976 
     37 N         -52.4969  -26.5772   16.3445 N.am      10 UNK        -0.4242 
     38 C         -51.9257  -27.7496   16.0277 C.2       10 UNK         0.5072 
     39 O         -52.5214  -28.6677   15.4654 O.2       10 UNK        -0.5224 
     40 CA        -50.4402  -27.9259   16.4017 C.3       9 UNK         0.0343 
     41 CB        -49.7415  -28.9861   15.5279 C.3       9 UNK        -0.2003 
     42 N         -49.7041  -26.6624   16.3002 N.am      9 UNK        -0.4272 
     43 C         -49.4998  -25.8036   17.3099 C.2       9 UNK         0.4988 
     44 O         -49.9055  -26.0009   18.4553 O.2       9 UNK        -0.5108 
     45 CA        -48.7401  -24.4956   17.0124 C.3       8 UNK         0.0248 
     46 CB        -47.3074  -24.5738   17.5656 C.3       8 UNK        -0.2001 
     47 N         -48.6821  -24.1286   15.5951 N.am      8 UNK        -0.4140 
     48 C         -49.7286  -23.7636   14.8415 C.2       8 UNK         0.5028 
     49 O         -50.8914  -23.7139   15.2462 O.2       8 UNK        -0.5428 
     50 CA        -49.4261  -23.4816   13.3579 C.3       7 UNK         0.0264 
     51 CB        -48.8299  -22.0757   13.1840 C.3       7 UNK        -0.1988 
     52 N         -48.5383  -24.4676   12.7243 N.am      7 UNK        -0.4454 
     53 C         -48.6895  -25.8025   12.7569 C.2       7 UNK         0.5027 
     54 O         -49.5929  -26.3522   13.3857 O.2       7 UNK        -0.5083 
     55 CA        -47.6774  -26.6786   11.9825 C.3       6 UNK         0.0844 
     56 C56       -48.3835  -27.8834   11.3167 C.3       14 UNK        -0.0967 
     57 S57       -47.2226  -29.0779   10.5613 S.3       14 UNK        -0.2604 
     58 C58       -47.9347  -30.6812   11.0730 C.3       14 UNK         0.0134 
     59 N         -46.9027  -25.9061   11.0091 N.am      6 UNK        -0.4116 
     60 C         -45.7423  -25.2816   11.2445 C.2       5 UNK         0.5034 
     61 O         -45.1992  -25.2490   12.3491 O.2       5 UNK        -0.5045 
     62 CA        -45.1132  -24.5206   10.0623 C.3       5 UNK         0.0224 
     63 CB        -43.5705  -24.5776   10.0596 C.3       5 UNK        -0.1978 
     64 N         -45.6909  -24.8949    8.7632 N.am      5 UNK        -0.4737 
     65 C         -45.5049  -26.0192    8.0511 C.2       4 UNK         0.5027 
     66 O         -44.7139  -26.9061    8.3699 O.2       4 UNK        -0.5211 
     67 CA        -46.3641  -26.2077    6.7805 C.3       4 UNK         0.0297 
     68 CB        -47.0527  -27.5848    6.7796 C.3       4 UNK        -0.1993 
     69 N         -47.3844  -25.1651    6.6205 N.am      4 UNK        -0.4486 
     70 C         -47.1537  -23.9434    6.1135 C.2       3 UNK         0.4961 
     71 O         -46.0794  -23.6109    5.6130 O.2       3 UNK        -0.5105 
     72 CA        -48.2776  -22.8924    6.2172 C.3       3 UNK         0.0299 
     73 CB        -48.9184  -22.6510    4.8423 C.3       3 UNK        -0.1972 
     74 N         -49.3197  -23.2197    7.1969 N.am      3 UNK        -0.4305 
     75 C         -49.1257  -23.3013    8.5237 C.2       2 UNK         0.5006 
     76 O         -48.0457  -23.0764    9.0706 O.2       2 UNK        -0.5106 
     77 CA        -50.3124  -23.7613    9.3904 C.3       2 UNK         0.0296 
     78 CB        -51.0644  -22.5381    9.9382 C.3       2 UNK        -0.2002 
     79 N         -51.2565  -24.6466    8.7010 N.am      2 UNK        -0.4032 
     80 C         -50.9443  -25.8081    8.1040 C.2       1 UNK         0.5000 
     81 O         -49.8056  -26.2802    8.0920 O.2       1 UNK        -0.5238 
     82 H82       -52.2366  -26.0901    3.3003 H         1 UNK         0.0889 
     83 H83       -50.6648  -25.3038    3.4139 H         1 UNK         0.0889 
     84 H84       -52.1266  -24.3378    3.2341 H         1 UNK         0.0889 
     85 H85       -51.8892  -27.1744    5.3506 H         1 UNK         0.3028 
     86 H86       -53.0114  -25.9889    7.6033 H         1 UNK         0.0864 
     87 H87       -53.3024  -28.2828    7.4709 H         1 UNK         0.0720 
     88 H88       -52.1598  -28.1235    8.7738 H         1 UNK         0.0720 
     89 H89       -51.1764  -31.5596    7.1245 H         1 UNK         0.0814 
     90 H90       -52.7225  -30.8781    7.5679 H         1 UNK         0.0814 
     91 H91       -49.1138  -30.8706    8.6250 H         1 UNK         0.1469 
     92 H92       -50.0386  -30.6084   12.8000 H         1 UNK         0.1381 
     93 H93       -53.1947  -30.5275    9.9031 H         1 UNK         0.1206 
     94 H94       -52.2396  -30.4408   13.5705 H         1 UNK         0.0813 
     95 H95       -53.0663  -29.3059   12.5338 H         1 UNK         0.0813 
     96 H96       -54.6497  -29.9881   14.4310 H         1 UNK         0.0638 
     97 H97       -55.6946  -31.3816   14.3881 H         1 UNK         0.0638 
     98 H98       -56.9205  -30.4360   12.4371 H         1 UNK         0.0568 
     99 H99       -58.1819  -27.7000   15.1094 H         1 UNK         0.3450 
    100 H100      -56.7808  -27.3211   14.1365 H         1 UNK         0.3450 
    101 H101      -55.4477  -27.8632   12.7545 H         1 UNK         0.2987 
    102 H102      -54.3904  -27.8099    9.5672 H         1 UNK         0.0766 
    103 H103      -55.8374  -25.9811    8.6786 H         1 UNK         0.0798 
    104 H104      -57.1254  -26.4487    9.7894 H         1 UNK         0.0798 
    105 H105      -56.6165  -27.5432    8.5117 H         1 UNK         0.0798 
    106 H106      -55.3937  -25.7538   11.4497 H         1 UNK         0.3198 
    107 H107      -52.1078  -24.7821   12.1468 H         1 UNK         0.0843 
    108 H108      -55.0573  -24.0067   12.4971 H         1 UNK         0.0831 
    109 H109      -54.0965  -23.6106   11.0767 H         1 UNK         0.0831 
    110 H110      -53.6516  -22.9653   12.6452 H         1 UNK         0.0831 
    111 H111      -52.2940  -25.1275   14.3306 H         1 UNK         0.3133 
    112 H112      -53.9574  -25.1364   16.4501 H         1 UNK         0.0566 
    113 H113      -54.7108  -27.1153   17.8052 H         1 UNK         0.0814 
    114 H114      -55.9127  -26.6053   16.6322 H         1 UNK         0.0814 
    115 H115      -54.9443  -28.0346   16.3185 H         1 UNK         0.0814 
    116 H116      -51.9125  -25.8898   16.8008 H         1 UNK         0.3091 
    117 H117      -50.4144  -28.2834   17.4331 H         1 UNK         0.0702 
    118 H118      -48.6852  -29.0781   15.7805 H         1 UNK         0.0785 
    119 H119      -49.8149  -28.7443   14.4676 H         1 UNK         0.0785 
    120 H120      -50.1938  -29.9686   15.6680 H         1 UNK         0.0785 
    121 H121      -49.4264  -26.3983   15.3598 H         1 UNK         0.2998 
    122 H122      -49.2649  -23.6950   17.5381 H         1 UNK         0.0697 
    123 H123      -46.7222  -25.3458   17.0641 H         1 UNK         0.0825 
    124 H124      -47.3115  -24.8095   18.6309 H         1 UNK         0.0825 
    125 H125      -46.7836  -23.6247   17.4499 H         1 UNK         0.0825 
    126 H126      -47.7733  -24.1649   15.1560 H         1 UNK         0.3029 
    127 H127      -50.3746  -23.5084   12.8226 H         1 UNK         0.0897 
    128 H128      -47.8703  -21.9757   13.6929 H         1 UNK         0.0792 
    129 H129      -49.4971  -21.3160   13.5942 H         1 UNK         0.0792 
    130 H130      -48.6740  -21.8343   12.1325 H         1 UNK         0.0792 
    131 H131      -47.7604  -24.0981   12.1979 H         1 UNK         0.3086 
    132 H132      -46.9939  -27.0786   12.7345 H         1 UNK         0.0583 
    133 H133      -48.9759  -28.4095   12.0644 H         1 UNK         0.1020 
    134 H134      -49.0917  -27.5530   10.5531 H         1 UNK         0.1020 
    135 H135      -47.4050  -31.4877   10.5641 H         1 UNK         0.0694 
    136 H136      -47.7622  -30.8227   12.1412 H         1 UNK         0.0694 
    137 H137      -47.2715  -25.8786   10.0699 H         1 UNK         0.2989 
    138 H138      -45.3933  -23.4764   10.2112 H         1 UNK         0.1055 
    139 H139      -43.1628  -24.1093   10.9564 H         1 UNK         0.0806 
    140 H140      -43.1539  -24.0493    9.2021 H         1 UNK         0.0806 
    141 H141      -43.1993  -25.6023   10.0382 H         1 UNK         0.0806 
    142 H142      -46.3904  -24.2436    8.4232 H         1 UNK         0.3061 
    143 H143      -45.6865  -26.1719    5.9249 H         1 UNK         0.0734 
    144 H144      -47.6940  -27.7130    5.9074 H         1 UNK         0.0832 
    145 H145      -46.3170  -28.3897    6.7613 H         1 UNK         0.0832 
    146 H146      -47.6655  -27.7323    7.6696 H         1 UNK         0.0832 
    147 H147      -48.2932  -25.3712    7.0259 H         1 UNK         0.3156 
    148 H148      -47.8138  -21.9578    6.5392 H         1 UNK         0.0589 
    149 H149      -49.3454  -23.5651    4.4329 H         1 UNK         0.0808 
    150 H150      -49.7094  -21.9026    4.8943 H         1 UNK         0.0808 
    151 H151      -48.1784  -22.2915    4.1261 H         1 UNK         0.0808 
    152 H152      -50.2399  -23.4372    6.8238 H         1 UNK         0.3098 
    153 H153      -49.9013  -24.3217   10.2311 H         1 UNK         0.0720 
    154 H154      -51.8126  -22.8237   10.6742 H         1 UNK         0.0791 
    155 H155      -51.5676  -21.9852    9.1439 H         1 UNK         0.0791 
    156 H156      -50.3822  -21.8442   10.4304 H         1 UNK         0.0791 
    157 H157      -52.1979  -24.2969    8.5962 H         1 UNK         0.3028 
@<TRIPOS>BOND
     1    1    2 1    
     2    1   82 1    
     3    1   83 1    
     4    1   84 1    
     5    2    3 2    
     6    2    4 am   BACKBONE|DICT|INTERRES
     7    4    5 1    
     8    4   85 1    
     9    5    6 1    
    10    5   80 1    
    11    5   86 1    
    12    6    7 1    
    13    6   87 1    
    14    6   88 1    
    15    7    8 1    
    16    8    9 1    
    17    8   89 1    
    18    8   90 1    
    19    9   10 ar   
    20    9   14 ar   
    21   10   11 ar   
    22   10   91 1    
    23   11   12 ar   
    24   11   58 1    
    25   12   13 ar   
    26   12   92 1    
    27   13   14 ar   
    28   13   15 1    
    29   14   93 1    
    30   15   16 1    
    31   15   94 1    
    32   15   95 1    
    33   16   17 1    
    34   17   18 1    
    35   17   96 1    
    36   17   97 1    
    37   18   19 1    
    38   18   22 1    
    39   18   98 1    
    40   19   20 am   BACKBONE|DICT|INTERRES
    41   19   21 2    
    42   20   99 1    
    43   20  100 1    
    44   22   23 am   BACKBONE|DICT|INTERRES
    45   22  101 1    
    46   23   24 2    
    47   23   25 1    
    48   25   26 1    
    49   25   27 1    
    50   25  102 1    
    51   26  103 1    
    52   26  104 1    
    53   26  105 1    
    54   27   28 am   BACKBONE|DICT|INTERRES
    55   27  106 1    
    56   28   29 2    
    57   28   30 1    
    58   30   31 1    
    59   30   32 1    
    60   30  107 1    
    61   31  108 1    
    62   31  109 1    
    63   31  110 1    
    64   32   33 am   BACKBONE|DICT|INTERRES
    65   32  111 1    
    66   33   34 2    
    67   33   35 1    
    68   35   36 1    
    69   35   37 1    
    70   35  112 1    
    71   36  113 1    
    72   36  114 1    
    73   36  115 1    
    74   37   38 am   BACKBONE|DICT|INTERRES
    75   37  116 1    
    76   38   39 2    
    77   38   40 1    
    78   40   41 1    
    79   40   42 1    
    80   40  117 1    
    81   41  118 1    
    82   41  119 1    
    83   41  120 1    
    84   42   43 am   BACKBONE|DICT|INTERRES
    85   42  121 1    
    86   43   44 2    
    87   43   45 1    
    88   45   46 1    
    89   45   47 1    
    90   45  122 1    
    91   46  123 1    
    92   46  124 1    
    93   46  125 1    
    94   47   48 am   BACKBONE|DICT|INTERRES
    95   47  126 1    
    96   48   49 2    
    97   48   50 1    
    98   50   51 1    
    99   50   52 1    
   100   50  127 1    
   101   51  128 1    
   102   51  129 1    
   103   51  130 1    
   104   52   53 am   BACKBONE|DICT|INTERRES
   105   52  131 1    
   106   53   54 2    
   107   53   55 1    
   108   55   56 1    
   109   55   59 1    
   110   55  132 1    
   111   56   57 1    
   112   56  133 1    
   113   56  134 1    
   114   57   58 1    
   115   58  135 1    
   116   58  136 1    
   117   59   60 am   BACKBONE|DICT|INTERRES
   118   59  137 1    
   119   60   61 2    
   120   60   62 1    
   121   62   63 1    
   122   62   64 1    
   123   62  138 1    
   124   63  139 1    
   125   63  140 1    
   126   63  141 1    
   127   64   65 am   BACKBONE|DICT|INTERRES
   128   64  142 1    
   129   65   66 2    
   130   65   67 1    
   131   67   68 1    
   132   67   69 1    
   133   67  143 1    
   134   68  144 1    
   135   68  145 1    
   136   68  146 1    
   137   69   70 am   BACKBONE|DICT|INTERRES
   138   69  147 1    
   139   70   71 2    
   140   70   72 1    
   141   72   73 1    
   142   72   74 1    
   143   72  148 1    
   144   73  149 1    
   145   73  150 1    
   146   73  151 1    
   147   74   75 am   BACKBONE|DICT|INTERRES
   148   74  152 1    
   149   75   76 2    
   150   75   77 1    
   151   77   78 1    
   152   77   79 1    
   153   77  153 1    
   154   78  154 1    
   155   78  155 1    
   156   78  156 1    
   157   79   80 am   BACKBONE|DICT|INTERRES
   158   79  157 1    
   159   80   81 2    
@<TRIPOS>SUBSTRUCTURE
     1 UNK         1 GROUP             0       ****    0 ROOT    
