@<TRIPOS>MOLECULE
3R207
157   159    1
SMALL
USER_CHARGES


@<TRIPOS>ATOM
      1 CA        -50.2383  -31.3112    2.9991 C.3       0 UNK        -0.1975 
      2 C         -51.3404  -30.2805    3.1946 C.2       0 UNK         0.4852 
      3 O         -52.4764  -30.5140    2.7800 O.2       0 UNK        -0.5216 
      4 N         -51.0119  -29.1467    3.8214 N.am      1 UNK        -0.4461 
      5 CA        -51.9102  -28.0221    4.0814 C.3       1 UNK         0.0864 
      6 C6        -52.9752  -28.3212    5.1788 C.3       14 UNK        -0.0898 
      7 S7        -52.3166  -28.5133    6.8718 S.3       14 UNK        -0.2598 
      8 C8        -52.1140  -30.3164    6.9943 C.3       14 UNK         0.0286 
      9 C9        -51.7919  -30.7013    8.4277 C.ar      14 UNK        -0.0844 
     10 C10       -50.4992  -30.5288    8.9272 C.ar      14 UNK        -0.0881 
     11 C11       -50.2052  -30.8029   10.2660 C.ar      14 UNK        -0.0643 
     12 C12       -51.2234  -31.2822   11.1006 C.ar      14 UNK        -0.0930 
     13 C13       -52.5187  -31.4753   10.6075 C.ar      14 UNK        -0.0827 
     14 C14       -52.7924  -31.1955    9.2663 C.ar      14 UNK        -0.1249 
     15 C15       -53.6217  -31.9862   11.5230 C.3       14 UNK         0.0141 
     16 S16       -54.6128  -30.6238   12.2175 S.3       14 UNK        -0.2313 
     17 C17       -55.7265  -30.2040   10.8300 C.3       14 UNK        -0.0915 
     18 CA        -55.3545  -28.8726   10.1237 C.3       13 UNK         0.0968 
     19 C         -56.2761  -28.6306    8.8985 C.2       13 UNK         0.5732 
     20 N         -55.7547  -28.7638    7.6865 N.am      13 UNK        -0.7310 
     21 O         -57.4678  -28.3640    9.0440 O.2       13 UNK        -0.5035 
     22 N         -55.3604  -27.7577   11.0772 N.am      13 UNK        -0.4233 
     23 C         -55.0365  -26.4849   10.8167 C.2       13 UNK         0.4989 
     24 O         -54.7546  -26.0513    9.6992 O.2       13 UNK        -0.4996 
     25 CA        -54.9894  -25.5267   12.0231 C.3       12 UNK         0.0216 
     26 CB        -56.3178  -24.7647   12.1584 C.3       12 UNK        -0.1964 
     27 N         -54.6676  -26.1730   13.3034 N.am      12 UNK        -0.4276 
     28 C         -53.5338  -26.8398   13.5618 C.2       12 UNK         0.5020 
     29 O         -52.6333  -27.0000   12.7394 O.2       12 UNK        -0.5489 
     30 CA        -53.3625  -27.3561   14.9957 C.3       11 UNK         0.0294 
     31 CB        -52.4447  -28.5899   15.0788 C.3       11 UNK        -0.2019 
     32 N         -52.7858  -26.2732   15.7854 N.am      11 UNK        -0.4493 
     33 C         -53.4930  -25.3992   16.5126 C.2       11 UNK         0.4932 
     34 O         -54.7129  -25.4842   16.6651 O.2       11 UNK        -0.5029 
     35 CA        -52.7387  -24.2056   17.1317 C.3       10 UNK         0.0280 
     36 CB        -53.3222  -23.7708   18.4935 C.3       10 UNK        -0.1976 
     37 N         -51.2826  -24.3810   17.1967 N.am      10 UNK        -0.4242 
     38 C         -50.5828  -25.2248   17.9740 C.2       10 UNK         0.5072 
     39 O         -51.1000  -25.9819   18.7966 O.2       10 UNK        -0.5224 
     40 CA        -49.0476  -25.2462   17.8109 C.3       9 UNK         0.0343 
     41 CB        -48.5294  -26.6796   17.5932 C.3       9 UNK        -0.2003 
     42 N         -48.5839  -24.4056   16.7046 N.am      9 UNK        -0.4272 
     43 C         -48.2721  -23.1058   16.7978 C.2       9 UNK         0.4988 
     44 O         -48.2585  -22.4808   17.8586 O.2       9 UNK        -0.5108 
     45 CA        -47.9491  -22.3635   15.4867 C.3       8 UNK         0.0248 
     46 CB        -46.4289  -22.3135   15.2656 C.3       8 UNK        -0.2001 
     47 N         -48.5968  -22.9380   14.3010 N.am      8 UNK        -0.4140 
     48 C         -49.9227  -23.0059   14.1066 C.2       8 UNK         0.5028 
     49 O         -50.7491  -22.5419   14.8921 O.2       8 UNK        -0.5428 
     50 CA        -50.4156  -23.7908   12.8768 C.3       7 UNK         0.0264 
     51 CB        -50.3757  -22.9172   11.6146 C.3       7 UNK        -0.1988 
     52 N         -49.6728  -25.0355   12.6495 N.am      7 UNK        -0.4454 
     53 C         -49.5997  -26.0398   13.5374 C.2       7 UNK         0.5027 
     54 O         -50.1462  -26.0069   14.6409 O.2       7 UNK        -0.5083 
     55 CA        -48.7137  -27.2488   13.1853 C.3       6 UNK         0.0844 
     56 C56       -49.4499  -28.2953   12.3132 C.3       14 UNK        -0.0967 
     57 S57       -48.6532  -29.9305   12.4614 S.3       14 UNK        -0.2604 
     58 C58       -48.7766  -30.6022   10.7703 C.3       14 UNK         0.0134 
     59 N         -47.4507  -26.8074   12.5923 N.am      6 UNK        -0.4116 
     60 C         -46.4434  -26.2646   13.2893 C.2       5 UNK         0.5034 
     61 O         -46.4426  -26.1340   14.5136 O.2       5 UNK        -0.5045 
     62 CA        -45.2435  -25.7512   12.4758 C.3       5 UNK         0.0224 
     63 CB        -44.2810  -26.9026   12.1431 C.3       5 UNK        -0.1978 
     64 N         -45.6366  -25.0659   11.2401 N.am      5 UNK        -0.4737 
     65 C         -46.3368  -23.9235   11.2002 C.2       4 UNK         0.5027 
     66 O         -46.7215  -23.3228   12.2012 O.2       4 UNK        -0.5211 
     67 CA        -46.7011  -23.3734    9.8120 C.3       4 UNK         0.0297 
     68 CB        -45.5598  -22.5012    9.2661 C.3       4 UNK        -0.1993 
     69 N         -47.0479  -24.4015    8.8260 N.am      4 UNK        -0.4486 
     70 C         -48.0139  -25.3194    8.9613 C.2       3 UNK         0.4961 
     71 O         -48.6998  -25.4627    9.9762 O.2       3 UNK        -0.5105 
     72 CA        -48.2466  -26.2370    7.7531 C.3       3 UNK         0.0299 
     73 CB        -48.3790  -27.7037    8.1851 C.3       3 UNK        -0.1972 
     74 N         -49.4477  -25.8431    7.0195 N.am      3 UNK        -0.4305 
     75 C         -49.5443  -24.7654    6.2275 C.2       2 UNK         0.5006 
     76 O         -48.6169  -23.9745    6.0418 O.2       2 UNK        -0.5106 
     77 CA        -50.8970  -24.5498    5.5115 C.3       2 UNK         0.0296 
     78 CB        -50.7926  -23.5760    4.3178 C.3       2 UNK        -0.2002 
     79 N         -51.5524  -25.8010    5.0996 N.am      2 UNK        -0.4032 
     80 C         -51.0485  -26.7604    4.3054 C.2       1 UNK         0.5000 
     81 O         -49.9401  -26.6906    3.7655 O.2       1 UNK        -0.5238 
     82 H82       -50.0903  -31.5056    1.9372 H         1 UNK         0.0889 
     83 H83       -50.5117  -32.2484    3.4830 H         1 UNK         0.0889 
     84 H84       -49.2891  -30.9778    3.4186 H         1 UNK         0.0889 
     85 H85       -50.0493  -28.9641    4.0749 H         1 UNK         0.3028 
     86 H86       -52.4509  -27.8273    3.1526 H         1 UNK         0.0864 
     87 H87       -53.5416  -29.2153    4.9153 H         1 UNK         0.0720 
     88 H88       -53.7199  -27.5241    5.2002 H         1 UNK         0.0720 
     89 H89       -51.3132  -30.6436    6.3302 H         1 UNK         0.0814 
     90 H90       -53.0235  -30.8173    6.6589 H         1 UNK         0.0814 
     91 H91       -49.7240  -30.1665    8.2682 H         1 UNK         0.1469 
     92 H92       -51.0093  -31.5036   12.1369 H         1 UNK         0.1381 
     93 H93       -53.7910  -31.3397    8.8793 H         1 UNK         0.1206 
     94 H94       -53.1854  -32.5511   12.3481 H         1 UNK         0.0813 
     95 H95       -54.2665  -32.6863   10.9898 H         1 UNK         0.0813 
     96 H96       -55.7394  -31.0290   10.1165 H         1 UNK         0.0638 
     97 H97       -56.7409  -30.1462   11.2292 H         1 UNK         0.0638 
     98 H98       -54.3278  -28.9523    9.7632 H         1 UNK         0.0568 
     99 H99       -56.3470  -28.6248    6.8836 H         1 UNK         0.3450 
    100 H100      -54.7691  -28.9384    7.5626 H         1 UNK         0.3450 
    101 H101      -55.5690  -28.0073   12.0311 H         1 UNK         0.2987 
    102 H102      -54.1987  -24.8005   11.8222 H         1 UNK         0.0766 
    103 H103      -57.1460  -25.4348   12.3929 H         1 UNK         0.0798 
    104 H104      -56.2646  -24.0073   12.9408 H         1 UNK         0.0798 
    105 H105      -56.5687  -24.2502   11.2296 H         1 UNK         0.0798 
    106 H106      -55.3324  -26.0509   14.0554 H         1 UNK         0.3198 
    107 H107      -54.3419  -27.6450   15.3833 H         1 UNK         0.0843 
    108 H108      -52.4183  -28.9911   16.0918 H         1 UNK         0.0831 
    109 H109      -51.4202  -28.3596   14.7899 H         1 UNK         0.0831 
    110 H110      -52.7980  -29.3854   14.4218 H         1 UNK         0.0831 
    111 H111      -51.7978  -26.0930   15.6195 H         1 UNK         0.3133 
    112 H112      -52.8956  -23.3772   16.4399 H         1 UNK         0.0566 
    113 H113      -52.7772  -22.9221   18.9067 H         1 UNK         0.0814 
    114 H114      -54.3643  -23.4654   18.3923 H         1 UNK         0.0814 
    115 H115      -53.2940  -24.5784   19.2253 H         1 UNK         0.0814 
    116 H116      -50.7688  -23.8166   16.5279 H         1 UNK         0.3091 
    117 H117      -48.6218  -24.8765   18.7459 H         1 UNK         0.0702 
    118 H118      -48.7637  -27.3150   18.4482 H         1 UNK         0.0785 
    119 H119      -47.4467  -26.6953   17.4663 H         1 UNK         0.0785 
    120 H120      -48.9747  -27.1438   16.7132 H         1 UNK         0.0785 
    121 H121      -48.5956  -24.8375   15.7890 H         1 UNK         0.2998 
    122 H122      -48.3122  -21.3395   15.5951 H         1 UNK         0.0697 
    123 H123      -46.0140  -23.3091   15.1018 H         1 UNK         0.0825 
    124 H124      -45.9197  -21.8837   16.1294 H         1 UNK         0.0825 
    125 H125      -46.1742  -21.6991   14.4019 H         1 UNK         0.0825 
    126 H126      -47.9768  -23.2857   13.5711 H         1 UNK         0.3029 
    127 H127      -51.4552  -24.0710   13.0615 H         1 UNK         0.0897 
    128 H128      -50.7434  -23.4595   10.7430 H         1 UNK         0.0792 
    129 H129      -51.0007  -22.0316   11.7354 H         1 UNK         0.0792 
    130 H130      -49.3651  -22.5744   11.3964 H         1 UNK         0.0792 
    131 H131      -49.2255  -25.1459   11.7414 H         1 UNK         0.3086 
    132 H132      -48.4818  -27.7279   14.1398 H         1 UNK         0.0583 
    133 H133      -50.4857  -28.4200   12.6301 H         1 UNK         0.1020 
    134 H134      -49.4938  -27.9769   11.2704 H         1 UNK         0.1020 
    135 H135      -48.2195  -29.9462   10.1012 H         1 UNK         0.0694 
    136 H136      -48.2677  -31.5664   10.7459 H         1 UNK         0.0694 
    137 H137      -47.3903  -26.8264   11.5851 H         1 UNK         0.2989 
    138 H138      -44.7123  -25.0302   13.1017 H         1 UNK         0.1055 
    139 H139      -43.9611  -27.4170   13.0506 H         1 UNK         0.0806 
    140 H140      -43.3816  -26.5374   11.6469 H         1 UNK         0.0806 
    141 H141      -44.7451  -27.6464   11.4941 H         1 UNK         0.0806 
    142 H142      -45.3607  -25.4898   10.3660 H         1 UNK         0.3061 
    143 H143      -47.5792  -22.7375    9.9319 H         1 UNK         0.0734 
    144 H144      -45.8437  -22.0123    8.3340 H         1 UNK         0.0832 
    145 H145      -45.2980  -21.7140    9.9748 H         1 UNK         0.0832 
    146 H146      -44.6571  -23.0844    9.0795 H         1 UNK         0.0832 
    147 H147      -46.5715  -24.3473    7.9364 H         1 UNK         0.3156 
    148 H148      -47.3888  -26.1656    7.0807 H         1 UNK         0.0589 
    149 H149      -49.2533  -27.8565    8.8188 H         1 UNK         0.0808 
    150 H150      -47.5017  -28.0251    8.7476 H         1 UNK         0.0808 
    151 H151      -48.4690  -28.3602    7.3196 H         1 UNK         0.0808 
    152 H152      -50.2638  -26.4252    7.1432 H         1 UNK         0.3098 
    153 H153      -51.5544  -24.0911    6.2515 H         1 UNK         0.0720 
    154 H154      -50.4278  -22.5993    4.6385 H         1 UNK         0.0791 
    155 H155      -51.7634  -23.4182    3.8480 H         1 UNK         0.0791 
    156 H156      -50.1064  -23.9447    3.5546 H         1 UNK         0.0791 
    157 H157      -52.4564  -25.9728    5.5181 H         1 UNK         0.3028 
@<TRIPOS>BOND
     1    1    2 1    
     2    1   82 1    
     3    1   83 1    
     4    1   84 1    
     5    2    3 2    
     6    2    4 am   BACKBONE|DICT|INTERRES
     7    4    5 1    
     8    4   85 1    
     9    5    6 1    
    10    5   80 1    
    11    5   86 1    
    12    6    7 1    
    13    6   87 1    
    14    6   88 1    
    15    7    8 1    
    16    8    9 1    
    17    8   89 1    
    18    8   90 1    
    19    9   10 ar   
    20    9   14 ar   
    21   10   11 ar   
    22   10   91 1    
    23   11   12 ar   
    24   11   58 1    
    25   12   13 ar   
    26   12   92 1    
    27   13   14 ar   
    28   13   15 1    
    29   14   93 1    
    30   15   16 1    
    31   15   94 1    
    32   15   95 1    
    33   16   17 1    
    34   17   18 1    
    35   17   96 1    
    36   17   97 1    
    37   18   19 1    
    38   18   22 1    
    39   18   98 1    
    40   19   20 am   BACKBONE|DICT|INTERRES
    41   19   21 2    
    42   20   99 1    
    43   20  100 1    
    44   22   23 am   BACKBONE|DICT|INTERRES
    45   22  101 1    
    46   23   24 2    
    47   23   25 1    
    48   25   26 1    
    49   25   27 1    
    50   25  102 1    
    51   26  103 1    
    52   26  104 1    
    53   26  105 1    
    54   27   28 am   BACKBONE|DICT|INTERRES
    55   27  106 1    
    56   28   29 2    
    57   28   30 1    
    58   30   31 1    
    59   30   32 1    
    60   30  107 1    
    61   31  108 1    
    62   31  109 1    
    63   31  110 1    
    64   32   33 am   BACKBONE|DICT|INTERRES
    65   32  111 1    
    66   33   34 2    
    67   33   35 1    
    68   35   36 1    
    69   35   37 1    
    70   35  112 1    
    71   36  113 1    
    72   36  114 1    
    73   36  115 1    
    74   37   38 am   BACKBONE|DICT|INTERRES
    75   37  116 1    
    76   38   39 2    
    77   38   40 1    
    78   40   41 1    
    79   40   42 1    
    80   40  117 1    
    81   41  118 1    
    82   41  119 1    
    83   41  120 1    
    84   42   43 am   BACKBONE|DICT|INTERRES
    85   42  121 1    
    86   43   44 2    
    87   43   45 1    
    88   45   46 1    
    89   45   47 1    
    90   45  122 1    
    91   46  123 1    
    92   46  124 1    
    93   46  125 1    
    94   47   48 am   BACKBONE|DICT|INTERRES
    95   47  126 1    
    96   48   49 2    
    97   48   50 1    
    98   50   51 1    
    99   50   52 1    
   100   50  127 1    
   101   51  128 1    
   102   51  129 1    
   103   51  130 1    
   104   52   53 am   BACKBONE|DICT|INTERRES
   105   52  131 1    
   106   53   54 2    
   107   53   55 1    
   108   55   56 1    
   109   55   59 1    
   110   55  132 1    
   111   56   57 1    
   112   56  133 1    
   113   56  134 1    
   114   57   58 1    
   115   58  135 1    
   116   58  136 1    
   117   59   60 am   BACKBONE|DICT|INTERRES
   118   59  137 1    
   119   60   61 2    
   120   60   62 1    
   121   62   63 1    
   122   62   64 1    
   123   62  138 1    
   124   63  139 1    
   125   63  140 1    
   126   63  141 1    
   127   64   65 am   BACKBONE|DICT|INTERRES
   128   64  142 1    
   129   65   66 2    
   130   65   67 1    
   131   67   68 1    
   132   67   69 1    
   133   67  143 1    
   134   68  144 1    
   135   68  145 1    
   136   68  146 1    
   137   69   70 am   BACKBONE|DICT|INTERRES
   138   69  147 1    
   139   70   71 2    
   140   70   72 1    
   141   72   73 1    
   142   72   74 1    
   143   72  148 1    
   144   73  149 1    
   145   73  150 1    
   146   73  151 1    
   147   74   75 am   BACKBONE|DICT|INTERRES
   148   74  152 1    
   149   75   76 2    
   150   75   77 1    
   151   77   78 1    
   152   77   79 1    
   153   77  153 1    
   154   78  154 1    
   155   78  155 1    
   156   78  156 1    
   157   79   80 am   BACKBONE|DICT|INTERRES
   158   79  157 1    
   159   80   81 2    
@<TRIPOS>SUBSTRUCTURE
     1 UNK         1 GROUP             0       ****    0 ROOT    
