@<TRIPOS>MOLECULE
3R207
157   159    1
SMALL
USER_CHARGES


@<TRIPOS>ATOM
      1 CA        -49.6859  -28.5268    9.5532 C.3       0 UNK        -0.1975 
      2 C         -49.1068  -28.9528    8.2191 C.2       0 UNK         0.4852 
      3 O         -48.1785  -29.7626    8.1868 O.2       0 UNK        -0.5216 
      4 N         -49.6283  -28.4069    7.1122 N.am      1 UNK        -0.4461 
      5 CA        -49.0872  -28.6141    5.7680 C.3       1 UNK         0.0864 
      6 C6        -50.0347  -28.1126    4.6480 C.3       14 UNK        -0.0898 
      7 S7        -50.5969  -26.3777    4.7989 S.3       14 UNK        -0.2598 
      8 C8        -52.4067  -26.5388    4.9278 C.3       14 UNK         0.0286 
      9 C9        -52.9071  -26.2769    6.3415 C.ar      14 UNK        -0.0844 
     10 C10       -53.4079  -25.0170    6.6812 C.ar      14 UNK        -0.0881 
     11 C11       -53.9381  -24.7765    7.9528 C.ar      14 UNK        -0.0643 
     12 C12       -53.9569  -25.8133    8.8919 C.ar      14 UNK        -0.0930 
     13 C13       -53.4468  -27.0786    8.5721 C.ar      14 UNK        -0.0827 
     14 C14       -52.9264  -27.3015    7.2917 C.ar      14 UNK        -0.1249 
     15 C15       -53.5051  -28.2337    9.5696 C.3       14 UNK         0.0141 
     16 S16       -53.0232  -27.7586   11.2636 S.3       14 UNK        -0.2313 
     17 C17       -52.5510  -29.3731   11.9716 C.3       14 UNK        -0.0915 
     18 CA        -53.7161  -30.1116   12.6766 C.3       13 UNK         0.0968 
     19 C         -53.3022  -31.5677   13.0494 C.2       13 UNK         0.5732 
     20 N         -53.2686  -31.9628   14.3177 N.am      13 UNK        -0.7310 
     21 O         -53.0129  -32.3644   12.1598 O.2       13 UNK        -0.5035 
     22 N         -54.2654  -29.3349   13.7991 N.am      13 UNK        -0.4233 
     23 C         -55.4841  -29.5423   14.3175 C.2       13 UNK         0.4989 
     24 O         -56.3083  -30.3131   13.8212 O.2       13 UNK        -0.4996 
     25 CA        -55.8469  -28.7727   15.6041 C.3       12 UNK         0.0216 
     26 CB        -56.9488  -29.4768   16.4246 C.3       12 UNK        -0.1964 
     27 N         -54.6981  -28.4576   16.4638 N.am      12 UNK        -0.4276 
     28 C         -53.8197  -29.3142   17.0119 C.2       12 UNK         0.5020 
     29 O         -53.8571  -30.5315   16.8255 O.2       12 UNK        -0.5489 
     30 CA        -52.6946  -28.7224   17.8859 C.3       11 UNK         0.0294 
     31 CB        -51.3425  -29.3969   17.5887 C.3       11 UNK        -0.2019 
     32 N         -52.5544  -27.2808   17.6728 N.am      11 UNK        -0.4493 
     33 C         -52.9782  -26.3199   18.5071 C.2       11 UNK         0.4932 
     34 O         -53.4490  -26.5408   19.6227 O.2       11 UNK        -0.5029 
     35 CA        -52.9001  -24.8631   18.0018 C.3       10 UNK         0.0280 
     36 CB        -51.6265  -24.1816   18.5267 C.3       10 UNK        -0.1976 
     37 N         -52.9379  -24.7478   16.5401 N.am      10 UNK        -0.4242 
     38 C         -53.9524  -25.1516   15.7600 C.2       10 UNK         0.5072 
     39 O         -55.0340  -25.5381   16.2018 O.2       10 UNK        -0.5224 
     40 CA        -53.6946  -25.2333   14.2439 C.3       9 UNK         0.0343 
     41 CB        -54.3926  -24.0794   13.5101 C.3       9 UNK        -0.2003 
     42 N         -52.2675  -25.2800   13.8929 N.am      9 UNK        -0.4272 
     43 C         -51.4470  -26.2944   14.2213 C.2       9 UNK         0.4988 
     44 O         -51.8398  -27.2889   14.8347 O.2       9 UNK        -0.5108 
     45 CA        -49.9531  -26.2003   13.8508 C.3       8 UNK         0.0248 
     46 CB        -49.5342  -27.3740   12.9571 C.3       8 UNK        -0.2001 
     47 N         -49.5915  -24.9510   13.1828 N.am      8 UNK        -0.4140 
     48 C         -49.3422  -23.7931   13.8113 C.2       8 UNK         0.5028 
     49 O         -49.3512  -23.6649   15.0360 O.2       8 UNK        -0.5428 
     50 CA        -49.0910  -22.5584   12.9226 C.3       7 UNK         0.0264 
     51 CB        -47.5855  -22.3587   12.6995 C.3       7 UNK        -0.1988 
     52 N         -49.7787  -22.6359   11.6267 N.am      7 UNK        -0.4454 
     53 C         -51.1149  -22.7044   11.5022 C.2       7 UNK         0.5027 
     54 O         -51.8716  -22.5933   12.4653 O.2       7 UNK        -0.5083 
     55 CA        -51.7344  -22.9875   10.1175 C.3       6 UNK         0.0844 
     56 C56       -52.6568  -21.8235    9.6804 C.3       14 UNK        -0.0967 
     57 S57       -53.3960  -22.0337    8.0238 S.3       14 UNK        -0.2604 
     58 C58       -54.5536  -23.4196    8.2823 C.3       14 UNK         0.0134 
     59 N         -50.7639  -23.3477    9.0848 N.am      6 UNK        -0.4116 
     60 C         -50.0281  -24.4643    9.0566 C.2       5 UNK         0.5034 
     61 O         -50.0123  -25.2957    9.9659 O.2       5 UNK        -0.5045 
     62 CA        -49.1367  -24.6724    7.8173 C.3       5 UNK         0.0224 
     63 CB        -49.3027  -23.5919    6.7240 C.3       5 UNK        -0.1978 
     64 N         -47.7180  -24.8202    8.1537 N.am      5 UNK        -0.4737 
     65 C         -46.9771  -24.0081    8.9228 C.2       4 UNK         0.5027 
     66 O         -47.4221  -23.0004    9.4773 O.2       4 UNK        -0.5211 
     67 CA        -45.4805  -24.3607    9.0633 C.3       4 UNK         0.0297 
     68 CB        -44.8411  -23.7799   10.3426 C.3       4 UNK        -0.1993 
     69 N         -45.1798  -25.7938    8.9420 N.am      4 UNK        -0.4486 
     70 C         -45.6151  -26.7942    9.7216 C.2       3 UNK         0.4961 
     71 O         -46.3878  -26.6441   10.6685 O.2       3 UNK        -0.5105 
     72 CA        -45.0898  -28.2004    9.3673 C.3       3 UNK         0.0299 
     73 CB        -45.6037  -29.2873   10.3303 C.3       3 UNK        -0.1972 
     74 N         -45.4189  -28.5751    7.9872 N.am      3 UNK        -0.4305 
     75 C         -44.7426  -28.1688    6.8999 C.2       2 UNK         0.5006 
     76 O         -43.7569  -27.4318    6.9595 O.2       2 UNK        -0.5106 
     77 CA        -45.2446  -28.6209    5.5137 C.3       2 UNK         0.0296 
     78 CB        -44.4449  -29.8400    5.0266 C.3       2 UNK        -0.2002 
     79 N         -46.6754  -28.9318    5.4681 N.am      2 UNK        -0.4032 
     80 C         -47.6550  -28.0415    5.6782 C.2       1 UNK         0.5000 
     81 O         -47.4533  -26.8414    5.8778 O.2       1 UNK        -0.5238 
     82 H82       -48.9356  -27.9604   10.1043 H         1 UNK         0.0889 
     83 H83       -49.9643  -29.3980   10.1443 H         1 UNK         0.0889 
     84 H84       -50.5640  -27.8940    9.4325 H         1 UNK         0.0889 
     85 H85       -50.3715  -27.7263    7.1801 H         1 UNK         0.3028 
     86 H86       -49.0120  -29.6958    5.6331 H         1 UNK         0.0864 
     87 H87       -49.5556  -28.2259    3.6737 H         1 UNK         0.0720 
     88 H88       -50.9035  -28.7703    4.6122 H         1 UNK         0.0720 
     89 H89       -52.8593  -25.8243    4.2385 H         1 UNK         0.0814 
     90 H90       -52.7429  -27.5188    4.5880 H         1 UNK         0.0814 
     91 H91       -53.4093  -24.2236    5.9462 H         1 UNK         0.1469 
     92 H92       -54.3851  -25.6415    9.8696 H         1 UNK         0.1381 
     93 H93       -52.5623  -28.2832    7.0210 H         1 UNK         0.1206 
     94 H94       -54.5191  -28.6346    9.5906 H         1 UNK         0.0813 
     95 H95       -52.8600  -29.0445    9.2290 H         1 UNK         0.0813 
     96 H96       -52.1231  -29.9887   11.1791 H         1 UNK         0.0638 
     97 H97       -51.7432  -29.2061   12.6837 H         1 UNK         0.0638 
     98 H98       -54.5116  -30.2204   11.9370 H         1 UNK         0.0568 
     99 H99       -53.5165  -31.3385   15.0795 H         1 UNK         0.3450 
    100 H100      -53.0017  -32.9117   14.5236 H         1 UNK         0.3450 
    101 H101      -53.6262  -28.6981   14.2564 H         1 UNK         0.2987 
    102 H102      -56.2485  -27.8149   15.2709 H         1 UNK         0.0766 
    103 H103      -57.2081  -28.9031   17.3143 H         1 UNK         0.0798 
    104 H104      -57.8626  -29.5930   15.8404 H         1 UNK         0.0798 
    105 H105      -56.6385  -30.4719   16.7455 H         1 UNK         0.0798 
    106 H106      -54.5870  -27.4690   16.6640 H         1 UNK         0.3198 
    107 H107      -52.9570  -28.9287   18.9255 H         1 UNK         0.0843 
    108 H108      -51.3797  -30.4651   17.8059 H         1 UNK         0.0831 
    109 H109      -50.5451  -28.9726   18.1987 H         1 UNK         0.0831 
    110 H110      -51.0584  -29.2875   16.5412 H         1 UNK         0.0831 
    111 H111      -52.1998  -27.0205   16.7568 H         1 UNK         0.3133 
    112 H112      -53.7657  -24.3296   18.3998 H         1 UNK         0.0566 
    113 H113      -50.7243  -24.6560   18.1378 H         1 UNK         0.0814 
    114 H114      -51.5775  -24.2306   19.6155 H         1 UNK         0.0814 
    115 H115      -51.5968  -23.1274   18.2503 H         1 UNK         0.0814 
    116 H116      -52.0901  -24.4341   16.0884 H         1 UNK         0.3091 
    117 H117      -54.1428  -26.1654   13.8932 H         1 UNK         0.0702 
    118 H118      -54.2363  -24.1398   12.4328 H         1 UNK         0.0785 
    119 H119      -54.0344  -23.1080   13.8524 H         1 UNK         0.0785 
    120 H120      -55.4694  -24.1053   13.6823 H         1 UNK         0.0785 
    121 H121      -51.8972  -24.4739   13.4026 H         1 UNK         0.2998 
    122 H122      -49.3882  -26.2741   14.7823 H         1 UNK         0.0697 
    123 H123      -50.1268  -27.3946   12.0439 H         1 UNK         0.0825 
    124 H124      -49.6749  -28.3271   13.4678 H         1 UNK         0.0825 
    125 H125      -48.4828  -27.3096   12.6749 H         1 UNK         0.0825 
    126 H126      -49.5811  -24.9692   12.1685 H         1 UNK         0.3029 
    127 H127      -49.4781  -21.6860   13.4537 H         1 UNK         0.0897 
    128 H128      -47.3838  -21.4802   12.0864 H         1 UNK         0.0792 
    129 H129      -47.0644  -22.2220   13.6480 H         1 UNK         0.0792 
    130 H130      -47.1418  -23.2226   12.2055 H         1 UNK         0.0792 
    131 H131      -49.1952  -22.7443   10.8035 H         1 UNK         0.3086 
    132 H132      -52.3657  -23.8656   10.2629 H         1 UNK         0.0583 
    133 H133      -53.4646  -21.6844   10.4021 H         1 UNK         0.1020 
    134 H134      -52.1004  -20.8840    9.6727 H         1 UNK         0.1020 
    135 H135      -54.9334  -23.3957    9.3049 H         1 UNK         0.0694 
    136 H136      -55.4181  -23.2708    7.6340 H         1 UNK         0.0694 
    137 H137      -50.7051  -22.7165    8.2997 H         1 UNK         0.2989 
    138 H138      -49.4499  -25.6237    7.3907 H         1 UNK         0.1055 
    139 H139      -50.3394  -23.5178    6.3914 H         1 UNK         0.0806 
    140 H140      -48.7114  -23.8441    5.8433 H         1 UNK         0.0806 
    141 H141      -48.9812  -22.6064    7.0634 H         1 UNK         0.0806 
    142 H142      -47.2626  -25.6166    7.7238 H         1 UNK         0.3061 
    143 H143      -44.9927  -23.8813    8.2134 H         1 UNK         0.0734 
    144 H144      -44.9964  -22.7024   10.4110 H         1 UNK         0.0832 
    145 H145      -45.2597  -24.2287   11.2431 H         1 UNK         0.0832 
    146 H146      -43.7647  -23.9496   10.3570 H         1 UNK         0.0832 
    147 H147      -44.5633  -26.0555    8.1773 H         1 UNK         0.3156 
    148 H148      -44.0030  -28.1696    9.4706 H         1 UNK         0.0589 
    149 H149      -46.6918  -29.3490   10.3328 H         1 UNK         0.0808 
    150 H150      -45.2122  -30.2701   10.0675 H         1 UNK         0.0808 
    151 H151      -45.2911  -29.0777   11.3541 H         1 UNK         0.0808 
    152 H152      -46.2607  -29.1307    7.8674 H         1 UNK         0.3098 
    153 H153      -45.0643  -27.7962    4.8207 H         1 UNK         0.0720 
    154 H154      -44.7230  -30.1178    4.0096 H         1 UNK         0.0791 
    155 H155      -43.3747  -29.6275    5.0204 H         1 UNK         0.0791 
    156 H156      -44.6006  -30.7084    5.6682 H         1 UNK         0.0791 
    157 H157      -46.9200  -29.9047    5.3500 H         1 UNK         0.3028 
@<TRIPOS>BOND
     1    1    2 1    
     2    1   82 1    
     3    1   83 1    
     4    1   84 1    
     5    2    3 2    
     6    2    4 am   BACKBONE|DICT|INTERRES
     7    4    5 1    
     8    4   85 1    
     9    5    6 1    
    10    5   80 1    
    11    5   86 1    
    12    6    7 1    
    13    6   87 1    
    14    6   88 1    
    15    7    8 1    
    16    8    9 1    
    17    8   89 1    
    18    8   90 1    
    19    9   10 ar   
    20    9   14 ar   
    21   10   11 ar   
    22   10   91 1    
    23   11   12 ar   
    24   11   58 1    
    25   12   13 ar   
    26   12   92 1    
    27   13   14 ar   
    28   13   15 1    
    29   14   93 1    
    30   15   16 1    
    31   15   94 1    
    32   15   95 1    
    33   16   17 1    
    34   17   18 1    
    35   17   96 1    
    36   17   97 1    
    37   18   19 1    
    38   18   22 1    
    39   18   98 1    
    40   19   20 am   BACKBONE|DICT|INTERRES
    41   19   21 2    
    42   20   99 1    
    43   20  100 1    
    44   22   23 am   BACKBONE|DICT|INTERRES
    45   22  101 1    
    46   23   24 2    
    47   23   25 1    
    48   25   26 1    
    49   25   27 1    
    50   25  102 1    
    51   26  103 1    
    52   26  104 1    
    53   26  105 1    
    54   27   28 am   BACKBONE|DICT|INTERRES
    55   27  106 1    
    56   28   29 2    
    57   28   30 1    
    58   30   31 1    
    59   30   32 1    
    60   30  107 1    
    61   31  108 1    
    62   31  109 1    
    63   31  110 1    
    64   32   33 am   BACKBONE|DICT|INTERRES
    65   32  111 1    
    66   33   34 2    
    67   33   35 1    
    68   35   36 1    
    69   35   37 1    
    70   35  112 1    
    71   36  113 1    
    72   36  114 1    
    73   36  115 1    
    74   37   38 am   BACKBONE|DICT|INTERRES
    75   37  116 1    
    76   38   39 2    
    77   38   40 1    
    78   40   41 1    
    79   40   42 1    
    80   40  117 1    
    81   41  118 1    
    82   41  119 1    
    83   41  120 1    
    84   42   43 am   BACKBONE|DICT|INTERRES
    85   42  121 1    
    86   43   44 2    
    87   43   45 1    
    88   45   46 1    
    89   45   47 1    
    90   45  122 1    
    91   46  123 1    
    92   46  124 1    
    93   46  125 1    
    94   47   48 am   BACKBONE|DICT|INTERRES
    95   47  126 1    
    96   48   49 2    
    97   48   50 1    
    98   50   51 1    
    99   50   52 1    
   100   50  127 1    
   101   51  128 1    
   102   51  129 1    
   103   51  130 1    
   104   52   53 am   BACKBONE|DICT|INTERRES
   105   52  131 1    
   106   53   54 2    
   107   53   55 1    
   108   55   56 1    
   109   55   59 1    
   110   55  132 1    
   111   56   57 1    
   112   56  133 1    
   113   56  134 1    
   114   57   58 1    
   115   58  135 1    
   116   58  136 1    
   117   59   60 am   BACKBONE|DICT|INTERRES
   118   59  137 1    
   119   60   61 2    
   120   60   62 1    
   121   62   63 1    
   122   62   64 1    
   123   62  138 1    
   124   63  139 1    
   125   63  140 1    
   126   63  141 1    
   127   64   65 am   BACKBONE|DICT|INTERRES
   128   64  142 1    
   129   65   66 2    
   130   65   67 1    
   131   67   68 1    
   132   67   69 1    
   133   67  143 1    
   134   68  144 1    
   135   68  145 1    
   136   68  146 1    
   137   69   70 am   BACKBONE|DICT|INTERRES
   138   69  147 1    
   139   70   71 2    
   140   70   72 1    
   141   72   73 1    
   142   72   74 1    
   143   72  148 1    
   144   73  149 1    
   145   73  150 1    
   146   73  151 1    
   147   74   75 am   BACKBONE|DICT|INTERRES
   148   74  152 1    
   149   75   76 2    
   150   75   77 1    
   151   77   78 1    
   152   77   79 1    
   153   77  153 1    
   154   78  154 1    
   155   78  155 1    
   156   78  156 1    
   157   79   80 am   BACKBONE|DICT|INTERRES
   158   79  157 1    
   159   80   81 2    
@<TRIPOS>SUBSTRUCTURE
     1 UNK         1 GROUP             0       ****    0 ROOT    
