@<TRIPOS>MOLECULE
3R207
157   159    1
SMALL
USER_CHARGES


@<TRIPOS>ATOM
      1 CA        -47.1457  -28.8260    0.9235 C.3       0 UNK        -0.1975 
      2 C         -47.1011  -28.8098    2.4446 C.2       0 UNK         0.4852 
      3 O         -46.0328  -29.0189    3.0196 O.2       0 UNK        -0.5216 
      4 N         -48.2547  -28.5653    3.0834 N.am      1 UNK        -0.4461 
      5 CA        -48.4683  -28.4921    4.5356 C.3       1 UNK         0.0864 
      6 C6        -48.2819  -29.8523    5.2682 C.3       14 UNK        -0.0898 
      7 S7        -49.4655  -31.1323    4.7195 S.3       14 UNK        -0.2598 
      8 C8        -50.1863  -31.7145    6.3044 C.3       14 UNK         0.0286 
      9 C9        -51.3242  -30.8717    6.8945 C.ar      14 UNK        -0.0844 
     10 C10       -51.6705  -29.6112    6.3982 C.ar      14 UNK        -0.0881 
     11 C11       -52.7081  -28.8699    6.9644 C.ar      14 UNK        -0.0643 
     12 C12       -53.4417  -29.4124    8.0210 C.ar      14 UNK        -0.0930 
     13 C13       -53.1221  -30.6760    8.5345 C.ar      14 UNK        -0.0827 
     14 C14       -52.0569  -31.3891    7.9696 C.ar      14 UNK        -0.1249 
     15 C15       -53.9486  -31.3292    9.6439 C.3       14 UNK         0.0141 
     16 S16       -54.7370  -30.1663   10.8117 S.3       14 UNK        -0.2313 
     17 C17       -53.3599  -29.7714   11.9379 C.3       14 UNK        -0.0915 
     18 CA        -53.8768  -29.2442   13.3021 C.3       13 UNK         0.0968 
     19 C         -52.7256  -29.1577   14.3394 C.2       13 UNK         0.5732 
     20 N         -52.4215  -30.2570   15.0161 N.am      13 UNK        -0.7310 
     21 O         -52.0813  -28.1264   14.5127 O.2       13 UNK        -0.5035 
     22 N         -54.5689  -27.9591   13.1480 N.am      13 UNK        -0.4233 
     23 C         -55.4557  -27.4565   14.0121 C.2       13 UNK         0.4989 
     24 O         -55.9042  -28.0678   14.9853 O.2       13 UNK        -0.4996 
     25 CA        -55.9482  -26.0249   13.7189 C.3       12 UNK         0.0216 
     26 CB        -57.3892  -26.0492   13.1827 C.3       12 UNK        -0.1964 
     27 N         -55.8736  -25.1232   14.8768 N.am      12 UNK        -0.4276 
     28 C         -54.7666  -24.8968   15.5949 C.2       12 UNK         0.5020 
     29 O         -53.6950  -25.4818   15.4063 O.2       12 UNK        -0.5489 
     30 CA        -54.8347  -23.8233   16.6933 C.3       11 UNK         0.0294 
     31 CB        -55.5940  -24.3387   17.9305 C.3       11 UNK        -0.2019 
     32 N         -53.4399  -23.5693   17.0134 N.am      11 UNK        -0.4493 
     33 C         -52.8534  -22.7093   17.8453 C.2       11 UNK         0.4932 
     34 O         -53.4487  -21.8462   18.4916 O.2       11 UNK        -0.5029 
     35 CA        -51.3212  -22.8746   17.9496 C.3       10 UNK         0.0280 
     36 CB        -50.7288  -22.2882   19.2487 C.3       10 UNK        -0.1976 
     37 N         -50.9081  -24.2740   17.7309 N.am      10 UNK        -0.4242 
     38 C         -51.2002  -25.3319   18.5102 C.2       10 UNK         0.5072 
     39 O         -51.7067  -25.2309   19.6287 O.2       10 UNK        -0.5224 
     40 CA        -50.9414  -26.7496   17.9550 C.3       9 UNK         0.0343 
     41 CB        -52.2187  -27.6069   18.0220 C.3       9 UNK        -0.2003 
     42 N         -50.4444  -26.7765   16.5784 N.am      9 UNK        -0.4272 
     43 C         -49.1754  -26.5516   16.2164 C.2       9 UNK         0.4988 
     44 O         -48.2699  -26.3036   17.0132 O.2       9 UNK        -0.5108 
     45 CA        -48.8644  -26.5950   14.7102 C.3       8 UNK         0.0248 
     46 CB        -48.5026  -28.0334   14.3062 C.3       8 UNK        -0.2001 
     47 N         -49.9455  -26.0998   13.8466 N.am      8 UNK        -0.4140 
     48 C         -50.5303  -24.8942   13.9322 C.2       8 UNK         0.5028 
     49 O         -50.2277  -24.0528   14.7821 O.2       8 UNK        -0.5428 
     50 CA        -51.6380  -24.5805   12.9110 C.3       7 UNK         0.0264 
     51 CB        -51.8942  -23.0705   12.7500 C.3       7 UNK        -0.1988 
     52 N         -51.3321  -25.1637   11.6066 N.am      7 UNK        -0.4454 
     53 C         -52.1566  -25.9608   10.9137 C.2       7 UNK         0.5027 
     54 O         -53.2965  -26.2514   11.2796 O.2       7 UNK        -0.5083 
     55 CA        -51.6377  -26.5434    9.5838 C.3       6 UNK         0.0844 
     56 C56       -52.1386  -25.6759    8.4021 C.3       14 UNK        -0.0967 
     57 S57       -51.6893  -26.3086    6.7511 S.3       14 UNK        -0.2604 
     58 C58       -53.0326  -27.4912    6.4098 C.3       14 UNK         0.0134 
     59 N         -50.1879  -26.7771    9.5697 N.am      6 UNK        -0.4116 
     60 C         -49.5480  -27.6272   10.3905 C.2       5 UNK         0.5034 
     61 O         -50.0937  -28.2404   11.3072 O.2       5 UNK        -0.5045 
     62 CA        -48.0441  -27.8207   10.1636 C.3       5 UNK         0.0224 
     63 CB        -47.8056  -28.6784    8.9152 C.3       5 UNK        -0.1978 
     64 N         -47.3779  -26.5286   10.0117 N.am      5 UNK        -0.4737 
     65 C         -46.7138  -25.8970   10.9897 C.2       4 UNK         0.5027 
     66 O         -46.4795  -26.3943   12.0899 O.2       4 UNK        -0.5211 
     67 CA        -46.2217  -24.4639   10.7096 C.3       4 UNK         0.0297 
     68 CB        -44.7338  -24.4754   10.3236 C.3       4 UNK        -0.1993 
     69 N         -46.9801  -23.7632    9.6711 N.am      4 UNK        -0.4486 
     70 C         -48.2838  -23.4596    9.7357 C.2       3 UNK         0.4961 
     71 O         -49.0000  -23.6971   10.7078 O.2       3 UNK        -0.5105 
     72 CA        -48.9091  -22.8409    8.4732 C.3       3 UNK         0.0299 
     73 CB        -48.8435  -21.3072    8.5414 C.3       3 UNK        -0.1972 
     74 N         -48.3201  -23.3028    7.2072 N.am      3 UNK        -0.4305 
     75 C         -48.2230  -24.5820    6.8148 C.2       2 UNK         0.5006 
     76 O         -48.5475  -25.5338    7.5286 O.2       2 UNK        -0.5106 
     77 CA        -47.6583  -24.8122    5.4004 C.3       2 UNK         0.0296 
     78 CB        -46.1281  -24.6163    5.3651 C.3       2 UNK        -0.2002 
     79 N         -48.0662  -26.1063    4.8326 N.am      2 UNK        -0.4032 
     80 C         -47.6612  -27.3409    5.1751 C.2       1 UNK         0.5000 
     81 O         -46.7210  -27.5873    5.9337 O.2       1 UNK        -0.5238 
     82 H82       -46.4761  -28.0666    0.5205 H         1 UNK         0.0889 
     83 H83       -48.1476  -28.6318    0.5408 H         1 UNK         0.0889 
     84 H84       -46.8235  -29.7975    0.5497 H         1 UNK         0.0889 
     85 H85       -49.0842  -28.4115    2.5270 H         1 UNK         0.3028 
     86 H86       -49.5088  -28.1963    4.6549 H         1 UNK         0.0864 
     87 H87       -47.2687  -30.2326    5.1295 H         1 UNK         0.0720 
     88 H88       -48.4064  -29.7195    6.3417 H         1 UNK         0.0720 
     89 H89       -49.3922  -31.8122    7.0461 H         1 UNK         0.0814 
     90 H90       -50.5647  -32.7235    6.1343 H         1 UNK         0.0814 
     91 H91       -51.1435  -29.1871    5.5627 H         1 UNK         0.1469 
     92 H92       -54.2649  -28.8477    8.4351 H         1 UNK         0.1381 
     93 H93       -51.8100  -32.3694    8.3548 H         1 UNK         0.1206 
     94 H94       -54.7368  -31.9149    9.1696 H         1 UNK         0.0813 
     95 H95       -53.3400  -32.0396   10.2054 H         1 UNK         0.0813 
     96 H96       -52.7062  -29.0425   11.4571 H         1 UNK         0.0638 
     97 H97       -52.7629  -30.6740   12.0797 H         1 UNK         0.0638 
     98 H98       -54.6009  -29.9655   13.6865 H         1 UNK         0.0568 
     99 H99       -51.6653  -30.2265   15.6800 H         1 UNK         0.3450 
    100 H100      -52.9323  -31.1144   14.8773 H         1 UNK         0.3450 
    101 H101      -54.2056  -27.3573   12.4120 H         1 UNK         0.2987 
    102 H102      -55.3095  -25.5926   12.9461 H         1 UNK         0.0766 
    103 H103      -57.7200  -25.0554   12.8807 H         1 UNK         0.0798 
    104 H104      -58.0898  -26.4268   13.9288 H         1 UNK         0.0798 
    105 H105      -57.4675  -26.6947   12.3066 H         1 UNK         0.0798 
    106 H106      -56.7177  -24.6228   15.1147 H         1 UNK         0.3198 
    107 H107      -55.2924  -22.9137   16.3005 H         1 UNK         0.0843 
    108 H108      -56.6313  -24.5709   17.6871 H         1 UNK         0.0831 
    109 H109      -55.6100  -23.5962   18.7282 H         1 UNK         0.0831 
    110 H110      -55.1397  -25.2470   18.3293 H         1 UNK         0.0831 
    111 H111      -52.8486  -24.2285   16.5136 H         1 UNK         0.3133 
    112 H112      -50.9009  -22.3097   17.1163 H         1 UNK         0.0566 
    113 H113      -49.6517  -22.4462   19.3009 H         1 UNK         0.0814 
    114 H114      -50.9016  -21.2127   19.3016 H         1 UNK         0.0814 
    115 H115      -51.1779  -22.7286   20.1390 H         1 UNK         0.0814 
    116 H116      -50.4984  -24.4556   16.8190 H         1 UNK         0.3091 
    117 H117      -50.1936  -27.2114   18.6029 H         1 UNK         0.0702 
    118 H118      -52.0290  -28.6273   17.6894 H         1 UNK         0.0785 
    119 H119      -53.0119  -27.1955   17.3964 H         1 UNK         0.0785 
    120 H120      -52.6039  -27.6679   19.0406 H         1 UNK         0.0785 
    121 H121      -51.1189  -27.0038   15.8506 H         1 UNK         0.2998 
    122 H122      -47.9953  -25.9581   14.5348 H         1 UNK         0.0697 
    123 H123      -49.3542  -28.7077   14.4043 H         1 UNK         0.0825 
    124 H124      -47.6983  -28.4262   14.9298 H         1 UNK         0.0825 
    125 H125      -48.1585  -28.0816   13.2758 H         1 UNK         0.0825 
    126 H126      -50.2986  -26.7521   13.1569 H         1 UNK         0.3029 
    127 H127      -52.5461  -25.0332   13.3038 H         1 UNK         0.0897 
    128 H128      -52.1897  -22.6202   13.6986 H         1 UNK         0.0792 
    129 H129      -51.0024  -22.5491   12.4003 H         1 UNK         0.0792 
    130 H130      -52.6972  -22.8794   12.0383 H         1 UNK         0.0792 
    131 H131      -50.4187  -24.9257   11.2255 H         1 UNK         0.3086 
    132 H132      -52.0997  -27.5263    9.4890 H         1 UNK         0.0583 
    133 H133      -53.2241  -25.5642    8.4434 H         1 UNK         0.1020 
    134 H134      -51.7376  -24.6650    8.4847 H         1 UNK         0.1020 
    135 H135      -53.9776  -27.1153    6.8045 H         1 UNK         0.0694 
    136 H136      -53.1633  -27.5678    5.3294 H         1 UNK         0.0694 
    137 H137      -49.6671  -26.3302    8.8188 H         1 UNK         0.2989 
    138 H138      -47.6343  -28.3603   11.0195 H         1 UNK         0.1055 
    139 H139      -46.7422  -28.8246    8.7257 H         1 UNK         0.0806 
    140 H140      -48.2421  -28.2122    8.0331 H         1 UNK         0.0806 
    141 H141      -48.2603  -29.6641    9.0233 H         1 UNK         0.0806 
    142 H142      -47.5467  -26.0403    9.1370 H         1 UNK         0.3061 
    143 H143      -46.3327  -23.8976   11.6369 H         1 UNK         0.0734 
    144 H144      -44.3433  -23.4640   10.2094 H         1 UNK         0.0832 
    145 H145      -44.1357  -24.9658   11.0931 H         1 UNK         0.0832 
    146 H146      -44.5635  -25.0115    9.3890 H         1 UNK         0.0832 
    147 H147      -46.4847  -23.5367    8.8213 H         1 UNK         0.3156 
    148 H148      -49.9606  -23.1308    8.4612 H         1 UNK         0.0589 
    149 H149      -49.2946  -20.9383    9.4640 H         1 UNK         0.0808 
    150 H150      -47.8152  -20.9443    8.5142 H         1 UNK         0.0808 
    151 H151      -49.3851  -20.8482    7.7142 H         1 UNK         0.0808 
    152 H152      -48.0215  -22.5814    6.5661 H         1 UNK         0.3098 
    153 H153      -48.1057  -24.0590    4.7499 H         1 UNK         0.0720 
    154 H154      -45.7221  -24.8396    4.3784 H         1 UNK         0.0791 
    155 H155      -45.6167  -25.2512    6.0893 H         1 UNK         0.0791 
    156 H156      -45.8594  -23.5856    5.5986 H         1 UNK         0.0791 
    157 H157      -48.8448  -26.0472    4.1916 H         1 UNK         0.3028 
@<TRIPOS>BOND
     1    1    2 1    
     2    1   82 1    
     3    1   83 1    
     4    1   84 1    
     5    2    3 2    
     6    2    4 am   BACKBONE|DICT|INTERRES
     7    4    5 1    
     8    4   85 1    
     9    5    6 1    
    10    5   80 1    
    11    5   86 1    
    12    6    7 1    
    13    6   87 1    
    14    6   88 1    
    15    7    8 1    
    16    8    9 1    
    17    8   89 1    
    18    8   90 1    
    19    9   10 ar   
    20    9   14 ar   
    21   10   11 ar   
    22   10   91 1    
    23   11   12 ar   
    24   11   58 1    
    25   12   13 ar   
    26   12   92 1    
    27   13   14 ar   
    28   13   15 1    
    29   14   93 1    
    30   15   16 1    
    31   15   94 1    
    32   15   95 1    
    33   16   17 1    
    34   17   18 1    
    35   17   96 1    
    36   17   97 1    
    37   18   19 1    
    38   18   22 1    
    39   18   98 1    
    40   19   20 am   BACKBONE|DICT|INTERRES
    41   19   21 2    
    42   20   99 1    
    43   20  100 1    
    44   22   23 am   BACKBONE|DICT|INTERRES
    45   22  101 1    
    46   23   24 2    
    47   23   25 1    
    48   25   26 1    
    49   25   27 1    
    50   25  102 1    
    51   26  103 1    
    52   26  104 1    
    53   26  105 1    
    54   27   28 am   BACKBONE|DICT|INTERRES
    55   27  106 1    
    56   28   29 2    
    57   28   30 1    
    58   30   31 1    
    59   30   32 1    
    60   30  107 1    
    61   31  108 1    
    62   31  109 1    
    63   31  110 1    
    64   32   33 am   BACKBONE|DICT|INTERRES
    65   32  111 1    
    66   33   34 2    
    67   33   35 1    
    68   35   36 1    
    69   35   37 1    
    70   35  112 1    
    71   36  113 1    
    72   36  114 1    
    73   36  115 1    
    74   37   38 am   BACKBONE|DICT|INTERRES
    75   37  116 1    
    76   38   39 2    
    77   38   40 1    
    78   40   41 1    
    79   40   42 1    
    80   40  117 1    
    81   41  118 1    
    82   41  119 1    
    83   41  120 1    
    84   42   43 am   BACKBONE|DICT|INTERRES
    85   42  121 1    
    86   43   44 2    
    87   43   45 1    
    88   45   46 1    
    89   45   47 1    
    90   45  122 1    
    91   46  123 1    
    92   46  124 1    
    93   46  125 1    
    94   47   48 am   BACKBONE|DICT|INTERRES
    95   47  126 1    
    96   48   49 2    
    97   48   50 1    
    98   50   51 1    
    99   50   52 1    
   100   50  127 1    
   101   51  128 1    
   102   51  129 1    
   103   51  130 1    
   104   52   53 am   BACKBONE|DICT|INTERRES
   105   52  131 1    
   106   53   54 2    
   107   53   55 1    
   108   55   56 1    
   109   55   59 1    
   110   55  132 1    
   111   56   57 1    
   112   56  133 1    
   113   56  134 1    
   114   57   58 1    
   115   58  135 1    
   116   58  136 1    
   117   59   60 am   BACKBONE|DICT|INTERRES
   118   59  137 1    
   119   60   61 2    
   120   60   62 1    
   121   62   63 1    
   122   62   64 1    
   123   62  138 1    
   124   63  139 1    
   125   63  140 1    
   126   63  141 1    
   127   64   65 am   BACKBONE|DICT|INTERRES
   128   64  142 1    
   129   65   66 2    
   130   65   67 1    
   131   67   68 1    
   132   67   69 1    
   133   67  143 1    
   134   68  144 1    
   135   68  145 1    
   136   68  146 1    
   137   69   70 am   BACKBONE|DICT|INTERRES
   138   69  147 1    
   139   70   71 2    
   140   70   72 1    
   141   72   73 1    
   142   72   74 1    
   143   72  148 1    
   144   73  149 1    
   145   73  150 1    
   146   73  151 1    
   147   74   75 am   BACKBONE|DICT|INTERRES
   148   74  152 1    
   149   75   76 2    
   150   75   77 1    
   151   77   78 1    
   152   77   79 1    
   153   77  153 1    
   154   78  154 1    
   155   78  155 1    
   156   78  156 1    
   157   79   80 am   BACKBONE|DICT|INTERRES
   158   79  157 1    
   159   80   81 2    
@<TRIPOS>SUBSTRUCTURE
     1 UNK         1 GROUP             0       ****    0 ROOT    
