@<TRIPOS>MOLECULE
3R207
157   159    1
SMALL
USER_CHARGES


@<TRIPOS>ATOM
      1 CA        -50.3426  -31.6229    4.3655 C.3       0 UNK        -0.1975 
      2 C         -49.6936  -30.6222    5.3106 C.2       0 UNK         0.4852 
      3 O         -48.4689  -30.6170    5.4410 O.2       0 UNK        -0.5216 
      4 N         -50.5091  -29.7834    5.9653 N.am      1 UNK        -0.4461 
      5 CA        -50.1161  -28.7283    6.9074 C.3       1 UNK         0.0864 
      6 C6        -49.4710  -29.2622    8.2191 C.3       14 UNK        -0.0898 
      7 S7        -50.5945  -30.3229    9.1895 S.3       14 UNK        -0.2598 
      8 C8        -51.0576  -29.2235   10.5676 C.3       14 UNK         0.0286 
      9 C9        -52.1205  -28.2177   10.1501 C.ar      14 UNK        -0.0844 
     10 C10       -51.7564  -26.9859    9.6023 C.ar      14 UNK        -0.0881 
     11 C11       -52.7337  -26.0691    9.1909 C.ar      14 UNK        -0.0643 
     12 C12       -54.0825  -26.3936    9.3685 C.ar      14 UNK        -0.0930 
     13 C13       -54.4661  -27.6149    9.9302 C.ar      14 UNK        -0.0827 
     14 C14       -53.4729  -28.5214   10.3165 C.ar      14 UNK        -0.1249 
     15 C15       -55.9526  -27.9113   10.1296 C.3       14 UNK         0.0141 
     16 S16       -56.4010  -29.6648    9.8989 S.3       14 UNK        -0.2313 
     17 C17       -58.2154  -29.6135   10.1167 C.3       14 UNK        -0.0915 
     18 CA        -58.7562  -30.4860   11.2830 C.3       13 UNK         0.0968 
     19 C         -58.5079  -32.0064   11.0543 C.2       13 UNK         0.5732 
     20 N         -59.2732  -32.6294   10.1677 N.am      13 UNK        -0.7310 
     21 O         -57.6198  -32.6184   11.6463 O.2       13 UNK        -0.5035 
     22 N         -58.2931  -29.9955   12.5890 N.am      13 UNK        -0.4233 
     23 C         -58.7602  -30.4009   13.7768 C.2       13 UNK         0.4989 
     24 O         -59.7054  -31.1823   13.9041 O.2       13 UNK        -0.4996 
     25 CA        -58.0551  -29.8398   15.0312 C.3       12 UNK         0.0216 
     26 CB        -58.5458  -30.5002   16.3344 C.3       12 UNK        -0.1964 
     27 N         -56.5954  -29.9682   14.9558 N.am      12 UNK        -0.4276 
     28 C         -55.7906  -29.1429   14.2784 C.2       12 UNK         0.5020 
     29 O         -56.1996  -28.1680   13.6408 O.2       12 UNK        -0.5489 
     30 CA        -54.2970  -29.4835   14.2703 C.3       11 UNK         0.0294 
     31 CB        -54.0201  -30.7336   13.4120 C.3       11 UNK        -0.2019 
     32 N         -53.5870  -28.3206   13.7463 N.am      11 UNK        -0.4493 
     33 C         -52.2956  -28.0337   13.9323 C.2       11 UNK         0.4932 
     34 O         -51.5014  -28.8096   14.4689 O.2       11 UNK        -0.5029 
     35 CA        -51.7908  -26.6578   13.4400 C.3       10 UNK         0.0280 
     36 CB        -52.9145  -25.6409   13.1290 C.3       10 UNK        -0.1976 
     37 N         -50.8006  -26.0956   14.3671 N.am      10 UNK        -0.4242 
     38 C         -51.0069  -25.7838   15.6560 C.2       10 UNK         0.5072 
     39 O         -52.1185  -25.7614   16.1878 O.2       10 UNK        -0.5224 
     40 CA        -49.7803  -25.4982   16.5336 C.3       9 UNK         0.0343 
     41 CB        -49.3247  -26.8019   17.2224 C.3       9 UNK        -0.2003 
     42 N         -48.6552  -24.8764   15.8250 N.am      9 UNK        -0.4272 
     43 C         -47.6600  -24.2353   16.4559 C.2       9 UNK         0.4988 
     44 O         -47.6186  -24.0632   17.6756 O.2       9 UNK        -0.5108 
     45 CA        -46.4982  -23.7076   15.6002 C.3       8 UNK         0.0248 
     46 CB        -45.5425  -24.8537   15.2318 C.3       8 UNK        -0.2001 
     47 N         -46.9297  -23.0001   14.3936 N.am      8 UNK        -0.4140 
     48 C         -47.5957  -21.8355   14.3970 C.2       8 UNK         0.5028 
     49 O         -47.9174  -21.2296   15.4203 O.2       8 UNK        -0.5428 
     50 CA        -47.9624  -21.2343   13.0302 C.3       7 UNK         0.0264 
     51 CB        -46.7737  -20.4575   12.4414 C.3       7 UNK        -0.1988 
     52 N         -48.4170  -22.2353   12.0652 N.am      7 UNK        -0.4454 
     53 C         -49.5513  -22.9439   12.1763 C.2       7 UNK         0.5027 
     54 O         -50.3623  -22.8081   13.0923 O.2       7 UNK        -0.5083 
     55 CA        -49.8083  -23.9947   11.0766 C.3       6 UNK         0.0844 
     56 C56       -50.3348  -23.2742    9.8075 C.3       14 UNK        -0.0967 
     57 S57       -50.6251  -24.3467    8.3649 S.3       14 UNK        -0.2604 
     58 C58       -52.4009  -24.7407    8.5100 C.3       14 UNK         0.0134 
     59 N         -48.6212  -24.8322   10.8508 N.am      6 UNK        -0.4116 
     60 C         -48.0050  -25.5629   11.7970 C.2       5 UNK         0.5034 
     61 O         -48.4190  -25.6950   12.9508 O.2       5 UNK        -0.5045 
     62 CA        -46.6628  -26.2073   11.4229 C.3       5 UNK         0.0224 
     63 CB        -46.8616  -27.5783   10.7601 C.3       5 UNK        -0.1978 
     64 N         -45.8612  -25.3384   10.5601 N.am      5 UNK        -0.4737 
     65 C         -45.2392  -24.2291   10.9825 C.2       4 UNK         0.5027 
     66 O         -45.2468  -23.8482   12.1515 O.2       4 UNK        -0.5211 
     67 CA        -44.5257  -23.3794    9.9175 C.3       4 UNK         0.0297 
     68 CB        -43.1229  -23.9377    9.6317 C.3       4 UNK        -0.1993 
     69 N         -45.2831  -23.2854    8.6675 N.am      4 UNK        -0.4486 
     70 C         -46.4787  -22.6910    8.5530 C.2       3 UNK         0.4961 
     71 O         -47.0444  -22.1086    9.4789 O.2       3 UNK        -0.5105 
     72 CA        -47.1845  -22.8044    7.1892 C.3       3 UNK         0.0299 
     73 CB        -46.7565  -21.6503    6.2693 C.3       3 UNK        -0.1972 
     74 N         -46.9916  -24.0856    6.4930 N.am      3 UNK        -0.4305 
     75 C         -47.2487  -25.2962    7.0090 C.2       2 UNK         0.5006 
     76 O         -47.5637  -25.4896    8.1847 O.2       2 UNK        -0.5106 
     77 CA        -47.0694  -26.5029    6.0770 C.3       2 UNK         0.0296 
     78 CB        -45.6191  -27.0090    6.1385 C.3       2 UNK        -0.2002 
     79 N         -47.9672  -27.5847    6.4830 N.am      2 UNK        -0.4032 
     80 C         -49.2761  -27.6411    6.1986 C.2       1 UNK         0.5000 
     81 O         -49.8359  -26.8742    5.4116 O.2       1 UNK        -0.5238 
     82 H82       -51.4280  -31.5246    4.3483 H         1 UNK         0.0889 
     83 H83       -50.0997  -32.6397    4.6727 H         1 UNK         0.0889 
     84 H84       -49.9726  -31.4753    3.3513 H         1 UNK         0.0889 
     85 H85       -51.5027  -29.8402    5.7910 H         1 UNK         0.3028 
     86 H86       -51.0452  -28.2296    7.1869 H         1 UNK         0.0864 
     87 H87       -48.5703  -29.8408    8.0094 H         1 UNK         0.0720 
     88 H88       -49.1574  -28.4307    8.8486 H         1 UNK         0.0720 
     89 H89       -50.1760  -28.7134   10.9590 H         1 UNK         0.0814 
     90 H90       -51.4346  -29.8362   11.3880 H         1 UNK         0.0814 
     91 H91       -50.7072  -26.7627    9.4812 H         1 UNK         0.1469 
     92 H92       -54.8415  -25.6881    9.0583 H         1 UNK         0.1381 
     93 H93       -53.7468  -29.4726   10.7451 H         1 UNK         0.1206 
     94 H94       -56.2434  -27.5903   11.1289 H         1 UNK         0.0813 
     95 H95       -56.5437  -27.3183    9.4299 H         1 UNK         0.0813 
     96 H96       -58.6717  -29.9226    9.1748 H         1 UNK         0.0638 
     97 H97       -58.5328  -28.5800   10.2630 H         1 UNK         0.0638 
     98 H98       -59.8404  -30.3582   11.2921 H         1 UNK         0.0568 
     99 H99       -59.1218  -33.6111    9.9966 H         1 UNK         0.3450 
    100 H100      -59.9986  -32.1400    9.6674 H         1 UNK         0.3450 
    101 H101      -57.5069  -29.3561   12.5816 H         1 UNK         0.2987 
    102 H102      -58.3113  -28.7794   15.0865 H         1 UNK         0.0766 
    103 H103      -58.0657  -30.0593   17.2083 H         1 UNK         0.0798 
    104 H104      -58.3447  -31.5723   16.3451 H         1 UNK         0.0798 
    105 H105      -59.6214  -30.3683   16.4602 H         1 UNK         0.0798 
    106 H106      -56.1913  -30.7720   15.4159 H         1 UNK         0.3198 
    107 H107      -53.9723  -29.6583   15.2984 H         1 UNK         0.0843 
    108 H108      -54.4009  -31.6310   13.9002 H         1 UNK         0.0831 
    109 H109      -52.9537  -30.8877   13.2486 H         1 UNK         0.0831 
    110 H110      -54.5072  -30.6735   12.4391 H         1 UNK         0.0831 
    111 H111      -54.2027  -27.6363   13.3211 H         1 UNK         0.3133 
    112 H112      -51.2479  -26.8440   12.5139 H         1 UNK         0.0566 
    113 H113      -52.5054  -24.6655   12.8680 H         1 UNK         0.0814 
    114 H114      -53.5181  -25.9674   12.2819 H         1 UNK         0.0814 
    115 H115      -53.5848  -25.4966   13.9770 H         1 UNK         0.0814 
    116 H116      -49.8503  -26.0908   14.0058 H         1 UNK         0.3091 
    117 H117      -50.1172  -24.8023   17.3053 H         1 UNK         0.0702 
    118 H118      -48.5630  -26.6164   17.9795 H         1 UNK         0.0785 
    119 H119      -48.9163  -27.5118   16.5020 H         1 UNK         0.0785 
    120 H120      -50.1595  -27.2927   17.7250 H         1 UNK         0.0785 
    121 H121      -48.6227  -24.9637   14.8145 H         1 UNK         0.2998 
    122 H122      -45.9395  -22.9953   16.2111 H         1 UNK         0.0697 
    123 H123      -46.0251  -25.5908   14.5906 H         1 UNK         0.0825 
    124 H124      -45.1970  -25.3762   16.1249 H         1 UNK         0.0825 
    125 H125      -44.6578  -24.4831   14.7139 H         1 UNK         0.0825 
    126 H126      -46.6237  -23.3863   13.5053 H         1 UNK         0.3029 
    127 H127      -48.7826  -20.5309   13.1898 H         1 UNK         0.0897 
    128 H128      -47.0484  -19.9581   11.5120 H         1 UNK         0.0792 
    129 H129      -46.4274  -19.6886   13.1334 H         1 UNK         0.0792 
    130 H130      -45.9278  -21.1126   12.2295 H         1 UNK         0.0792 
    131 H131      -47.8348  -22.3697   11.2416 H         1 UNK         0.3086 
    132 H132      -50.5957  -24.6608   11.4310 H         1 UNK         0.0583 
    133 H133      -51.2554  -22.7349   10.0379 H         1 UNK         0.1020 
    134 H134      -49.6303  -22.5066    9.4847 H         1 UNK         0.1020 
    135 H135      -52.9232  -23.9289    9.0174 H         1 UNK         0.0694 
    136 H136      -52.8075  -24.7753    7.4984 H         1 UNK         0.0694 
    137 H137      -48.2354  -24.8339    9.9104 H         1 UNK         0.2989 
    138 H138      -46.1100  -26.3676   12.3506 H         1 UNK         0.1055 
    139 H139      -47.4933  -28.2234   11.3726 H         1 UNK         0.0806 
    140 H140      -45.9094  -28.0914   10.6254 H         1 UNK         0.0806 
    141 H141      -47.3307  -27.4903    9.7829 H         1 UNK         0.0806 
    142 H142      -45.9084  -25.5215    9.5658 H         1 UNK         0.3061 
    143 H143      -44.4164  -22.3698   10.3197 H         1 UNK         0.0734 
    144 H144      -42.5738  -23.2979    8.9407 H         1 UNK         0.0832 
    145 H145      -42.5355  -23.9996   10.5490 H         1 UNK         0.0832 
    146 H146      -43.1637  -24.9400    9.2034 H         1 UNK         0.0832 
    147 H147      -44.8948  -23.7411    7.8549 H         1 UNK         0.3156 
    148 H148      -48.2551  -22.7037    7.3743 H         1 UNK         0.0589 
    149 H149      -45.7015  -21.7164    6.0005 H         1 UNK         0.0808 
    150 H150      -47.3391  -21.6388    5.3479 H         1 UNK         0.0808 
    151 H151      -46.9088  -20.6860    6.7567 H         1 UNK         0.0808 
    152 H152      -46.7119  -24.0283    5.5241 H         1 UNK         0.3098 
    153 H153      -47.3025  -26.2065    5.0521 H         1 UNK         0.0720 
    154 H154      -45.4744  -27.8733    5.4897 H         1 UNK         0.0791 
    155 H155      -45.3333  -27.2990    7.1508 H         1 UNK         0.0791 
    156 H156      -44.9198  -26.2390    5.8099 H         1 UNK         0.0791 
    157 H157      -47.5881  -28.2617    7.1273 H         1 UNK         0.3028 
@<TRIPOS>BOND
     1    1    2 1    
     2    1   82 1    
     3    1   83 1    
     4    1   84 1    
     5    2    3 2    
     6    2    4 am   BACKBONE|DICT|INTERRES
     7    4    5 1    
     8    4   85 1    
     9    5    6 1    
    10    5   80 1    
    11    5   86 1    
    12    6    7 1    
    13    6   87 1    
    14    6   88 1    
    15    7    8 1    
    16    8    9 1    
    17    8   89 1    
    18    8   90 1    
    19    9   10 ar   
    20    9   14 ar   
    21   10   11 ar   
    22   10   91 1    
    23   11   12 ar   
    24   11   58 1    
    25   12   13 ar   
    26   12   92 1    
    27   13   14 ar   
    28   13   15 1    
    29   14   93 1    
    30   15   16 1    
    31   15   94 1    
    32   15   95 1    
    33   16   17 1    
    34   17   18 1    
    35   17   96 1    
    36   17   97 1    
    37   18   19 1    
    38   18   22 1    
    39   18   98 1    
    40   19   20 am   BACKBONE|DICT|INTERRES
    41   19   21 2    
    42   20   99 1    
    43   20  100 1    
    44   22   23 am   BACKBONE|DICT|INTERRES
    45   22  101 1    
    46   23   24 2    
    47   23   25 1    
    48   25   26 1    
    49   25   27 1    
    50   25  102 1    
    51   26  103 1    
    52   26  104 1    
    53   26  105 1    
    54   27   28 am   BACKBONE|DICT|INTERRES
    55   27  106 1    
    56   28   29 2    
    57   28   30 1    
    58   30   31 1    
    59   30   32 1    
    60   30  107 1    
    61   31  108 1    
    62   31  109 1    
    63   31  110 1    
    64   32   33 am   BACKBONE|DICT|INTERRES
    65   32  111 1    
    66   33   34 2    
    67   33   35 1    
    68   35   36 1    
    69   35   37 1    
    70   35  112 1    
    71   36  113 1    
    72   36  114 1    
    73   36  115 1    
    74   37   38 am   BACKBONE|DICT|INTERRES
    75   37  116 1    
    76   38   39 2    
    77   38   40 1    
    78   40   41 1    
    79   40   42 1    
    80   40  117 1    
    81   41  118 1    
    82   41  119 1    
    83   41  120 1    
    84   42   43 am   BACKBONE|DICT|INTERRES
    85   42  121 1    
    86   43   44 2    
    87   43   45 1    
    88   45   46 1    
    89   45   47 1    
    90   45  122 1    
    91   46  123 1    
    92   46  124 1    
    93   46  125 1    
    94   47   48 am   BACKBONE|DICT|INTERRES
    95   47  126 1    
    96   48   49 2    
    97   48   50 1    
    98   50   51 1    
    99   50   52 1    
   100   50  127 1    
   101   51  128 1    
   102   51  129 1    
   103   51  130 1    
   104   52   53 am   BACKBONE|DICT|INTERRES
   105   52  131 1    
   106   53   54 2    
   107   53   55 1    
   108   55   56 1    
   109   55   59 1    
   110   55  132 1    
   111   56   57 1    
   112   56  133 1    
   113   56  134 1    
   114   57   58 1    
   115   58  135 1    
   116   58  136 1    
   117   59   60 am   BACKBONE|DICT|INTERRES
   118   59  137 1    
   119   60   61 2    
   120   60   62 1    
   121   62   63 1    
   122   62   64 1    
   123   62  138 1    
   124   63  139 1    
   125   63  140 1    
   126   63  141 1    
   127   64   65 am   BACKBONE|DICT|INTERRES
   128   64  142 1    
   129   65   66 2    
   130   65   67 1    
   131   67   68 1    
   132   67   69 1    
   133   67  143 1    
   134   68  144 1    
   135   68  145 1    
   136   68  146 1    
   137   69   70 am   BACKBONE|DICT|INTERRES
   138   69  147 1    
   139   70   71 2    
   140   70   72 1    
   141   72   73 1    
   142   72   74 1    
   143   72  148 1    
   144   73  149 1    
   145   73  150 1    
   146   73  151 1    
   147   74   75 am   BACKBONE|DICT|INTERRES
   148   74  152 1    
   149   75   76 2    
   150   75   77 1    
   151   77   78 1    
   152   77   79 1    
   153   77  153 1    
   154   78  154 1    
   155   78  155 1    
   156   78  156 1    
   157   79   80 am   BACKBONE|DICT|INTERRES
   158   79  157 1    
   159   80   81 2    
@<TRIPOS>SUBSTRUCTURE
     1 UNK         1 GROUP             0       ****    0 ROOT    
