@<TRIPOS>MOLECULE
3R207
157   159    1
SMALL
USER_CHARGES


@<TRIPOS>ATOM
      1 CA        -45.4604  -30.5588    7.5110 C.3       0 UNK        -0.1975 
      2 C         -46.1704  -29.2660    7.8814 C.2       0 UNK         0.4852 
      3 O         -46.0785  -28.2865    7.1418 O.2       0 UNK        -0.5216 
      4 N         -46.8652  -29.2488    9.0281 N.am      1 UNK        -0.4461 
      5 CA        -47.6431  -28.1109    9.5414 C.3       1 UNK         0.0864 
      6 C6        -48.4533  -28.5202   10.7988 C.3       14 UNK        -0.0898 
      7 S7        -50.0027  -27.5819   10.9699 S.3       14 UNK        -0.2598 
      8 C8        -51.1243  -28.6225    9.9829 C.3       14 UNK         0.0286 
      9 C9        -52.3534  -27.8360    9.5672 C.ar      14 UNK        -0.0844 
     10 C10       -52.2706  -26.9447    8.4950 C.ar      14 UNK        -0.0881 
     11 C11       -53.3707  -26.1632    8.1308 C.ar      14 UNK        -0.0643 
     12 C12       -54.5757  -26.3171    8.8241 C.ar      14 UNK        -0.0930 
     13 C13       -54.6833  -27.2358    9.8737 C.ar      14 UNK        -0.0827 
     14 C14       -53.5648  -27.9876   10.2467 C.ar      14 UNK        -0.1249 
     15 C15       -56.0181  -27.4434   10.5745 C.3       14 UNK         0.0141 
     16 S16       -55.9774  -26.9243   12.3180 S.3       14 UNK        -0.2313 
     17 C17       -57.7120  -27.2649   12.7710 C.3       14 UNK        -0.0915 
     18 CA        -57.9365  -27.4614   14.2934 C.3       13 UNK         0.0968 
     19 C         -59.4511  -27.6671   14.5905 C.2       13 UNK         0.5732 
     20 N         -59.8998  -28.8600   14.9638 N.am      13 UNK        -0.7310 
     21 O         -60.2312  -26.7242   14.4799 O.2       13 UNK        -0.5035 
     22 N         -57.0498  -28.4992   14.8413 N.am      13 UNK        -0.4233 
     23 C         -56.8361  -28.7389   16.1410 C.2       13 UNK         0.4989 
     24 O         -57.3748  -28.1015   17.0470 O.2       13 UNK        -0.4996 
     25 CA        -55.8273  -29.8436   16.5101 C.3       12 UNK         0.0216 
     26 CB        -56.4634  -30.9361   17.3952 C.3       12 UNK        -0.1964 
     27 N         -55.0983  -30.4117   15.3652 N.am      12 UNK        -0.4276 
     28 C         -55.5358  -31.2564   14.4171 C.2       12 UNK         0.5020 
     29 O         -56.6800  -31.7093   14.3892 O.2       12 UNK        -0.5489 
     30 CA        -54.5676  -31.6202   13.2697 C.3       11 UNK         0.0294 
     31 CB        -55.2068  -31.3179   11.9032 C.3       11 UNK        -0.2019 
     32 N         -53.2849  -30.9157   13.3458 N.am      11 UNK        -0.4493 
     33 C         -52.2352  -31.2906   14.0886 C.2       11 UNK         0.4932 
     34 O         -52.1937  -32.3372   14.7347 O.2       11 UNK        -0.5029 
     35 CA        -51.0422  -30.3150   14.1517 C.3       10 UNK         0.0280 
     36 CB        -49.9116  -30.7895   13.2271 C.3       10 UNK        -0.1976 
     37 N         -51.3748  -28.9135   13.8487 N.am      10 UNK        -0.4242 
     38 C         -52.2342  -28.1642   14.5563 C.2       10 UNK         0.5072 
     39 O         -52.8904  -28.6032   15.5022 O.2       10 UNK        -0.5224 
     40 CA        -52.3841  -26.6908   14.1322 C.3       9 UNK         0.0343 
     41 CB        -53.3487  -25.9054   15.0444 C.3       9 UNK        -0.2003 
     42 N         -51.1080  -25.9749   14.0209 N.am      9 UNK        -0.4272 
     43 C         -50.1177  -25.9022   14.9282 C.2       9 UNK         0.4988 
     44 O         -50.1173  -26.4945   16.0077 O.2       9 UNK        -0.5108 
     45 CA        -48.9144  -25.0030   14.5843 C.3       8 UNK         0.0248 
     46 CB        -47.7959  -25.8234   13.9225 C.3       8 UNK        -0.2001 
     47 N         -49.2593  -23.8745   13.7180 N.am      8 UNK        -0.4140 
     48 C         -50.0518  -22.8507   14.0673 C.2       8 UNK         0.5028 
     49 O         -50.4790  -22.6740   15.2089 O.2       8 UNK        -0.5428 
     50 CA        -50.4554  -21.8629   12.9551 C.3       7 UNK         0.0264 
     51 CB        -49.6141  -20.5793   13.0469 C.3       7 UNK        -0.1988 
     52 N         -50.3584  -22.3955   11.5903 N.am      7 UNK        -0.4454 
     53 C         -50.9970  -23.4695   11.1040 C.2       7 UNK         0.5027 
     54 O         -51.7453  -24.1705   11.7841 O.2       7 UNK        -0.5083 
     55 CA        -50.7351  -23.8686    9.6366 C.3       6 UNK         0.0844 
     56 C56       -51.8848  -23.3804    8.7134 C.3       14 UNK        -0.0967 
     57 S57       -51.7759  -24.1137    7.0440 S.3       14 UNK        -0.2604 
     58 C58       -53.2733  -25.1591    6.9851 C.3       14 UNK         0.0134 
     59 N         -49.3889  -23.5269    9.1478 N.am      6 UNK        -0.4116 
     60 C         -48.8961  -22.3108    8.8678 C.2       5 UNK         0.5034 
     61 O         -49.4956  -21.2593    9.0927 O.2       5 UNK        -0.5045 
     62 CA        -47.4842  -22.2468    8.2696 C.3       5 UNK         0.0224 
     63 CB        -46.4495  -21.9884    9.3740 C.3       5 UNK        -0.1978 
     64 N         -47.1373  -23.4699    7.5427 N.am      5 UNK        -0.4737 
     65 C         -47.5422  -23.7392    6.2940 C.2       4 UNK         0.5027 
     66 O         -48.1865  -22.9452    5.6065 O.2       4 UNK        -0.5211 
     67 CA        -47.1774  -25.1261    5.7257 C.3       4 UNK         0.0297 
     68 CB        -47.2420  -25.1785    4.1847 C.3       4 UNK        -0.1993 
     69 N         -45.8914  -25.6435    6.2069 N.am      4 UNK        -0.4486 
     70 C         -44.6788  -25.0858    6.0717 C.2       3 UNK         0.4961 
     71 O         -44.4620  -24.0282    5.4773 O.2       3 UNK        -0.5105 
     72 CA        -43.5203  -25.8576    6.7325 C.3       3 UNK         0.0299 
     73 CB        -42.1638  -25.1258    6.6380 C.3       3 UNK        -0.1972 
     74 N         -43.8291  -26.2312    8.1193 N.am      3 UNK        -0.4305 
     75 C         -44.0689  -25.4075    9.1523 C.2       2 UNK         0.5006 
     76 O         -43.9985  -24.1804    9.0904 O.2       2 UNK        -0.5106 
     77 CA        -44.4745  -26.0944   10.4716 C.3       2 UNK         0.0296 
     78 CB        -44.8175  -25.1084   11.6078 C.3       2 UNK        -0.2002 
     79 N         -45.5521  -27.0731   10.2818 N.am      2 UNK        -0.4032 
     80 C         -46.7832  -26.8513    9.7891 C.2       1 UNK         0.5000 
     81 O         -47.2266  -25.7407    9.4829 O.2       1 UNK        -0.5238 
     82 H82       -45.8307  -30.9267    6.5545 H         1 UNK         0.0889 
     83 H83       -45.6142  -31.3382    8.2570 H         1 UNK         0.0889 
     84 H84       -44.3889  -30.3848    7.4169 H         1 UNK         0.0889 
     85 H85       -46.8958  -30.0886    9.5891 H         1 UNK         0.3028 
     86 H86       -48.3450  -27.8526    8.7452 H         1 UNK         0.0864 
     87 H87       -48.7166  -29.5776   10.7512 H         1 UNK         0.0720 
     88 H88       -47.8644  -28.4092   11.7114 H         1 UNK         0.0720 
     89 H89       -51.4070  -29.5070   10.5545 H         1 UNK         0.0814 
     90 H90       -50.6098  -28.9830    9.0907 H         1 UNK         0.0814 
     91 H91       -51.3352  -26.8342    7.9638 H         1 UNK         0.1469 
     92 H92       -55.4367  -25.7290    8.5370 H         1 UNK         0.1381 
     93 H93       -53.6412  -28.6881   11.0652 H         1 UNK         0.1206 
     94 H94       -56.8083  -26.8906   10.0639 H         1 UNK         0.0813 
     95 H95       -56.2944  -28.4960   10.5095 H         1 UNK         0.0813 
     96 H96       -58.0475  -28.1528   12.2313 H         1 UNK         0.0638 
     97 H97       -58.3163  -26.4348   12.4001 H         1 UNK         0.0638 
     98 H98       -57.6606  -26.5272   14.7862 H         1 UNK         0.0568 
     99 H99       -60.8815  -28.9807   15.1562 H         1 UNK         0.3450 
    100 H100      -59.2664  -29.6387   15.0521 H         1 UNK         0.3450 
    101 H101      -56.5757  -29.0770   14.1655 H         1 UNK         0.2987 
    102 H102      -55.0642  -29.3484   17.1126 H         1 UNK         0.0766 
    103 H103      -56.8456  -30.5095   18.3234 H         1 UNK         0.0798 
    104 H104      -55.7358  -31.7008   17.6670 H         1 UNK         0.0798 
    105 H105      -57.3015  -31.4281   16.9013 H         1 UNK         0.0798 
    106 H106      -54.1562  -30.0388   15.2703 H         1 UNK         0.3198 
    107 H107      -54.3864  -32.6955   13.3306 H         1 UNK         0.0843 
    108 H108      -55.4700  -30.2651   11.8089 H         1 UNK         0.0831 
    109 H109      -56.1217  -31.8948   11.7614 H         1 UNK         0.0831 
    110 H110      -54.5366  -31.5740   11.0823 H         1 UNK         0.0831 
    111 H111      -53.2212  -30.0362   12.8567 H         1 UNK         0.3133 
    112 H112      -50.6673  -30.3374   15.1771 H         1 UNK         0.0566 
    113 H113      -49.5930  -31.7992   13.4902 H         1 UNK         0.0814 
    114 H114      -49.0352  -30.1465   13.3072 H         1 UNK         0.0814 
    115 H115      -50.2260  -30.8135   12.1842 H         1 UNK         0.0814 
    116 H116      -50.8675  -28.4728   13.0919 H         1 UNK         0.3091 
    117 H117      -52.8155  -26.7020   13.1297 H         1 UNK         0.0702 
    118 H118      -53.4871  -24.8857   14.6846 H         1 UNK         0.0785 
    119 H119      -52.9808  -25.8535   16.0697 H         1 UNK         0.0785 
    120 H120      -54.3333  -26.3747   15.0713 H         1 UNK         0.0785 
    121 H121      -51.0219  -25.4160   13.1775 H         1 UNK         0.2998 
    122 H122      -48.5309  -24.5994   15.5238 H         1 UNK         0.0697 
    123 H123      -48.0827  -26.1786   12.9326 H         1 UNK         0.0825 
    124 H124      -47.5402  -26.6974   14.5234 H         1 UNK         0.0825 
    125 H125      -46.8895  -25.2286   13.8178 H         1 UNK         0.0825 
    126 H126      -48.9448  -23.9210   12.7604 H         1 UNK         0.3029 
    127 H127      -51.5020  -21.6026   13.1268 H         1 UNK         0.0897 
    128 H128      -48.5588  -20.7744   12.8514 H         1 UNK         0.0792 
    129 H129      -49.6854  -20.1344   14.0405 H         1 UNK         0.0792 
    130 H130      -49.9548  -19.8287   12.3332 H         1 UNK         0.0792 
    131 H131      -49.8236  -21.8472   10.9239 H         1 UNK         0.3086 
    132 H132      -50.7546  -24.9578    9.6361 H         1 UNK         0.0583 
    133 H133      -52.8556  -23.6276    9.1480 H         1 UNK         0.1020 
    134 H134      -51.8766  -22.2937    8.6174 H         1 UNK         0.1020 
    135 H135      -54.1465  -24.5049    6.9728 H         1 UNK         0.0694 
    136 H136      -53.2830  -25.7042    6.0405 H         1 UNK         0.0694 
    137 H137      -48.7691  -24.3172    9.0073 H         1 UNK         0.2989 
    138 H138      -47.4596  -21.4027    7.5765 H         1 UNK         0.1055 
    139 H139      -46.4163  -22.8064   10.0926 H         1 UNK         0.0806 
    140 H140      -46.6821  -21.0763    9.9255 H         1 UNK         0.0806 
    141 H141      -45.4495  -21.8676    8.9572 H         1 UNK         0.0806 
    142 H142      -46.6424  -24.1877    8.0604 H         1 UNK         0.3061 
    143 H143      -47.9350  -25.8114    6.1091 H         1 UNK         0.0734 
    144 H144      -46.5460  -24.4745    3.7275 H         1 UNK         0.0832 
    145 H145      -47.0066  -26.1751    3.8113 H         1 UNK         0.0832 
    146 H146      -48.2410  -24.9277    3.8257 H         1 UNK         0.0832 
    147 H147      -45.9418  -26.5484    6.6763 H         1 UNK         0.3156 
    148 H148      -43.4249  -26.7933    6.1792 H         1 UNK         0.0589 
    149 H149      -41.3652  -25.7086    7.0967 H         1 UNK         0.0808 
    150 H150      -41.8851  -24.9576    5.5971 H         1 UNK         0.0808 
    151 H151      -42.1912  -24.1510    7.1260 H         1 UNK         0.0808 
    152 H152      -43.9513  -27.2216    8.2760 H         1 UNK         0.3098 
    153 H153      -43.5963  -26.6576   10.7913 H         1 UNK         0.0720 
    154 H154      -44.0285  -24.3673   11.7410 H         1 UNK         0.0791 
    155 H155      -44.9236  -25.6345   12.5557 H         1 UNK         0.0791 
    156 H156      -45.7449  -24.5700   11.4184 H         1 UNK         0.0791 
    157 H157      -45.3062  -28.0323   10.4831 H         1 UNK         0.3028 
@<TRIPOS>BOND
     1    1    2 1    
     2    1   82 1    
     3    1   83 1    
     4    1   84 1    
     5    2    3 2    
     6    2    4 am   BACKBONE|DICT|INTERRES
     7    4    5 1    
     8    4   85 1    
     9    5    6 1    
    10    5   80 1    
    11    5   86 1    
    12    6    7 1    
    13    6   87 1    
    14    6   88 1    
    15    7    8 1    
    16    8    9 1    
    17    8   89 1    
    18    8   90 1    
    19    9   10 ar   
    20    9   14 ar   
    21   10   11 ar   
    22   10   91 1    
    23   11   12 ar   
    24   11   58 1    
    25   12   13 ar   
    26   12   92 1    
    27   13   14 ar   
    28   13   15 1    
    29   14   93 1    
    30   15   16 1    
    31   15   94 1    
    32   15   95 1    
    33   16   17 1    
    34   17   18 1    
    35   17   96 1    
    36   17   97 1    
    37   18   19 1    
    38   18   22 1    
    39   18   98 1    
    40   19   20 am   BACKBONE|DICT|INTERRES
    41   19   21 2    
    42   20   99 1    
    43   20  100 1    
    44   22   23 am   BACKBONE|DICT|INTERRES
    45   22  101 1    
    46   23   24 2    
    47   23   25 1    
    48   25   26 1    
    49   25   27 1    
    50   25  102 1    
    51   26  103 1    
    52   26  104 1    
    53   26  105 1    
    54   27   28 am   BACKBONE|DICT|INTERRES
    55   27  106 1    
    56   28   29 2    
    57   28   30 1    
    58   30   31 1    
    59   30   32 1    
    60   30  107 1    
    61   31  108 1    
    62   31  109 1    
    63   31  110 1    
    64   32   33 am   BACKBONE|DICT|INTERRES
    65   32  111 1    
    66   33   34 2    
    67   33   35 1    
    68   35   36 1    
    69   35   37 1    
    70   35  112 1    
    71   36  113 1    
    72   36  114 1    
    73   36  115 1    
    74   37   38 am   BACKBONE|DICT|INTERRES
    75   37  116 1    
    76   38   39 2    
    77   38   40 1    
    78   40   41 1    
    79   40   42 1    
    80   40  117 1    
    81   41  118 1    
    82   41  119 1    
    83   41  120 1    
    84   42   43 am   BACKBONE|DICT|INTERRES
    85   42  121 1    
    86   43   44 2    
    87   43   45 1    
    88   45   46 1    
    89   45   47 1    
    90   45  122 1    
    91   46  123 1    
    92   46  124 1    
    93   46  125 1    
    94   47   48 am   BACKBONE|DICT|INTERRES
    95   47  126 1    
    96   48   49 2    
    97   48   50 1    
    98   50   51 1    
    99   50   52 1    
   100   50  127 1    
   101   51  128 1    
   102   51  129 1    
   103   51  130 1    
   104   52   53 am   BACKBONE|DICT|INTERRES
   105   52  131 1    
   106   53   54 2    
   107   53   55 1    
   108   55   56 1    
   109   55   59 1    
   110   55  132 1    
   111   56   57 1    
   112   56  133 1    
   113   56  134 1    
   114   57   58 1    
   115   58  135 1    
   116   58  136 1    
   117   59   60 am   BACKBONE|DICT|INTERRES
   118   59  137 1    
   119   60   61 2    
   120   60   62 1    
   121   62   63 1    
   122   62   64 1    
   123   62  138 1    
   124   63  139 1    
   125   63  140 1    
   126   63  141 1    
   127   64   65 am   BACKBONE|DICT|INTERRES
   128   64  142 1    
   129   65   66 2    
   130   65   67 1    
   131   67   68 1    
   132   67   69 1    
   133   67  143 1    
   134   68  144 1    
   135   68  145 1    
   136   68  146 1    
   137   69   70 am   BACKBONE|DICT|INTERRES
   138   69  147 1    
   139   70   71 2    
   140   70   72 1    
   141   72   73 1    
   142   72   74 1    
   143   72  148 1    
   144   73  149 1    
   145   73  150 1    
   146   73  151 1    
   147   74   75 am   BACKBONE|DICT|INTERRES
   148   74  152 1    
   149   75   76 2    
   150   75   77 1    
   151   77   78 1    
   152   77   79 1    
   153   77  153 1    
   154   78  154 1    
   155   78  155 1    
   156   78  156 1    
   157   79   80 am   BACKBONE|DICT|INTERRES
   158   79  157 1    
   159   80   81 2    
@<TRIPOS>SUBSTRUCTURE
     1 UNK         1 GROUP             0       ****    0 ROOT    
