@<TRIPOS>MOLECULE
3R207
157   159    1
SMALL
USER_CHARGES


@<TRIPOS>ATOM
      1 CA        -45.2313  -26.6980   11.3283 C.3       0 UNK        -0.1975 
      2 C         -46.3326  -27.2870   10.4599 C.2       0 UNK         0.4852 
      3 O         -47.5081  -27.1259   10.7840 O.2       0 UNK        -0.5216 
      4 N         -45.9382  -27.9531    9.3659 N.am      1 UNK        -0.4461 
      5 CA        -46.7619  -28.6032    8.3355 C.3       1 UNK         0.0864 
      6 C6        -47.5099  -29.8771    8.8431 C.3       14 UNK        -0.0898 
      7 S7        -49.1687  -29.6302    9.5725 S.3       14 UNK        -0.2598 
      8 C8        -50.2510  -30.5202    8.4112 C.3       14 UNK         0.0286 
      9 C9        -51.6305  -29.8841    8.3789 C.ar      14 UNK        -0.0844 
     10 C10       -51.8509  -28.7719    7.5667 C.ar      14 UNK        -0.0881 
     11 C11       -53.0868  -28.1233    7.5552 C.ar      14 UNK        -0.0643 
     12 C12       -54.1373  -28.6510    8.3145 C.ar      14 UNK        -0.0930 
     13 C13       -53.9383  -29.7769    9.1229 C.ar      14 UNK        -0.0827 
     14 C14       -52.6768  -30.3821    9.1600 C.ar      14 UNK        -0.1249 
     15 C15       -55.0858  -30.3601    9.9391 C.3       14 UNK         0.0141 
     16 S16       -55.3145  -29.5093   11.5358 S.3       14 UNK        -0.2313 
     17 C17       -56.3568  -28.0849   11.0632 C.3       14 UNK        -0.0915 
     18 CA        -55.5470  -26.7596   11.0027 C.3       13 UNK         0.0968 
     19 C         -56.2870  -25.6055   10.2615 C.2       13 UNK         0.5732 
     20 N         -56.0439  -24.3440   10.5964 N.am      13 UNK        -0.7310 
     21 O         -57.0609  -25.8483    9.3386 O.2       13 UNK        -0.5035 
     22 N         -54.9483  -26.3949   12.2957 N.am      13 UNK        -0.4233 
     23 C         -55.5950  -25.9985   13.3978 C.2       13 UNK         0.4989 
     24 O         -56.8168  -25.8521   13.4708 O.2       13 UNK        -0.4996 
     25 CA        -54.7024  -25.7282   14.6228 C.3       12 UNK         0.0216 
     26 CB        -55.3908  -24.8612   15.6979 C.3       12 UNK        -0.1964 
     27 N         -54.1744  -26.9688   15.2040 N.am      12 UNK        -0.4276 
     28 C         -54.8769  -27.9993   15.7033 C.2       12 UNK         0.5020 
     29 O         -56.1052  -28.0206   15.7895 O.2       12 UNK        -0.5489 
     30 CA        -54.0985  -29.2227   16.2117 C.3       11 UNK         0.0294 
     31 CB        -54.0662  -30.3288   15.1420 C.3       11 UNK        -0.2019 
     32 N         -52.7312  -28.9101   16.6397 N.am      11 UNK        -0.4493 
     33 C         -52.1172  -29.4802   17.6837 C.2       11 UNK         0.4932 
     34 O         -52.6576  -30.2920   18.4361 O.2       11 UNK        -0.5029 
     35 CA        -50.6489  -29.1072   17.9332 C.3       10 UNK         0.0280 
     36 CB        -49.7239  -29.9282   17.0191 C.3       10 UNK        -0.1976 
     37 N         -50.3787  -27.6803   17.7324 N.am      10 UNK        -0.4242 
     38 C         -50.0269  -26.8306   18.7084 C.2       10 UNK         0.5072 
     39 O         -50.0091  -27.1358   19.9023 O.2       10 UNK        -0.5224 
     40 CA        -49.5729  -25.4123   18.3115 C.3       9 UNK         0.0343 
     41 CB        -48.0886  -25.2091   18.6643 C.3       9 UNK        -0.2003 
     42 N         -49.7510  -25.1191   16.8876 N.am      9 UNK        -0.4272 
     43 C         -50.8066  -24.4779   16.3718 C.2       9 UNK         0.4988 
     44 O         -51.7551  -24.0631   17.0381 O.2       9 UNK        -0.5108 
     45 CA        -50.8117  -24.2701   14.8465 C.3       8 UNK         0.0248 
     46 CB        -50.0394  -22.9917   14.4828 C.3       8 UNK        -0.2001 
     47 N         -50.3028  -25.3912   14.0427 N.am      8 UNK        -0.4140 
     48 C         -50.6723  -26.6768   14.1423 C.2       8 UNK         0.5028 
     49 O         -51.3864  -27.1135   15.0480 O.2       8 UNK        -0.5428 
     50 CA        -50.1832  -27.6332   13.0380 C.3       7 UNK         0.0264 
     51 CB        -51.0113  -28.9367   12.9846 C.3       7 UNK        -0.1988 
     52 N         -50.1375  -27.0175   11.7064 N.am      7 UNK        -0.4454 
     53 C         -51.1629  -26.4601   11.0431 C.2       7 UNK         0.5027 
     54 O         -52.2777  -26.2904   11.5393 O.2       7 UNK        -0.5083 
     55 CA        -50.8765  -26.0063    9.5943 C.3       6 UNK         0.0844 
     56 C56       -52.1185  -25.3929    8.8799 C.3       14 UNK        -0.0967 
     57 S57       -52.0157  -25.5656    7.0670 S.3       14 UNK        -0.2604 
     58 C58       -53.2818  -26.8495    6.7352 C.3       14 UNK         0.0134 
     59 N         -49.6747  -25.1655    9.5254 N.am      6 UNK        -0.4116 
     60 C         -49.5057  -23.9837   10.1378 C.2       5 UNK         0.5034 
     61 O         -50.3950  -23.4091   10.7657 O.2       5 UNK        -0.5045 
     62 CA        -48.1203  -23.3236   10.0898 C.3       5 UNK         0.0224 
     63 CB        -47.3814  -23.5484   11.4248 C.3       5 UNK        -0.1978 
     64 N         -47.2932  -23.7445    8.9516 N.am      5 UNK        -0.4737 
     65 C         -46.2635  -23.0257    8.4817 C.2       4 UNK         0.5027 
     66 O         -45.8737  -21.9723    8.9870 O.2       4 UNK        -0.5211 
     67 CA        -45.5601  -23.5491    7.2201 C.3       4 UNK         0.0297 
     68 CB        -44.6480  -24.7417    7.5496 C.3       4 UNK        -0.1993 
     69 N         -46.5071  -23.9206    6.1693 N.am      4 UNK        -0.4486 
     70 C         -47.2735  -23.0663    5.4776 C.2       3 UNK         0.4961 
     71 O         -47.2253  -21.8442    5.6201 O.2       3 UNK        -0.5105 
     72 CA        -48.2778  -23.6506    4.4621 C.3       3 UNK         0.0299 
     73 CB        -47.7087  -23.6095    3.0299 C.3       3 UNK        -0.1972 
     74 N         -48.7964  -24.9839    4.8047 N.am      3 UNK        -0.4305 
     75 C         -48.1404  -26.1514    4.8422 C.2       2 UNK         0.5006 
     76 O         -46.9603  -26.3007    4.5191 O.2       2 UNK        -0.5106 
     77 CA        -48.9263  -27.3449    5.4014 C.3       2 UNK         0.0296 
     78 CB        -49.4014  -28.2717    4.2718 C.3       2 UNK        -0.2002 
     79 N         -48.1443  -28.1136    6.3737 N.am      2 UNK        -0.4032 
     80 C         -47.6264  -27.6193    7.5088 C.2       1 UNK         0.5000 
     81 O         -47.7900  -26.4486    7.8748 O.2       1 UNK        -0.5238 
     82 H82       -45.0765  -25.6493   11.0767 H         1 UNK         0.0889 
     83 H83       -44.2870  -27.2255   11.1949 H         1 UNK         0.0889 
     84 H84       -45.5054  -26.7615   12.3811 H         1 UNK         0.0889 
     85 H85       -44.9455  -28.0060    9.1867 H         1 UNK         0.3028 
     86 H86       -46.0144  -28.9609    7.6253 H         1 UNK         0.0864 
     87 H87       -47.5956  -30.5909    8.0230 H         1 UNK         0.0720 
     88 H88       -46.8978  -30.3889    9.5872 H         1 UNK         0.0720 
     89 H89       -50.3140  -31.5690    8.7048 H         1 UNK         0.0814 
     90 H90       -49.8268  -30.5043    7.4064 H         1 UNK         0.0814 
     91 H91       -51.0391  -28.3842    6.9744 H         1 UNK         0.1469 
     92 H92       -55.1087  -28.1772    8.2882 H         1 UNK         0.1381 
     93 H93       -52.5101  -31.2432    9.7928 H         1 UNK         0.1206 
     94 H94       -54.8918  -31.4144   10.1420 H         1 UNK         0.0813 
     95 H95       -56.0107  -30.3386    9.3613 H         1 UNK         0.0813 
     96 H96       -57.1732  -28.0006   11.7816 H         1 UNK         0.0638 
     97 H97       -56.8285  -28.3027   10.1044 H         1 UNK         0.0638 
     98 H98       -54.6883  -26.9531   10.3650 H         1 UNK         0.0568 
     99 H99       -56.5168  -23.6036   10.1032 H         1 UNK         0.3450 
    100 H100      -55.4006  -24.1269   11.3397 H         1 UNK         0.3450 
    101 H101      -53.9307  -26.4336   12.2963 H         1 UNK         0.2987 
    102 H102      -53.8412  -25.1684   14.2594 H         1 UNK         0.0766 
    103 H103      -55.7252  -23.9127   15.2761 H         1 UNK         0.0798 
    104 H104      -54.7062  -24.6300   16.5144 H         1 UNK         0.0798 
    105 H105      -56.2662  -25.3530   16.1231 H         1 UNK         0.0798 
    106 H106      -53.1618  -27.0573   15.1523 H         1 UNK         0.3198 
    107 H107      -54.6634  -29.5980   17.0681 H         1 UNK         0.0843 
    108 H108      -53.5144  -30.0160   14.2559 H         1 UNK         0.0831 
    109 H109      -55.0751  -30.5893   14.8189 H         1 UNK         0.0831 
    110 H110      -53.6030  -31.2387   15.5236 H         1 UNK         0.0831 
    111 H111      -52.2057  -28.2529   16.0656 H         1 UNK         0.3133 
    112 H112      -50.4212  -29.3949   18.9617 H         1 UNK         0.0566 
    113 H113      -48.6763  -29.7694   17.2754 H         1 UNK         0.0814 
    114 H114      -49.8522  -29.6663   15.9694 H         1 UNK         0.0814 
    115 H115      -49.9218  -30.9966   17.1172 H         1 UNK         0.0814 
    116 H116      -50.4638  -27.3267   16.7858 H         1 UNK         0.3091 
    117 H117      -50.1570  -24.7102   18.9103 H         1 UNK         0.0702 
    118 H118      -47.7624  -24.1942   18.4357 H         1 UNK         0.0785 
    119 H119      -47.4447  -25.9003   18.1191 H         1 UNK         0.0785 
    120 H120      -47.9119  -25.3702   19.7288 H         1 UNK         0.0785 
    121 H121      -49.0182  -25.4226   16.2625 H         1 UNK         0.2998 
    122 H122      -51.8499  -24.1191   14.5507 H         1 UNK         0.0697 
    123 H123      -48.9712  -23.0944   14.6770 H         1 UNK         0.0825 
    124 H124      -50.3958  -22.1398   15.0640 H         1 UNK         0.0825 
    125 H125      -50.1694  -22.7356   13.4314 H         1 UNK         0.0825 
    126 H126      -49.7315  -25.1415   13.2488 H         1 UNK         0.3029 
    127 H127      -49.1558  -27.8982   13.2916 H         1 UNK         0.0897 
    128 H128      -52.0587  -28.7401   12.7525 H         1 UNK         0.0792 
    129 H129      -50.9833  -29.4698   13.9342 H         1 UNK         0.0792 
    130 H130      -50.6282  -29.6179   12.2255 H         1 UNK         0.0792 
    131 H131      -49.2330  -27.0846   11.2336 H         1 UNK         0.3086 
    132 H132      -50.6069  -26.9241    9.0742 H         1 UNK         0.0583 
    133 H133      -53.0422  -25.8725    9.1999 H         1 UNK         0.1020 
    134 H134      -52.2421  -24.3398    9.1341 H         1 UNK         0.1020 
    135 H135      -54.2667  -26.4193    6.9243 H         1 UNK         0.0694 
    136 H136      -53.2548  -27.1047    5.6752 H         1 UNK         0.0694 
    137 H137      -48.8863  -25.6064    9.0579 H         1 UNK         0.2989 
    138 H138      -48.3056  -22.2520    9.9830 H         1 UNK         0.1055 
    139 H139      -47.9492  -23.1300   12.2559 H         1 UNK         0.0806 
    140 H140      -46.4030  -23.0688   11.4374 H         1 UNK         0.0806 
    141 H141      -47.2402  -24.6073   11.6334 H         1 UNK         0.0806 
    142 H142      -47.5370  -24.6096    8.4770 H         1 UNK         0.3061 
    143 H143      -44.9318  -22.7441    6.8324 H         1 UNK         0.0734 
    144 H144      -43.9250  -24.4771    8.3224 H         1 UNK         0.0832 
    145 H145      -45.2149  -25.5970    7.9141 H         1 UNK         0.0832 
    146 H146      -44.0836  -25.0628    6.6740 H         1 UNK         0.0832 
    147 H147      -46.5907  -24.9063    5.9466 H         1 UNK         0.3156 
    148 H148      -49.1478  -22.9922    4.4829 H         1 UNK         0.0589 
    149 H149      -48.4342  -23.9750    2.3033 H         1 UNK         0.0808 
    150 H150      -47.4514  -22.5884    2.7453 H         1 UNK         0.0808 
    151 H151      -46.8024  -24.2074    2.9307 H         1 UNK         0.0808 
    152 H152      -49.7538  -24.9846    5.1316 H         1 UNK         0.3098 
    153 H153      -49.7991  -26.9539    5.9202 H         1 UNK         0.0720 
    154 H154      -50.0107  -27.7261    3.5499 H         1 UNK         0.0791 
    155 H155      -50.0124  -29.0887    4.6563 H         1 UNK         0.0791 
    156 H156      -48.5618  -28.7058    3.7272 H         1 UNK         0.0791 
    157 H157      -47.9270  -29.0647    6.1164 H         1 UNK         0.3028 
@<TRIPOS>BOND
     1    1    2 1    
     2    1   82 1    
     3    1   83 1    
     4    1   84 1    
     5    2    3 2    
     6    2    4 am   BACKBONE|DICT|INTERRES
     7    4    5 1    
     8    4   85 1    
     9    5    6 1    
    10    5   80 1    
    11    5   86 1    
    12    6    7 1    
    13    6   87 1    
    14    6   88 1    
    15    7    8 1    
    16    8    9 1    
    17    8   89 1    
    18    8   90 1    
    19    9   10 ar   
    20    9   14 ar   
    21   10   11 ar   
    22   10   91 1    
    23   11   12 ar   
    24   11   58 1    
    25   12   13 ar   
    26   12   92 1    
    27   13   14 ar   
    28   13   15 1    
    29   14   93 1    
    30   15   16 1    
    31   15   94 1    
    32   15   95 1    
    33   16   17 1    
    34   17   18 1    
    35   17   96 1    
    36   17   97 1    
    37   18   19 1    
    38   18   22 1    
    39   18   98 1    
    40   19   20 am   BACKBONE|DICT|INTERRES
    41   19   21 2    
    42   20   99 1    
    43   20  100 1    
    44   22   23 am   BACKBONE|DICT|INTERRES
    45   22  101 1    
    46   23   24 2    
    47   23   25 1    
    48   25   26 1    
    49   25   27 1    
    50   25  102 1    
    51   26  103 1    
    52   26  104 1    
    53   26  105 1    
    54   27   28 am   BACKBONE|DICT|INTERRES
    55   27  106 1    
    56   28   29 2    
    57   28   30 1    
    58   30   31 1    
    59   30   32 1    
    60   30  107 1    
    61   31  108 1    
    62   31  109 1    
    63   31  110 1    
    64   32   33 am   BACKBONE|DICT|INTERRES
    65   32  111 1    
    66   33   34 2    
    67   33   35 1    
    68   35   36 1    
    69   35   37 1    
    70   35  112 1    
    71   36  113 1    
    72   36  114 1    
    73   36  115 1    
    74   37   38 am   BACKBONE|DICT|INTERRES
    75   37  116 1    
    76   38   39 2    
    77   38   40 1    
    78   40   41 1    
    79   40   42 1    
    80   40  117 1    
    81   41  118 1    
    82   41  119 1    
    83   41  120 1    
    84   42   43 am   BACKBONE|DICT|INTERRES
    85   42  121 1    
    86   43   44 2    
    87   43   45 1    
    88   45   46 1    
    89   45   47 1    
    90   45  122 1    
    91   46  123 1    
    92   46  124 1    
    93   46  125 1    
    94   47   48 am   BACKBONE|DICT|INTERRES
    95   47  126 1    
    96   48   49 2    
    97   48   50 1    
    98   50   51 1    
    99   50   52 1    
   100   50  127 1    
   101   51  128 1    
   102   51  129 1    
   103   51  130 1    
   104   52   53 am   BACKBONE|DICT|INTERRES
   105   52  131 1    
   106   53   54 2    
   107   53   55 1    
   108   55   56 1    
   109   55   59 1    
   110   55  132 1    
   111   56   57 1    
   112   56  133 1    
   113   56  134 1    
   114   57   58 1    
   115   58  135 1    
   116   58  136 1    
   117   59   60 am   BACKBONE|DICT|INTERRES
   118   59  137 1    
   119   60   61 2    
   120   60   62 1    
   121   62   63 1    
   122   62   64 1    
   123   62  138 1    
   124   63  139 1    
   125   63  140 1    
   126   63  141 1    
   127   64   65 am   BACKBONE|DICT|INTERRES
   128   64  142 1    
   129   65   66 2    
   130   65   67 1    
   131   67   68 1    
   132   67   69 1    
   133   67  143 1    
   134   68  144 1    
   135   68  145 1    
   136   68  146 1    
   137   69   70 am   BACKBONE|DICT|INTERRES
   138   69  147 1    
   139   70   71 2    
   140   70   72 1    
   141   72   73 1    
   142   72   74 1    
   143   72  148 1    
   144   73  149 1    
   145   73  150 1    
   146   73  151 1    
   147   74   75 am   BACKBONE|DICT|INTERRES
   148   74  152 1    
   149   75   76 2    
   150   75   77 1    
   151   77   78 1    
   152   77   79 1    
   153   77  153 1    
   154   78  154 1    
   155   78  155 1    
   156   78  156 1    
   157   79   80 am   BACKBONE|DICT|INTERRES
   158   79  157 1    
   159   80   81 2    
@<TRIPOS>SUBSTRUCTURE
     1 UNK         1 GROUP             0       ****    0 ROOT    
