@<TRIPOS>MOLECULE
3R207
157   159    1
SMALL
USER_CHARGES


@<TRIPOS>ATOM
      1 CA        -45.0586  -31.0913    4.4931 C.3       0 UNK        -0.1975 
      2 C         -46.2898  -30.2144    4.3191 C.2       0 UNK         0.4852 
      3 O         -46.5955  -29.8058    3.1983 O.2       0 UNK        -0.5216 
      4 N         -46.9975  -29.9252    5.4197 N.am      1 UNK        -0.4461 
      5 CA        -48.2115  -29.0987    5.4514 C.3       1 UNK         0.0864 
      6 C6        -48.9206  -29.1824    6.8256 C.3       14 UNK        -0.0898 
      7 S7        -49.6639  -30.8190    7.1176 S.3       14 UNK        -0.2598 
      8 C8        -51.3522  -30.5601    6.4824 C.3       14 UNK         0.0286 
      9 C9        -52.1989  -29.7095    7.4200 C.ar      14 UNK        -0.0844 
     10 C10       -52.3634  -28.3395    7.1857 C.ar      14 UNK        -0.0881 
     11 C11       -53.1536  -27.5620    8.0377 C.ar      14 UNK        -0.0643 
     12 C12       -53.8025  -28.1710    9.1158 C.ar      14 UNK        -0.0930 
     13 C13       -53.6492  -29.5391    9.3580 C.ar      14 UNK        -0.0827 
     14 C14       -52.8421  -30.3026    8.5103 C.ar      14 UNK        -0.1249 
     15 C15       -54.3706  -30.1880   10.5271 C.3       14 UNK         0.0141 
     16 S16       -53.5390  -29.8052   12.0972 S.3       14 UNK        -0.2313 
     17 C17       -54.5901  -30.6731   13.3134 C.3       14 UNK        -0.0915 
     18 CA        -56.0942  -30.2793   13.2958 C.3       13 UNK         0.0968 
     19 C         -56.8689  -31.0101   14.4316 C.2       13 UNK         0.5732 
     20 N         -57.4649  -30.3126   15.3916 N.am      13 UNK        -0.7310 
     21 O         -56.9350  -32.2371   14.4365 O.2       13 UNK        -0.5035 
     22 N         -56.2795  -28.8204   13.2560 N.am      13 UNK        -0.4233 
     23 C         -57.3898  -28.1847   12.8682 C.2       13 UNK         0.4989 
     24 O         -58.4126  -28.7632   12.4972 O.2       13 UNK        -0.4996 
     25 CA        -57.3451  -26.6427   12.9195 C.3       12 UNK         0.0216 
     26 CB        -58.6513  -25.9941   12.4223 C.3       12 UNK        -0.1964 
     27 N         -57.0459  -26.1391   14.2651 N.am      12 UNK        -0.4276 
     28 C         -55.8367  -26.1467   14.8382 C.2       12 UNK         0.5020 
     29 O         -54.8228  -26.5883   14.2884 O.2       12 UNK        -0.5489 
     30 CA        -55.7481  -25.6209   16.2742 C.3       11 UNK         0.0294 
     31 CB        -56.3084  -26.6585   17.2677 C.3       11 UNK        -0.2019 
     32 N         -54.3404  -25.3626   16.5493 N.am      11 UNK        -0.4493 
     33 C         -53.8230  -24.6918   17.5823 C.2       11 UNK         0.4932 
     34 O         -54.5100  -24.1609   18.4566 O.2       11 UNK        -0.5029 
     35 CA        -52.2852  -24.5641   17.6420 C.3       10 UNK         0.0280 
     36 CB        -51.7463  -24.6568   19.0852 C.3       10 UNK        -0.1976 
     37 N         -51.5535  -25.4795   16.7529 N.am      10 UNK        -0.4242 
     38 C         -51.5250  -26.8238   16.7959 C.2       10 UNK         0.5072 
     39 O         -52.1533  -27.4984   17.6124 O.2       10 UNK        -0.5224 
     40 CA        -50.6581  -27.5523   15.7490 C.3       9 UNK         0.0343 
     41 CB        -51.5381  -28.1126   14.6214 C.3       9 UNK        -0.2003 
     42 N         -49.6092  -26.7085   15.1712 N.am      9 UNK        -0.4272 
     43 C         -48.5349  -26.2747   15.8472 C.2       9 UNK         0.4988 
     44 O         -48.2628  -26.6360   16.9929 O.2       9 UNK        -0.5108 
     45 CA        -47.6147  -25.2495   15.1582 C.3       8 UNK         0.0248 
     46 CB        -46.3316  -25.9374   14.6641 C.3       8 UNK        -0.2001 
     47 N         -48.2284  -24.4989   14.0545 N.am      8 UNK        -0.4140 
     48 C         -49.3123  -23.7137   14.1531 C.2       8 UNK         0.5028 
     49 O         -49.9477  -23.5531   15.1962 O.2       8 UNK        -0.5428 
     50 CA        -49.7988  -23.0215   12.8680 C.3       7 UNK         0.0264 
     51 CB        -48.9973  -21.7365   12.6077 C.3       7 UNK        -0.1988 
     52 N         -49.7560  -23.8837   11.6823 N.am      7 UNK        -0.4454 
     53 C         -50.4636  -25.0164   11.5396 C.2       7 UNK         0.5027 
     54 O         -51.2248  -25.4515   12.4039 O.2       7 UNK        -0.5083 
     55 CA        -50.2467  -25.8264   10.2393 C.3       6 UNK         0.0844 
     56 C56       -50.9269  -25.1802    9.0043 C.3       14 UNK        -0.0967 
     57 S57       -52.7429  -25.0341    9.1453 S.3       14 UNK        -0.2604 
     58 C58       -53.3398  -26.0740    7.7728 C.3       14 UNK         0.0134 
     59 N         -48.8194  -26.0484    9.9970 N.am      6 UNK        -0.4116 
     60 C         -47.9818  -26.7019   10.8148 C.2       5 UNK         0.5034 
     61 O         -48.3329  -27.3091   11.8263 O.2       5 UNK        -0.5045 
     62 CA        -46.4854  -26.6171   10.4708 C.3       5 UNK         0.0224 
     63 CB        -46.0878  -27.6859    9.4402 C.3       5 UNK        -0.1978 
     64 N         -46.0999  -25.2890    9.9823 N.am      5 UNK        -0.4737 
     65 C         -46.0607  -24.1863   10.7435 C.2       4 UNK         0.5027 
     66 O         -46.3238  -24.1779   11.9436 O.2       4 UNK        -0.5211 
     67 CA        -45.7019  -22.8648   10.0442 C.3       4 UNK         0.0297 
     68 CB        -44.1783  -22.7264    9.8994 C.3       4 UNK        -0.1993 
     69 N         -46.3368  -22.7277    8.7321 N.am      4 UNK        -0.4486 
     70 C         -47.6589  -22.6205    8.5370 C.2       3 UNK         0.4961 
     71 O         -48.4864  -22.5797    9.4467 O.2       3 UNK        -0.5105 
     72 CA        -48.1429  -22.6222    7.0759 C.3       3 UNK         0.0299 
     73 CB        -48.0816  -21.2054    6.4842 C.3       3 UNK        -0.1972 
     74 N         -47.4026  -23.5535    6.2144 N.am      3 UNK        -0.4305 
     75 C         -47.3052  -24.8722    6.4321 C.2       2 UNK         0.5006 
     76 O         -47.8127  -25.4416    7.4018 O.2       2 UNK        -0.5106 
     77 CA        -46.4475  -25.6758    5.4382 C.3       2 UNK         0.0296 
     78 CB        -44.9542  -25.5080    5.7669 C.3       2 UNK        -0.2002 
     79 N         -46.7782  -27.1016    5.4778 N.am      2 UNK        -0.4032 
     80 C         -47.9529  -27.6212    5.0940 C.2       1 UNK         0.5000 
     81 O         -48.8267  -26.9817    4.5041 O.2       1 UNK        -0.5238 
     82 H82       -44.9074  -31.3817    5.5326 H         1 UNK         0.0889 
     83 H83       -45.1582  -31.9993    3.8989 H         1 UNK         0.0889 
     84 H84       -44.1688  -30.5596    4.1567 H         1 UNK         0.0889 
     85 H85       -46.7170  -30.3212    6.3058 H         1 UNK         0.3028 
     86 H86       -48.8910  -29.4841    4.6879 H         1 UNK         0.0864 
     87 H87       -48.2164  -28.9834    7.6340 H         1 UNK         0.0720 
     88 H88       -49.6898  -28.4174    6.9242 H         1 UNK         0.0720 
     89 H89       -51.8273  -31.5331    6.3482 H         1 UNK         0.0814 
     90 H90       -51.3059  -30.1098    5.4896 H         1 UNK         0.0814 
     91 H91       -51.8792  -27.8777    6.3360 H         1 UNK         0.1469 
     92 H92       -54.4225  -27.5761    9.7729 H         1 UNK         0.1381 
     93 H93       -52.7185  -31.3615    8.6935 H         1 UNK         0.1206 
     94 H94       -54.4245  -31.2701   10.3986 H         1 UNK         0.0813 
     95 H95       -55.3977  -29.8229   10.5507 H         1 UNK         0.0813 
     96 H96       -54.4779  -31.7459   13.1466 H         1 UNK         0.0638 
     97 H97       -54.1649  -30.4748   14.2990 H         1 UNK         0.0638 
     98 H98       -56.5229  -30.6749   12.3742 H         1 UNK         0.0568 
     99 H99       -57.9658  -30.8007   16.1170 H         1 UNK         0.3450 
    100 H100      -57.4273  -29.3073   15.3894 H         1 UNK         0.3450 
    101 H101      -55.4935  -28.2534   13.5632 H         1 UNK         0.2987 
    102 H102      -56.5449  -26.3274   12.2458 H         1 UNK         0.0766 
    103 H103      -58.5741  -24.9067   12.4078 H         1 UNK         0.0798 
    104 H104      -59.5018  -26.2626   13.0502 H         1 UNK         0.0798 
    105 H105      -58.8834  -26.3123   11.4049 H         1 UNK         0.0798 
    106 H106      -57.8313  -25.7914   14.7972 H         1 UNK         0.3198 
    107 H107      -56.3055  -24.6848   16.3473 H         1 UNK         0.0843 
    108 H108      -55.7546  -27.5974   17.2206 H         1 UNK         0.0831 
    109 H109      -57.3547  -26.8838   17.0587 H         1 UNK         0.0831 
    110 H110      -56.2607  -26.2967   18.2947 H         1 UNK         0.0831 
    111 H111      -53.7222  -25.7489   15.8442 H         1 UNK         0.3133 
    112 H112      -52.0591  -23.5621   17.2748 H         1 UNK         0.0566 
    113 H113      -50.6626  -24.5418   19.1115 H         1 UNK         0.0814 
    114 H114      -52.1687  -23.8719   19.7137 H         1 UNK         0.0814 
    115 H115      -51.9943  -25.6117   19.5494 H         1 UNK         0.0814 
    116 H116      -50.9876  -25.0125   16.0482 H         1 UNK         0.3091 
    117 H117      -50.1756  -28.3933   16.2513 H         1 UNK         0.0702 
    118 H118      -52.2839  -28.8040   15.0157 H         1 UNK         0.0785 
    119 H119      -52.0788  -27.3232   14.0981 H         1 UNK         0.0785 
    120 H120      -50.9474  -28.6577   13.8849 H         1 UNK         0.0785 
    121 H121      -49.7584  -26.3743   14.2275 H         1 UNK         0.2998 
    122 H122      -47.3335  -24.5195   15.9197 H         1 UNK         0.0697 
    123 H123      -46.5382  -26.6365   13.8536 H         1 UNK         0.0825 
    124 H124      -45.8525  -26.5002   15.4665 H         1 UNK         0.0825 
    125 H125      -45.6032  -25.2102   14.3055 H         1 UNK         0.0825 
    126 H126      -47.7266  -24.5172   13.1692 H         1 UNK         0.3029 
    127 H127      -50.8423  -22.7413   13.0267 H         1 UNK         0.0897 
    128 H128      -49.3971  -21.1859   11.7560 H         1 UNK         0.0792 
    129 H129      -47.9475  -21.9495   12.4042 H         1 UNK         0.0792 
    130 H130      -49.0348  -21.0705   13.4708 H         1 UNK         0.0792 
    131 H131      -49.1784  -23.5609   10.9087 H         1 UNK         0.3086 
    132 H132      -50.6974  -26.8103   10.3886 H         1 UNK         0.0583 
    133 H133      -50.5233  -24.1838    8.8216 H         1 UNK         0.1020 
    134 H134      -50.6859  -25.7610    8.1122 H         1 UNK         0.1020 
    135 H135      -54.4026  -25.8773    7.6253 H         1 UNK         0.0694 
    136 H136      -52.8432  -25.7708    6.8496 H         1 UNK         0.0694 
    137 H137      -48.4324  -25.6393    9.1497 H         1 UNK         0.2989 
    138 H138      -45.9296  -26.8123   11.3908 H         1 UNK         0.1055 
    139 H139      -46.3820  -28.6812    9.7764 H         1 UNK         0.0806 
    140 H140      -45.0089  -27.7028    9.2851 H         1 UNK         0.0806 
    141 H141      -46.5612  -27.5134    8.4749 H         1 UNK         0.0806 
    142 H142      -45.9333  -25.1973    8.9913 H         1 UNK         0.3061 
    143 H143      -46.0590  -22.0486   10.6759 H         1 UNK         0.0734 
    144 H144      -43.9053  -21.7568    9.4825 H         1 UNK         0.0832 
    145 H145      -43.6871  -22.8089   10.8701 H         1 UNK         0.0832 
    146 H146      -43.7582  -23.5003    9.2557 H         1 UNK         0.0832 
    147 H147      -45.7336  -22.7504    7.9232 H         1 UNK         0.3156 
    148 H148      -49.1867  -22.9426    7.0781 H         1 UNK         0.0589 
    149 H149      -48.6410  -20.5011    7.1020 H         1 UNK         0.0808 
    150 H150      -47.0573  -20.8368    6.4167 H         1 UNK         0.0808 
    151 H151      -48.5176  -21.1725    5.4856 H         1 UNK         0.0808 
    152 H152      -46.9514  -23.1591    5.4009 H         1 UNK         0.3098 
    153 H153      -46.6386  -25.3046    4.4292 H         1 UNK         0.0720 
    154 H154      -44.6516  -24.4615    5.7117 H         1 UNK         0.0791 
    155 H155      -44.3303  -26.0577    5.0617 H         1 UNK         0.0791 
    156 H156      -44.7170  -25.8640    6.7705 H         1 UNK         0.0791 
    157 H157      -46.1265  -27.7062    5.9540 H         1 UNK         0.3028 
@<TRIPOS>BOND
     1    1    2 1    
     2    1   82 1    
     3    1   83 1    
     4    1   84 1    
     5    2    3 2    
     6    2    4 am   BACKBONE|DICT|INTERRES
     7    4    5 1    
     8    4   85 1    
     9    5    6 1    
    10    5   80 1    
    11    5   86 1    
    12    6    7 1    
    13    6   87 1    
    14    6   88 1    
    15    7    8 1    
    16    8    9 1    
    17    8   89 1    
    18    8   90 1    
    19    9   10 ar   
    20    9   14 ar   
    21   10   11 ar   
    22   10   91 1    
    23   11   12 ar   
    24   11   58 1    
    25   12   13 ar   
    26   12   92 1    
    27   13   14 ar   
    28   13   15 1    
    29   14   93 1    
    30   15   16 1    
    31   15   94 1    
    32   15   95 1    
    33   16   17 1    
    34   17   18 1    
    35   17   96 1    
    36   17   97 1    
    37   18   19 1    
    38   18   22 1    
    39   18   98 1    
    40   19   20 am   BACKBONE|DICT|INTERRES
    41   19   21 2    
    42   20   99 1    
    43   20  100 1    
    44   22   23 am   BACKBONE|DICT|INTERRES
    45   22  101 1    
    46   23   24 2    
    47   23   25 1    
    48   25   26 1    
    49   25   27 1    
    50   25  102 1    
    51   26  103 1    
    52   26  104 1    
    53   26  105 1    
    54   27   28 am   BACKBONE|DICT|INTERRES
    55   27  106 1    
    56   28   29 2    
    57   28   30 1    
    58   30   31 1    
    59   30   32 1    
    60   30  107 1    
    61   31  108 1    
    62   31  109 1    
    63   31  110 1    
    64   32   33 am   BACKBONE|DICT|INTERRES
    65   32  111 1    
    66   33   34 2    
    67   33   35 1    
    68   35   36 1    
    69   35   37 1    
    70   35  112 1    
    71   36  113 1    
    72   36  114 1    
    73   36  115 1    
    74   37   38 am   BACKBONE|DICT|INTERRES
    75   37  116 1    
    76   38   39 2    
    77   38   40 1    
    78   40   41 1    
    79   40   42 1    
    80   40  117 1    
    81   41  118 1    
    82   41  119 1    
    83   41  120 1    
    84   42   43 am   BACKBONE|DICT|INTERRES
    85   42  121 1    
    86   43   44 2    
    87   43   45 1    
    88   45   46 1    
    89   45   47 1    
    90   45  122 1    
    91   46  123 1    
    92   46  124 1    
    93   46  125 1    
    94   47   48 am   BACKBONE|DICT|INTERRES
    95   47  126 1    
    96   48   49 2    
    97   48   50 1    
    98   50   51 1    
    99   50   52 1    
   100   50  127 1    
   101   51  128 1    
   102   51  129 1    
   103   51  130 1    
   104   52   53 am   BACKBONE|DICT|INTERRES
   105   52  131 1    
   106   53   54 2    
   107   53   55 1    
   108   55   56 1    
   109   55   59 1    
   110   55  132 1    
   111   56   57 1    
   112   56  133 1    
   113   56  134 1    
   114   57   58 1    
   115   58  135 1    
   116   58  136 1    
   117   59   60 am   BACKBONE|DICT|INTERRES
   118   59  137 1    
   119   60   61 2    
   120   60   62 1    
   121   62   63 1    
   122   62   64 1    
   123   62  138 1    
   124   63  139 1    
   125   63  140 1    
   126   63  141 1    
   127   64   65 am   BACKBONE|DICT|INTERRES
   128   64  142 1    
   129   65   66 2    
   130   65   67 1    
   131   67   68 1    
   132   67   69 1    
   133   67  143 1    
   134   68  144 1    
   135   68  145 1    
   136   68  146 1    
   137   69   70 am   BACKBONE|DICT|INTERRES
   138   69  147 1    
   139   70   71 2    
   140   70   72 1    
   141   72   73 1    
   142   72   74 1    
   143   72  148 1    
   144   73  149 1    
   145   73  150 1    
   146   73  151 1    
   147   74   75 am   BACKBONE|DICT|INTERRES
   148   74  152 1    
   149   75   76 2    
   150   75   77 1    
   151   77   78 1    
   152   77   79 1    
   153   77  153 1    
   154   78  154 1    
   155   78  155 1    
   156   78  156 1    
   157   79   80 am   BACKBONE|DICT|INTERRES
   158   79  157 1    
   159   80   81 2    
@<TRIPOS>SUBSTRUCTURE
     1 UNK         1 GROUP             0       ****    0 ROOT    
