@<TRIPOS>MOLECULE
3R207
157   159    1
SMALL
USER_CHARGES


@<TRIPOS>ATOM
      1 CA        -51.1602  -31.1794    7.6473 C.3       0 UNK        -0.1975 
      2 C         -50.3638  -30.4894    6.5503 C.2       0 UNK         0.4852 
      3 O         -49.4745  -31.1037    5.9604 O.2       0 UNK        -0.5216 
      4 N         -50.6832  -29.2187    6.2697 N.am      1 UNK        -0.4461 
      5 CA        -50.0648  -28.3963    5.2209 C.3       1 UNK         0.0864 
      6 C6        -50.8299  -27.0684    4.9808 C.3       14 UNK        -0.0898 
      7 S7        -52.6073  -27.2927    4.6251 S.3       14 UNK        -0.2598 
      8 C8        -53.3933  -26.3537    5.9769 C.3       14 UNK         0.0286 
      9 C9        -53.5566  -27.1967    7.2340 C.ar      14 UNK        -0.0844 
     10 C10       -52.4870  -27.3688    8.1179 C.ar      14 UNK        -0.0881 
     11 C11       -52.6201  -28.1707    9.2607 C.ar      14 UNK        -0.0643 
     12 C12       -53.8631  -28.7456    9.5354 C.ar      14 UNK        -0.0930 
     13 C13       -54.9503  -28.5562    8.6793 C.ar      14 UNK        -0.0827 
     14 C14       -54.7871  -27.7946    7.5201 C.ar      14 UNK        -0.1249 
     15 C15       -56.3006  -29.1650    9.0191 C.3       14 UNK         0.0141 
     16 S16       -57.2745  -28.0205   10.0432 S.3       14 UNK        -0.2313 
     17 C17       -58.6711  -29.0775   10.5504 C.3       14 UNK        -0.0915 
     18 CA        -58.5923  -29.4735   12.0495 C.3       13 UNK         0.0968 
     19 C         -59.9206  -30.1284   12.5299 C.2       13 UNK         0.5732 
     20 N         -59.9265  -31.3752   12.9875 N.am      13 UNK        -0.7310 
     21 O         -60.9680  -29.4865   12.4966 O.2       13 UNK        -0.5035 
     22 N         -57.3862  -30.2685   12.3357 N.am      13 UNK        -0.4233 
     23 C         -56.7736  -30.3363   13.5239 C.2       13 UNK         0.4989 
     24 O         -57.1512  -29.7244   14.5252 O.2       13 UNK        -0.4996 
     25 CA        -55.5540  -31.2760   13.6367 C.3       12 UNK         0.0216 
     26 CB        -55.0866  -31.8887   12.2953 C.3       12 UNK        -0.1964 
     27 N         -54.4237  -30.6545   14.3378 N.am      12 UNK        -0.4276 
     28 C         -53.7726  -29.5314   14.0013 C.2       12 UNK         0.5020 
     29 O         -54.0380  -28.8331   13.0206 O.2       12 UNK        -0.5489 
     30 CA        -52.5634  -29.1775   14.8816 C.3       11 UNK         0.0294 
     31 CB        -51.2907  -29.8430   14.3298 C.3       11 UNK        -0.2019 
     32 N         -52.3364  -27.7357   14.9663 N.am      11 UNK        -0.4493 
     33 C         -53.0614  -26.8794   15.6986 C.2       11 UNK         0.4932 
     34 O         -54.0481  -27.2069   16.3606 O.2       11 UNK        -0.5029 
     35 CA        -52.5503  -25.4223   15.7248 C.3       10 UNK         0.0280 
     36 CB        -53.2283  -24.5533   16.8053 C.3       10 UNK        -0.1976 
     37 N         -51.0850  -25.3592   15.8324 N.am      10 UNK        -0.4242 
     38 C         -50.3273  -25.8610   16.8217 C.2       10 UNK         0.5072 
     39 O         -50.7753  -26.3245   17.8715 O.2       10 UNK        -0.5224 
     40 CA        -48.8095  -25.9086   16.5861 C.3       9 UNK         0.0343 
     41 CB        -48.4322  -27.2158   15.8695 C.3       9 UNK        -0.2003 
     42 N         -48.2839  -24.7671   15.8332 N.am      9 UNK        -0.4272 
     43 C         -48.1348  -23.5375   16.3478 C.2       9 UNK         0.4988 
     44 O         -48.4757  -23.2267   17.4899 O.2       9 UNK        -0.5108 
     45 CA        -47.4685  -22.4794   15.4522 C.3       8 UNK         0.0248 
     46 CB        -45.9519  -22.7178   15.3658 C.3       8 UNK        -0.2001 
     47 N         -48.0381  -22.4335   14.1058 N.am      8 UNK        -0.4140 
     48 C         -49.2720  -21.9944   13.8192 C.2       8 UNK         0.5028 
     49 O         -50.0428  -21.5157   14.6519 O.2       8 UNK        -0.5428 
     50 CA        -49.7384  -22.1349   12.3590 C.3       7 UNK         0.0264 
     51 CB        -49.2290  -20.9623   11.5064 C.3       7 UNK        -0.1988 
     52 N         -49.3377  -23.4041   11.7449 N.am      7 UNK        -0.4454 
     53 C         -49.7139  -24.6120   12.1902 C.2       7 UNK         0.5027 
     54 O         -50.4568  -24.7891   13.1551 O.2       7 UNK        -0.5083 
     55 CA        -49.1402  -25.8389   11.4626 C.3       6 UNK         0.0844 
     56 C56       -49.9352  -26.1280   10.1662 C.3       14 UNK        -0.0967 
     57 S57       -49.8200  -27.8827    9.6996 S.3       14 UNK        -0.2604 
     58 C58       -51.4689  -28.4643   10.2269 C.3       14 UNK         0.0134 
     59 N         -47.7001  -25.6925   11.2305 N.am      6 UNK        -0.4116 
     60 C         -46.7781  -25.6340   12.2032 C.2       5 UNK         0.5034 
     61 O         -47.0313  -25.7681   13.3995 O.2       5 UNK        -0.5045 
     62 CA        -45.3398  -25.3007   11.7789 C.3       5 UNK         0.0224 
     63 CB        -44.5920  -26.5570   11.3114 C.3       5 UNK        -0.1978 
     64 N         -45.2965  -24.2712   10.7375 N.am      5 UNK        -0.4737 
     65 C         -45.6310  -22.9905   10.9548 C.2       4 UNK         0.5027 
     66 O         -45.9675  -22.5532   12.0544 O.2       4 UNK        -0.5211 
     67 CA        -45.6356  -22.0443    9.7430 C.3       4 UNK         0.0297 
     68 CB        -44.2525  -21.4001    9.5617 C.3       4 UNK        -0.1993 
     69 N         -46.0445  -22.6854    8.4911 N.am      4 UNK        -0.4486 
     70 C         -47.2174  -23.2973    8.2771 C.2       3 UNK         0.4961 
     71 O         -48.0987  -23.4053    9.1310 O.2       3 UNK        -0.5105 
     72 CA        -47.4485  -23.9119    6.8844 C.3       3 UNK         0.0299 
     73 CB        -46.4442  -23.4350    5.8102 C.3       3 UNK        -0.1972 
     74 N         -47.4901  -25.3780    6.9187 N.am      3 UNK        -0.4305 
     75 C         -46.5514  -26.2183    7.3842 C.2       2 UNK         0.5006 
     76 O         -45.5269  -25.8440    7.9581 O.2       2 UNK        -0.5106 
     77 CA        -46.7849  -27.7309    7.1767 C.3       2 UNK         0.0296 
     78 CB        -46.4408  -28.5410    8.4389 C.3       2 UNK        -0.2002 
     79 N         -48.1515  -28.0571    6.7493 N.am      2 UNK        -0.4032 
     80 C         -48.5720  -28.0877    5.4747 C.2       1 UNK         0.5000 
     81 O         -47.8397  -27.8472    4.5136 O.2       1 UNK        -0.5238 
     82 H82       -52.0921  -30.6564    7.8600 H         1 UNK         0.0889 
     83 H83       -50.5730  -31.2258    8.5640 H         1 UNK         0.0889 
     84 H84       -51.4100  -32.1973    7.3493 H         1 UNK         0.0889 
     85 H85       -51.4567  -28.7883    6.7590 H         1 UNK         0.3028 
     86 H86       -50.1098  -28.9776    4.2973 H         1 UNK         0.0864 
     87 H87       -50.7070  -26.3923    5.8275 H         1 UNK         0.0720 
     88 H88       -50.4016  -26.5434    4.1244 H         1 UNK         0.0720 
     89 H89       -54.3702  -26.0110    5.6323 H         1 UNK         0.0814 
     90 H90       -52.8241  -25.4490    6.1952 H         1 UNK         0.0814 
     91 H91       -51.5504  -26.8812    7.8978 H         1 UNK         0.1469 
     92 H92       -53.9865  -29.3366   10.4312 H         1 UNK         0.1381 
     93 H93       -55.6244  -27.6533    6.8501 H         1 UNK         0.1206 
     94 H94       -56.1598  -30.1080    9.5484 H         1 UNK         0.0813 
     95 H95       -56.8535  -29.3992    8.1080 H         1 UNK         0.0813 
     96 H96       -59.5831  -28.5119   10.3503 H         1 UNK         0.0638 
     97 H97       -58.7204  -29.9645    9.9163 H         1 UNK         0.0638 
     98 H98       -58.5133  -28.5458   12.6197 H         1 UNK         0.0568 
     99 H99       -59.0767  -31.9135   13.0242 H         1 UNK         0.3450 
    100 H100      -60.7951  -31.7806   13.2990 H         1 UNK         0.3450 
    101 H101      -57.0220  -30.8149   11.5714 H         1 UNK         0.2987 
    102 H102      -55.8808  -32.1015   14.2709 H         1 UNK         0.0766 
    103 H103      -54.2335  -32.5505   12.4458 H         1 UNK         0.0798 
    104 H104      -54.7834  -31.1253   11.5802 H         1 UNK         0.0798 
    105 H105      -55.8706  -32.4903   11.8339 H         1 UNK         0.0798 
    106 H106      -54.1306  -31.1321   15.1790 H         1 UNK         0.3198 
    107 H107      -52.7421  -29.5514   15.8924 H         1 UNK         0.0843 
    108 H108      -51.0532  -29.4904   13.3252 H         1 UNK         0.0831 
    109 H109      -51.4072  -30.9261   14.2736 H         1 UNK         0.0831 
    110 H110      -50.4294  -29.6454   14.9681 H         1 UNK         0.0831 
    111 H111      -51.5776  -27.3633   14.4156 H         1 UNK         0.3133 
    112 H112      -52.8023  -24.9936   14.7538 H         1 UNK         0.0566 
    113 H113      -52.8475  -23.5321   16.7874 H         1 UNK         0.0814 
    114 H114      -54.3054  -24.5008   16.6429 H         1 UNK         0.0814 
    115 H115      -53.0712  -24.9529   17.8075 H         1 UNK         0.0814 
    116 H116      -50.6184  -25.0275   14.9900 H         1 UNK         0.3091 
    117 H117      -48.3268  -25.9159   17.5660 H         1 UNK         0.0702 
    118 H118      -47.3510  -27.3158   15.7718 H         1 UNK         0.0785 
    119 H119      -48.8637  -27.2674   14.8690 H         1 UNK         0.0785 
    120 H120      -48.7886  -28.0844   16.4251 H         1 UNK         0.0785 
    121 H121      -47.9364  -24.9615   14.8975 H         1 UNK         0.2998 
    122 H122      -47.6281  -21.5037   15.9163 H         1 UNK         0.0697 
    123 H123      -45.7173  -23.6614   14.8717 H         1 UNK         0.0825 
    124 H124      -45.5028  -22.7475   16.3594 H         1 UNK         0.0825 
    125 H125      -45.4577  -21.9205   14.8103 H         1 UNK         0.0825 
    126 H126      -47.4357  -22.7319   13.3433 H         1 UNK         0.3029 
    127 H127      -50.8302  -22.1057   12.3594 H         1 UNK         0.0897 
    128 H128      -49.5724  -21.0404   10.4746 H         1 UNK         0.0792 
    129 H129      -49.5909  -20.0111   11.8990 H         1 UNK         0.0792 
    130 H130      -48.1405  -20.9152   11.4958 H         1 UNK         0.0792 
    131 H131      -48.7622  -23.3522   10.9069 H         1 UNK         0.3086 
    132 H132      -49.2743  -26.6835   12.1427 H         1 UNK         0.0583 
    133 H133      -50.9909  -25.8714   10.2820 H         1 UNK         0.1020 
    134 H134      -49.5788  -25.5166    9.3369 H         1 UNK         0.1020 
    135 H135      -51.4055  -29.5439   10.3703 H         1 UNK         0.0694 
    136 H136      -51.7057  -28.0437   11.2058 H         1 UNK         0.0694 
    137 H137      -47.4100  -25.5057   10.2822 H         1 UNK         0.2989 
    138 H138      -44.8238  -24.9124   12.6602 H         1 UNK         0.1055 
    139 H139      -44.6133  -27.3330   12.0779 H         1 UNK         0.0806 
    140 H140      -43.5452  -26.3388   11.0998 H         1 UNK         0.0806 
    141 H141      -45.0339  -26.9759   10.4096 H         1 UNK         0.0806 
    142 H142      -45.0749  -24.5698    9.7943 H         1 UNK         0.3061 
    143 H143      -46.3549  -21.2501    9.9500 H         1 UNK         0.0734 
    144 H144      -44.2623  -20.6517    8.7691 H         1 UNK         0.0832 
    145 H145      -43.9354  -20.8960   10.4759 H         1 UNK         0.0832 
    146 H146      -43.4899  -22.1408    9.3174 H         1 UNK         0.0832 
    147 H147      -45.3741  -22.6757    7.7362 H         1 UNK         0.3156 
    148 H148      -48.4409  -23.5822    6.5733 H         1 UNK         0.0589 
    149 H149      -45.4277  -23.7761    6.0102 H         1 UNK         0.0808 
    150 H150      -46.7235  -23.8106    4.8256 H         1 UNK         0.0808 
    151 H151      -46.4261  -22.3464    5.7386 H         1 UNK         0.0808 
    152 H152      -48.3040  -25.7944    6.4938 H         1 UNK         0.3098 
    153 H153      -46.0918  -28.0460    6.3940 H         1 UNK         0.0720 
    154 H154      -46.9597  -28.1665    9.3208 H         1 UNK         0.0791 
    155 H155      -45.3711  -28.4955    8.6453 H         1 UNK         0.0791 
    156 H156      -46.6962  -29.5942    8.3196 H         1 UNK         0.0791 
    157 H157      -48.8169  -28.2593    7.4845 H         1 UNK         0.3028 
@<TRIPOS>BOND
     1    1    2 1    
     2    1   82 1    
     3    1   83 1    
     4    1   84 1    
     5    2    3 2    
     6    2    4 am   BACKBONE|DICT|INTERRES
     7    4    5 1    
     8    4   85 1    
     9    5    6 1    
    10    5   80 1    
    11    5   86 1    
    12    6    7 1    
    13    6   87 1    
    14    6   88 1    
    15    7    8 1    
    16    8    9 1    
    17    8   89 1    
    18    8   90 1    
    19    9   10 ar   
    20    9   14 ar   
    21   10   11 ar   
    22   10   91 1    
    23   11   12 ar   
    24   11   58 1    
    25   12   13 ar   
    26   12   92 1    
    27   13   14 ar   
    28   13   15 1    
    29   14   93 1    
    30   15   16 1    
    31   15   94 1    
    32   15   95 1    
    33   16   17 1    
    34   17   18 1    
    35   17   96 1    
    36   17   97 1    
    37   18   19 1    
    38   18   22 1    
    39   18   98 1    
    40   19   20 am   BACKBONE|DICT|INTERRES
    41   19   21 2    
    42   20   99 1    
    43   20  100 1    
    44   22   23 am   BACKBONE|DICT|INTERRES
    45   22  101 1    
    46   23   24 2    
    47   23   25 1    
    48   25   26 1    
    49   25   27 1    
    50   25  102 1    
    51   26  103 1    
    52   26  104 1    
    53   26  105 1    
    54   27   28 am   BACKBONE|DICT|INTERRES
    55   27  106 1    
    56   28   29 2    
    57   28   30 1    
    58   30   31 1    
    59   30   32 1    
    60   30  107 1    
    61   31  108 1    
    62   31  109 1    
    63   31  110 1    
    64   32   33 am   BACKBONE|DICT|INTERRES
    65   32  111 1    
    66   33   34 2    
    67   33   35 1    
    68   35   36 1    
    69   35   37 1    
    70   35  112 1    
    71   36  113 1    
    72   36  114 1    
    73   36  115 1    
    74   37   38 am   BACKBONE|DICT|INTERRES
    75   37  116 1    
    76   38   39 2    
    77   38   40 1    
    78   40   41 1    
    79   40   42 1    
    80   40  117 1    
    81   41  118 1    
    82   41  119 1    
    83   41  120 1    
    84   42   43 am   BACKBONE|DICT|INTERRES
    85   42  121 1    
    86   43   44 2    
    87   43   45 1    
    88   45   46 1    
    89   45   47 1    
    90   45  122 1    
    91   46  123 1    
    92   46  124 1    
    93   46  125 1    
    94   47   48 am   BACKBONE|DICT|INTERRES
    95   47  126 1    
    96   48   49 2    
    97   48   50 1    
    98   50   51 1    
    99   50   52 1    
   100   50  127 1    
   101   51  128 1    
   102   51  129 1    
   103   51  130 1    
   104   52   53 am   BACKBONE|DICT|INTERRES
   105   52  131 1    
   106   53   54 2    
   107   53   55 1    
   108   55   56 1    
   109   55   59 1    
   110   55  132 1    
   111   56   57 1    
   112   56  133 1    
   113   56  134 1    
   114   57   58 1    
   115   58  135 1    
   116   58  136 1    
   117   59   60 am   BACKBONE|DICT|INTERRES
   118   59  137 1    
   119   60   61 2    
   120   60   62 1    
   121   62   63 1    
   122   62   64 1    
   123   62  138 1    
   124   63  139 1    
   125   63  140 1    
   126   63  141 1    
   127   64   65 am   BACKBONE|DICT|INTERRES
   128   64  142 1    
   129   65   66 2    
   130   65   67 1    
   131   67   68 1    
   132   67   69 1    
   133   67  143 1    
   134   68  144 1    
   135   68  145 1    
   136   68  146 1    
   137   69   70 am   BACKBONE|DICT|INTERRES
   138   69  147 1    
   139   70   71 2    
   140   70   72 1    
   141   72   73 1    
   142   72   74 1    
   143   72  148 1    
   144   73  149 1    
   145   73  150 1    
   146   73  151 1    
   147   74   75 am   BACKBONE|DICT|INTERRES
   148   74  152 1    
   149   75   76 2    
   150   75   77 1    
   151   77   78 1    
   152   77   79 1    
   153   77  153 1    
   154   78  154 1    
   155   78  155 1    
   156   78  156 1    
   157   79   80 am   BACKBONE|DICT|INTERRES
   158   79  157 1    
   159   80   81 2    
@<TRIPOS>SUBSTRUCTURE
     1 UNK         1 GROUP             0       ****    0 ROOT    
