@<TRIPOS>MOLECULE
3R207
157   159    1
SMALL
USER_CHARGES


@<TRIPOS>ATOM
      1 CA        -52.1779  -26.8246   10.6440 C.3       0 UNK        -0.1975 
      2 C         -51.5742  -27.9062    9.7678 C.2       0 UNK         0.4852 
      3 O         -51.0204  -28.8723   10.2938 O.2       0 UNK        -0.5216 
      4 N         -51.7023  -27.7666    8.4446 N.am      1 UNK        -0.4461 
      5 CA        -51.2060  -28.7245    7.4542 C.3       1 UNK         0.0864 
      6 C6        -52.0125  -28.6672    6.1351 C.3       14 UNK        -0.0898 
      7 S7        -53.7670  -29.1066    6.3739 S.3       14 UNK        -0.2598 
      8 C8        -54.6171  -27.5951    5.8229 C.3       14 UNK         0.0286 
      9 C9        -54.5689  -26.4910    6.8694 C.ar      14 UNK        -0.0844 
     10 C10       -53.5941  -25.4908    6.8034 C.ar      14 UNK        -0.0881 
     11 C11       -53.5817  -24.4483    7.7348 C.ar      14 UNK        -0.0643 
     12 C12       -54.5624  -24.4054    8.7317 C.ar      14 UNK        -0.0930 
     13 C13       -55.5379  -25.4042    8.8128 C.ar      14 UNK        -0.0827 
     14 C14       -55.5324  -26.4463    7.8812 C.ar      14 UNK        -0.1249 
     15 C15       -56.6253  -25.3304    9.8771 C.3       14 UNK         0.0141 
     16 S16       -56.0482  -25.9023   11.5058 S.3       14 UNK        -0.2313 
     17 C17       -55.9734  -27.7053   11.2500 C.3       14 UNK        -0.0915 
     18 CA        -55.2923  -28.4355   12.4474 C.3       13 UNK         0.0968 
     19 C         -56.2587  -28.9149   13.5693 C.2       13 UNK         0.5732 
     20 N         -55.7619  -29.6619   14.5481 N.am      13 UNK        -0.7310 
     21 O         -57.4496  -28.6116   13.5702 O.2       13 UNK        -0.5035 
     22 N         -54.3543  -29.4734   12.0015 N.am      13 UNK        -0.4233 
     23 C         -54.6532  -30.5994   11.3407 C.2       13 UNK         0.4989 
     24 O         -55.7957  -30.9320   11.0247 O.2       13 UNK        -0.4996 
     25 CA        -53.4682  -31.4963   10.9336 C.3       12 UNK         0.0216 
     26 CB        -53.2851  -31.4679    9.4083 C.3       12 UNK        -0.1964 
     27 N         -52.2189  -31.0689   11.5756 N.am      12 UNK        -0.4276 
     28 C         -51.7645  -31.5602   12.7344 C.2       12 UNK         0.5020 
     29 O         -52.2467  -32.5395   13.3051 O.2       12 UNK        -0.5489 
     30 CA        -50.6104  -30.7905   13.3972 C.3       11 UNK         0.0294 
     31 CB        -49.3012  -30.9395   12.6026 C.3       11 UNK        -0.2019 
     32 N         -50.8994  -29.3674   13.6212 N.am      11 UNK        -0.4493 
     33 C         -51.9038  -28.8808   14.3694 C.2       11 UNK         0.4932 
     34 O         -52.8089  -29.5773   14.8309 O.2       11 UNK        -0.5029 
     35 CA        -51.9103  -27.3582   14.6384 C.3       10 UNK         0.0280 
     36 CB        -52.7570  -26.9774   15.8699 C.3       10 UNK        -0.1976 
     37 N         -50.5747  -26.7517   14.7365 N.am      10 UNK        -0.4242 
     38 C         -49.5614  -27.1360   15.5308 C.2       10 UNK         0.5072 
     39 O         -49.6255  -28.0563   16.3465 O.2       10 UNK        -0.5224 
     40 CA        -48.2332  -26.3881   15.3537 C.3       9 UNK         0.0343 
     41 CB        -47.5807  -26.7491   14.0106 C.3       9 UNK        -0.2003 
     42 N         -48.3785  -24.9378   15.4452 N.am      9 UNK        -0.4272 
     43 C         -48.5168  -24.2631   16.5942 C.2       9 UNK         0.4988 
     44 O         -48.6035  -24.7947   17.7017 O.2       9 UNK        -0.5108 
     45 CA        -48.5321  -22.7325   16.4908 C.3       8 UNK         0.0248 
     46 CB        -47.1196  -22.1910   16.2106 C.3       8 UNK        -0.2001 
     47 N         -49.4465  -22.2818   15.4435 N.am      8 UNK        -0.4140 
     48 C         -50.7490  -22.0357   15.6366 C.2       8 UNK         0.5028 
     49 O         -51.3097  -22.1269   16.7297 O.2       8 UNK        -0.5428 
     50 CA        -51.5728  -21.5944   14.4136 C.3       7 UNK         0.0264 
     51 CB        -51.7158  -20.0637   14.3874 C.3       7 UNK        -0.1988 
     52 N         -51.0293  -22.0472   13.1300 N.am      7 UNK        -0.4454 
     53 C         -51.0268  -23.3231   12.7212 C.2       7 UNK         0.5027 
     54 O         -51.4251  -24.2682   13.4014 O.2       7 UNK        -0.5083 
     55 CA        -50.4603  -23.5982   11.3178 C.3       6 UNK         0.0844 
     56 C56       -51.4906  -23.1907   10.2377 C.3       14 UNK        -0.0967 
     57 S57       -51.0243  -23.7660    8.5718 S.3       14 UNK        -0.2604 
     58 C58       -52.5283  -23.3539    7.6331 C.3       14 UNK         0.0134 
     59 N         -49.1347  -23.0237   11.0689 N.am      6 UNK        -0.4116 
     60 C         -48.0522  -23.1128   11.8545 C.2       5 UNK         0.5034 
     61 O         -48.0720  -23.5205   13.0177 O.2       5 UNK        -0.5045 
     62 CA        -46.7124  -22.7382   11.1944 C.3       5 UNK         0.0224 
     63 CB        -45.5277  -22.8210   12.1747 C.3       5 UNK        -0.1978 
     64 N         -46.4476  -23.6240   10.0573 N.am      5 UNK        -0.4737 
     65 C         -46.9862  -23.5137    8.8383 C.2       4 UNK         0.5027 
     66 O         -47.6974  -22.5645    8.5086 O.2       4 UNK        -0.5211 
     67 CA        -46.7425  -24.6546    7.8332 C.3       4 UNK         0.0297 
     68 CB        -45.4554  -24.4111    7.0224 C.3       4 UNK        -0.1993 
     69 N         -46.7731  -26.0138    8.3998 N.am      4 UNK        -0.4486 
     70 C         -45.9137  -26.5937    9.2555 C.2       3 UNK         0.4961 
     71 O         -44.9682  -26.0048    9.7803 O.2       3 UNK        -0.5105 
     72 CA        -46.1389  -28.0794    9.6038 C.3       3 UNK         0.0299 
     73 CB        -46.8076  -28.2122   10.9792 C.3       3 UNK        -0.1972 
     74 N         -46.9380  -28.8046    8.6159 N.am      3 UNK        -0.4305 
     75 C         -46.5635  -29.0515    7.3531 C.2       2 UNK         0.5006 
     76 O         -45.4411  -28.7985    6.9135 O.2       2 UNK        -0.5106 
     77 CA        -47.6133  -29.6637    6.4054 C.3       2 UNK         0.0296 
     78 CB        -47.2559  -31.1251    6.0848 C.3       2 UNK        -0.2002 
     79 N         -49.0084  -29.6076    6.8651 N.am      2 UNK        -0.4032 
     80 C         -49.7087  -28.5044    7.1714 C.2       1 UNK         0.5000 
     81 O         -49.2271  -27.3677    7.2064 O.2       1 UNK        -0.5238 
     82 H82       -53.1232  -27.1601   11.0597 H         1 UNK         0.0889 
     83 H83       -52.3727  -25.9184   10.0766 H         1 UNK         0.0889 
     84 H84       -51.5082  -26.5878   11.4682 H         1 UNK         0.0889 
     85 H85       -52.1634  -26.9493    8.0694 H         1 UNK         0.3028 
     86 H86       -51.3145  -29.7290    7.8675 H         1 UNK         0.0864 
     87 H87       -51.9287  -27.6824    5.6733 H         1 UNK         0.0720 
     88 H88       -51.6060  -29.3724    5.4074 H         1 UNK         0.0720 
     89 H89       -55.6575  -27.8428    5.6071 H         1 UNK         0.0814 
     90 H90       -54.1913  -27.2530    4.8783 H         1 UNK         0.0814 
     91 H91       -52.8523  -25.5109    6.0166 H         1 UNK         0.1469 
     92 H92       -54.5757  -23.5901    9.4414 H         1 UNK         0.1381 
     93 H93       -56.2909  -27.2158    7.9312 H         1 UNK         0.1206 
     94 H94       -57.4997  -25.9105    9.5782 H         1 UNK         0.0813 
     95 H95       -56.9669  -24.2986    9.9710 H         1 UNK         0.0813 
     96 H96       -55.4037  -27.8724   10.3351 H         1 UNK         0.0638 
     97 H97       -56.9721  -28.0950   11.0465 H         1 UNK         0.0638 
     98 H98       -54.6520  -27.7108   12.9508 H         1 UNK         0.0568 
     99 H99       -54.7672  -29.8567   14.5953 H         1 UNK         0.3450 
    100 H100      -56.3725  -29.9819   15.2825 H         1 UNK         0.3450 
    101 H101      -53.3924  -29.3419   12.2701 H         1 UNK         0.2987 
    102 H102      -53.7086  -32.5199   11.2283 H         1 UNK         0.0766 
    103 H103      -54.1503  -31.9007    8.9042 H         1 UNK         0.0798 
    104 H104      -52.4087  -32.0364    9.0970 H         1 UNK         0.0798 
    105 H105      -53.1789  -30.4481    9.0411 H         1 UNK         0.0798 
    106 H106      -51.7253  -30.2836   11.1479 H         1 UNK         0.3198 
    107 H107      -50.4520  -31.2384   14.3808 H         1 UNK         0.0843 
    108 H108      -49.3534  -30.4538   11.6281 H         1 UNK         0.0831 
    109 H109      -49.0689  -31.9911   12.4290 H         1 UNK         0.0831 
    110 H110      -48.4586  -30.5104   13.1450 H         1 UNK         0.0831 
    111 H111      -50.2241  -28.7133   13.2551 H         1 UNK         0.3133 
    112 H112      -52.3836  -26.9025   13.7685 H         1 UNK         0.0566 
    113 H113      -52.7766  -25.8970   16.0153 H         1 UNK         0.0814 
    114 H114      -52.3672  -27.4319   16.7814 H         1 UNK         0.0814 
    115 H115      -53.7910  -27.3055   15.7564 H         1 UNK         0.0814 
    116 H116      -50.4459  -25.9256   14.1616 H         1 UNK         0.3091 
    117 H117      -47.5589  -26.7161   16.1480 H         1 UNK         0.0702 
    118 H118      -46.5912  -26.3001   13.9210 H         1 UNK         0.0785 
    119 H119      -48.1760  -26.4078   13.1627 H         1 UNK         0.0785 
    120 H120      -47.4574  -27.8289   13.9170 H         1 UNK         0.0785 
    121 H121      -48.2972  -24.4139   14.5756 H         1 UNK         0.2998 
    122 H122      -48.8553  -22.3321   17.4543 H         1 UNK         0.0697 
    123 H123      -46.7242  -22.5518   15.2606 H         1 UNK         0.0825 
    124 H124      -46.4230  -22.5004   16.9909 H         1 UNK         0.0825 
    125 H125      -47.1118  -21.1013   16.1838 H         1 UNK         0.0825 
    126 H126      -49.0793  -22.2466   14.5013 H         1 UNK         0.3029 
    127 H127      -52.5695  -22.0275   14.5262 H         1 UNK         0.0897 
    128 H128      -50.7521  -19.5695   14.2578 H         1 UNK         0.0792 
    129 H129      -52.1469  -19.6961   15.3199 H         1 UNK         0.0792 
    130 H130      -52.3729  -19.7392   13.5803 H         1 UNK         0.0792 
    131 H131      -50.6592  -21.3384   12.5128 H         1 UNK         0.3086 
    132 H132      -50.3137  -24.6761   11.2514 H         1 UNK         0.0583 
    133 H133      -52.4728  -23.5984   10.4800 H         1 UNK         0.1020 
    134 H134      -51.6114  -22.1060   10.2085 H         1 UNK         0.1020 
    135 H135      -52.9320  -22.3997    7.9754 H         1 UNK         0.0694 
    136 H136      -52.2537  -23.2051    6.5877 H         1 UNK         0.0694 
    137 H137      -48.9768  -22.7040   10.1185 H         1 UNK         0.2989 
    138 H138      -46.7913  -21.7072   10.8422 H         1 UNK         0.1055 
    139 H139      -44.5931  -22.5363   11.6913 H         1 UNK         0.0806 
    140 H140      -45.4036  -23.8281   12.5758 H         1 UNK         0.0806 
    141 H141      -45.6723  -22.1468   13.0197 H         1 UNK         0.0806 
    142 H142      -45.8655  -24.4412   10.2283 H         1 UNK         0.3061 
    143 H143      -47.5782  -24.6240    7.1316 H         1 UNK         0.0734 
    144 H144      -44.5677  -24.4067    7.6556 H         1 UNK         0.0832 
    145 H145      -45.3184  -25.1758    6.2577 H         1 UNK         0.0832 
    146 H146      -45.4938  -23.4467    6.5141 H         1 UNK         0.0832 
    147 H147      -47.5496  -26.5803    8.0677 H         1 UNK         0.3156 
    148 H148      -45.1571  -28.5548    9.6537 H         1 UNK         0.0589 
    149 H149      -47.8005  -27.7603   10.9933 H         1 UNK         0.0808 
    150 H150      -46.2063  -27.7179   11.7426 H         1 UNK         0.0808 
    151 H151      -46.9068  -29.2565   11.2752 H         1 UNK         0.0808 
    152 H152      -47.8785  -29.0518    8.8867 H         1 UNK         0.3098 
    153 H153      -47.5623  -29.0911    5.4771 H         1 UNK         0.0720 
    154 H154      -46.2371  -31.2059    5.7026 H         1 UNK         0.0791 
    155 H155      -47.9161  -31.5392    5.3223 H         1 UNK         0.0791 
    156 H156      -47.3223  -31.7596    6.9697 H         1 UNK         0.0791 
    157 H157      -49.4941  -30.4933    6.8755 H         1 UNK         0.3028 
@<TRIPOS>BOND
     1    1    2 1    
     2    1   82 1    
     3    1   83 1    
     4    1   84 1    
     5    2    3 2    
     6    2    4 am   BACKBONE|DICT|INTERRES
     7    4    5 1    
     8    4   85 1    
     9    5    6 1    
    10    5   80 1    
    11    5   86 1    
    12    6    7 1    
    13    6   87 1    
    14    6   88 1    
    15    7    8 1    
    16    8    9 1    
    17    8   89 1    
    18    8   90 1    
    19    9   10 ar   
    20    9   14 ar   
    21   10   11 ar   
    22   10   91 1    
    23   11   12 ar   
    24   11   58 1    
    25   12   13 ar   
    26   12   92 1    
    27   13   14 ar   
    28   13   15 1    
    29   14   93 1    
    30   15   16 1    
    31   15   94 1    
    32   15   95 1    
    33   16   17 1    
    34   17   18 1    
    35   17   96 1    
    36   17   97 1    
    37   18   19 1    
    38   18   22 1    
    39   18   98 1    
    40   19   20 am   BACKBONE|DICT|INTERRES
    41   19   21 2    
    42   20   99 1    
    43   20  100 1    
    44   22   23 am   BACKBONE|DICT|INTERRES
    45   22  101 1    
    46   23   24 2    
    47   23   25 1    
    48   25   26 1    
    49   25   27 1    
    50   25  102 1    
    51   26  103 1    
    52   26  104 1    
    53   26  105 1    
    54   27   28 am   BACKBONE|DICT|INTERRES
    55   27  106 1    
    56   28   29 2    
    57   28   30 1    
    58   30   31 1    
    59   30   32 1    
    60   30  107 1    
    61   31  108 1    
    62   31  109 1    
    63   31  110 1    
    64   32   33 am   BACKBONE|DICT|INTERRES
    65   32  111 1    
    66   33   34 2    
    67   33   35 1    
    68   35   36 1    
    69   35   37 1    
    70   35  112 1    
    71   36  113 1    
    72   36  114 1    
    73   36  115 1    
    74   37   38 am   BACKBONE|DICT|INTERRES
    75   37  116 1    
    76   38   39 2    
    77   38   40 1    
    78   40   41 1    
    79   40   42 1    
    80   40  117 1    
    81   41  118 1    
    82   41  119 1    
    83   41  120 1    
    84   42   43 am   BACKBONE|DICT|INTERRES
    85   42  121 1    
    86   43   44 2    
    87   43   45 1    
    88   45   46 1    
    89   45   47 1    
    90   45  122 1    
    91   46  123 1    
    92   46  124 1    
    93   46  125 1    
    94   47   48 am   BACKBONE|DICT|INTERRES
    95   47  126 1    
    96   48   49 2    
    97   48   50 1    
    98   50   51 1    
    99   50   52 1    
   100   50  127 1    
   101   51  128 1    
   102   51  129 1    
   103   51  130 1    
   104   52   53 am   BACKBONE|DICT|INTERRES
   105   52  131 1    
   106   53   54 2    
   107   53   55 1    
   108   55   56 1    
   109   55   59 1    
   110   55  132 1    
   111   56   57 1    
   112   56  133 1    
   113   56  134 1    
   114   57   58 1    
   115   58  135 1    
   116   58  136 1    
   117   59   60 am   BACKBONE|DICT|INTERRES
   118   59  137 1    
   119   60   61 2    
   120   60   62 1    
   121   62   63 1    
   122   62   64 1    
   123   62  138 1    
   124   63  139 1    
   125   63  140 1    
   126   63  141 1    
   127   64   65 am   BACKBONE|DICT|INTERRES
   128   64  142 1    
   129   65   66 2    
   130   65   67 1    
   131   67   68 1    
   132   67   69 1    
   133   67  143 1    
   134   68  144 1    
   135   68  145 1    
   136   68  146 1    
   137   69   70 am   BACKBONE|DICT|INTERRES
   138   69  147 1    
   139   70   71 2    
   140   70   72 1    
   141   72   73 1    
   142   72   74 1    
   143   72  148 1    
   144   73  149 1    
   145   73  150 1    
   146   73  151 1    
   147   74   75 am   BACKBONE|DICT|INTERRES
   148   74  152 1    
   149   75   76 2    
   150   75   77 1    
   151   77   78 1    
   152   77   79 1    
   153   77  153 1    
   154   78  154 1    
   155   78  155 1    
   156   78  156 1    
   157   79   80 am   BACKBONE|DICT|INTERRES
   158   79  157 1    
   159   80   81 2    
@<TRIPOS>SUBSTRUCTURE
     1 UNK         1 GROUP             0       ****    0 ROOT    
