@<TRIPOS>MOLECULE
3R207
157   159    1
SMALL
USER_CHARGES


@<TRIPOS>ATOM
      1 CA        -50.9971  -27.8793    9.3474 C.3       0 UNK        -0.1975 
      2 C         -50.3583  -28.6245    8.1890 C.2       0 UNK         0.4852 
      3 O         -49.8768  -29.7447    8.3651 O.2       0 UNK        -0.5216 
      4 N         -50.3622  -28.0153    6.9969 N.am      1 UNK        -0.4461 
      5 CA        -49.8270  -28.5819    5.7573 C.3       1 UNK         0.0864 
      6 C6        -50.4413  -27.9266    4.4884 C.3       14 UNK        -0.0898 
      7 S7        -52.1821  -28.3254    4.0580 S.3       14 UNK        -0.2598 
      8 C8        -53.0996  -28.6475    5.6115 C.3       14 UNK         0.0286 
      9 C9        -53.4728  -27.4186    6.4495 C.ar      14 UNK        -0.0844 
     10 C10       -52.9146  -26.1520    6.2317 C.ar      14 UNK        -0.0881 
     11 C11       -53.2435  -25.0716    7.0515 C.ar      14 UNK        -0.0643 
     12 C12       -54.1777  -25.2417    8.0738 C.ar      14 UNK        -0.0930 
     13 C13       -54.7559  -26.4926    8.3006 C.ar      14 UNK        -0.0827 
     14 C14       -54.3927  -27.5762    7.4932 C.ar      14 UNK        -0.1249 
     15 C15       -55.7825  -26.6585    9.4115 C.3       14 UNK         0.0141 
     16 S16       -55.0410  -26.4511   11.0602 S.3       14 UNK        -0.2313 
     17 C17       -54.1807  -28.0443   11.2724 C.3       14 UNK        -0.0915 
     18 CA        -54.9815  -29.0550   12.1362 C.3       13 UNK         0.0968 
     19 C         -54.2361  -30.4169   12.2495 C.2       13 UNK         0.5732 
     20 N         -53.9266  -30.9243   13.4384 N.am      13 UNK        -0.7310 
     21 O         -53.9420  -31.0374   11.2310 O.2       13 UNK        -0.5035 
     22 N         -55.3648  -28.4859   13.4363 N.am      13 UNK        -0.4233 
     23 C         -56.4745  -28.8117   14.1126 C.2       13 UNK         0.4989 
     24 O         -57.3419  -29.5672   13.6696 O.2       13 UNK        -0.4996 
     25 CA        -56.6528  -28.1912   15.5171 C.3       12 UNK         0.0216 
     26 CB        -57.5349  -29.0603   16.4396 C.3       12 UNK        -0.1964 
     27 N         -55.3890  -27.8516   16.1865 N.am      12 UNK        -0.4276 
     28 C         -54.3781  -28.6860   16.4670 C.2       12 UNK         0.5020 
     29 O         -54.3827  -29.8955   16.2233 O.2       12 UNK        -0.5489 
     30 CA        -53.1183  -28.0416   17.0674 C.3       11 UNK         0.0294 
     31 CB        -52.8779  -28.5423   18.5006 C.3       11 UNK        -0.2019 
     32 N         -51.9284  -28.3036   16.2542 N.am      11 UNK        -0.4493 
     33 C         -51.8009  -28.0326   14.9484 C.2       11 UNK         0.4932 
     34 O         -52.6788  -27.5092   14.2600 O.2       11 UNK        -0.5029 
     35 CA        -50.4346  -28.3486   14.3281 C.3       10 UNK         0.0280 
     36 CB        -50.5177  -28.5357   12.8042 C.3       10 UNK        -0.1976 
     37 N         -49.5262  -27.2465   14.6282 N.am      10 UNK        -0.4242 
     38 C         -48.8256  -27.1212   15.7628 C.2       10 UNK         0.5072 
     39 O         -48.7864  -27.9857   16.6398 O.2       10 UNK        -0.5224 
     40 CA        -48.0826  -25.7974   15.9798 C.3       9 UNK         0.0343 
     41 CB        -46.7644  -25.7516   15.1905 C.3       9 UNK        -0.2003 
     42 N         -48.9260  -24.6614   15.6013 N.am      9 UNK        -0.4272 
     43 C         -49.3949  -23.7482   16.4612 C.2       9 UNK         0.4988 
     44 O         -49.1379  -23.7345   17.6659 O.2       9 UNK        -0.5108 
     45 CA        -50.2991  -22.6499   15.8824 C.3       8 UNK         0.0248 
     46 CB        -49.4524  -21.5284   15.2588 C.3       8 UNK        -0.2001 
     47 N         -51.2543  -23.1408   14.8898 N.am      8 UNK        -0.4140 
     48 C         -52.2961  -23.9450   15.1299 C.2       8 UNK         0.5028 
     49 O         -52.5554  -24.4117   16.2396 O.2       8 UNK        -0.5428 
     50 CA        -53.2333  -24.2652   13.9480 C.3       7 UNK         0.0264 
     51 CB        -54.3398  -23.2004   13.8207 C.3       7 UNK        -0.1988 
     52 N         -52.5739  -24.5012   12.6529 N.am      7 UNK        -0.4454 
     53 C         -51.8740  -23.6442   11.8940 C.2       7 UNK         0.5027 
     54 O         -51.6205  -22.4826   12.2208 O.2       7 UNK        -0.5083 
     55 CA        -51.3492  -24.1802   10.5456 C.3       6 UNK         0.0844 
     56 C56       -51.6027  -23.1298    9.4301 C.3       14 UNK        -0.0967 
     57 S57       -51.0109  -23.6373    7.7761 S.3       14 UNK        -0.2604 
     58 C58       -52.5660  -23.7304    6.8352 C.3       14 UNK         0.0134 
     59 N         -49.9346  -24.5735   10.5606 N.am      6 UNK        -0.4116 
     60 C         -49.1380  -25.0206   11.5426 C.2       5 UNK         0.5034 
     61 O         -49.4795  -25.1755   12.7178 O.2       5 UNK        -0.5045 
     62 CA        -47.6945  -25.3952   11.1429 C.3       5 UNK         0.0224 
     63 CB        -47.4048  -26.8733   11.4607 C.3       5 UNK        -0.1978 
     64 N         -47.3448  -25.1577    9.7351 N.am      5 UNK        -0.4737 
     65 C         -47.1842  -23.9580    9.1550 C.2       4 UNK         0.5027 
     66 O         -47.3819  -22.8926    9.7393 O.2       4 UNK        -0.5211 
     67 CA        -46.7325  -23.9637    7.6777 C.3       4 UNK         0.0297 
     68 CB        -46.2341  -22.5862    7.1921 C.3       4 UNK        -0.1993 
     69 N         -45.7431  -25.0131    7.3981 N.am      4 UNK        -0.4486 
     70 C         -44.5531  -25.1801    7.9975 C.2       3 UNK         0.4961 
     71 O         -44.0538  -24.3536    8.7627 O.2       3 UNK        -0.5105 
     72 CA        -43.7882  -26.4936    7.7175 C.3       3 UNK         0.0299 
     73 CB        -43.1102  -27.0319    8.9958 C.3       3 UNK        -0.1972 
     74 N         -44.5659  -27.5704    7.0816 N.am      3 UNK        -0.4305 
     75 C         -45.6927  -28.1456    7.5279 C.2       2 UNK         0.5006 
     76 O         -46.3276  -27.7631    8.5135 O.2       2 UNK        -0.5106 
     77 CA        -46.1850  -29.3673    6.7373 C.3       2 UNK         0.0296 
     78 CB        -45.7989  -30.6652    7.4644 C.3       2 UNK        -0.2002 
     79 N         -47.6340  -29.3361    6.5482 N.am      2 UNK        -0.4032 
     80 C         -48.2869  -28.4616    5.7733 C.2       1 UNK         0.5000 
     81 O         -47.7243  -27.5812    5.1166 O.2       1 UNK        -0.5238 
     82 H82       -51.5410  -28.5787    9.9802 H         1 UNK         0.0889 
     83 H83       -51.6984  -27.1204    9.0014 H         1 UNK         0.0889 
     84 H84       -50.2286  -27.3968    9.9468 H         1 UNK         0.0889 
     85 H85       -50.7694  -27.0947    6.9157 H         1 UNK         0.3028 
     86 H86       -50.0666  -29.6471    5.7220 H         1 UNK         0.0864 
     87 H87       -49.8645  -28.2284    3.6117 H         1 UNK         0.0720 
     88 H88       -50.3320  -26.8420    4.5334 H         1 UNK         0.0720 
     89 H89       -52.5579  -29.3679    6.2238 H         1 UNK         0.0814 
     90 H90       -54.0262  -29.1487    5.3276 H         1 UNK         0.0814 
     91 H91       -52.2068  -25.9886    5.4348 H         1 UNK         0.1469 
     92 H92       -54.4480  -24.4059    8.7040 H         1 UNK         0.1381 
     93 H93       -54.8321  -28.5478    7.6748 H         1 UNK         0.1206 
     94 H94       -56.2757  -27.6300    9.3528 H         1 UNK         0.0813 
     95 H95       -56.5663  -25.9106    9.2837 H         1 UNK         0.0813 
     96 H96       -53.2117  -27.8393   11.7252 H         1 UNK         0.0638 
     97 H97       -53.9697  -28.4661   10.2888 H         1 UNK         0.0638 
     98 H98       -55.8969  -29.2752   11.5842 H         1 UNK         0.0568 
     99 H99       -53.4539  -31.8123   13.4802 H         1 UNK         0.3450 
    100 H100      -54.1702  -30.4458   14.2994 H         1 UNK         0.3450 
    101 H101      -54.6577  -27.9080   13.8766 H         1 UNK         0.2987 
    102 H102      -57.1747  -27.2465   15.3578 H         1 UNK         0.0766 
    103 H103      -58.5302  -29.2001   16.0158 H         1 UNK         0.0798 
    104 H104      -57.6650  -28.5962   17.4172 H         1 UNK         0.0798 
    105 H105      -57.1050  -30.0507   16.5931 H         1 UNK         0.0798 
    106 H106      -55.2651  -26.8716   16.4028 H         1 UNK         0.3198 
    107 H107      -53.2523  -26.9584   17.1016 H         1 UNK         0.0843 
    108 H108      -52.6975  -29.6179   18.5265 H         1 UNK         0.0831 
    109 H109      -53.7433  -28.3421   19.1338 H         1 UNK         0.0831 
    110 H110      -52.0215  -28.0458   18.9575 H         1 UNK         0.0831 
    111 H111      -51.1304  -28.6995   16.7324 H         1 UNK         0.3133 
    112 H112      -50.0586  -29.2778   14.7614 H         1 UNK         0.0566 
    113 H113      -49.5547  -28.8288   12.3873 H         1 UNK         0.0814 
    114 H114      -50.8370  -27.6205   12.3061 H         1 UNK         0.0814 
    115 H115      -51.2321  -29.3185   12.5467 H         1 UNK         0.0814 
    116 H116      -49.5299  -26.4759   13.9635 H         1 UNK         0.3091 
    117 H117      -47.8285  -25.7510   17.0408 H         1 UNK         0.0702 
    118 H118      -46.1648  -26.6450   15.3705 H         1 UNK         0.0785 
    119 H119      -46.1627  -24.8927   15.4880 H         1 UNK         0.0785 
    120 H120      -46.9334  -25.6765   14.1182 H         1 UNK         0.0785 
    121 H121      -49.2086  -24.6042   14.6282 H         1 UNK         0.2998 
    122 H122      -50.8719  -22.2244   16.7091 H         1 UNK         0.0697 
    123 H123      -48.8849  -21.8819   14.3968 H         1 UNK         0.0825 
    124 H124      -48.7377  -21.1302   15.9805 H         1 UNK         0.0825 
    125 H125      -50.0765  -20.6972   14.9297 H         1 UNK         0.0825 
    126 H126      -51.1606  -22.7911   13.9381 H         1 UNK         0.3029 
    127 H127      -53.7310  -25.2022   14.1978 H         1 UNK         0.0897 
    128 H128      -53.9366  -22.2173   13.5763 H         1 UNK         0.0792 
    129 H129      -54.8916  -23.1000   14.7563 H         1 UNK         0.0792 
    130 H130      -55.0598  -23.4704   13.0478 H         1 UNK         0.0792 
    131 H131      -52.6727  -25.4493   12.3158 H         1 UNK         0.3086 
    132 H132      -51.9209  -25.0755   10.2968 H         1 UNK         0.0583 
    133 H133      -52.6633  -22.8782    9.3813 H         1 UNK         0.1020 
    134 H134      -51.0921  -22.1943    9.6699 H         1 UNK         0.1020 
    135 H135      -53.2297  -22.9085    7.1073 H         1 UNK         0.0694 
    136 H136      -52.3416  -23.5967    5.7758 H         1 UNK         0.0694 
    137 H137      -49.4874  -24.4725    9.6616 H         1 UNK         0.2989 
    138 H138      -47.0366  -24.7769   11.7571 H         1 UNK         0.1055 
    139 H139      -47.9699  -27.5435   10.8125 H         1 UNK         0.0806 
    140 H140      -47.6578  -27.1303   12.4882 H         1 UNK         0.0806 
    141 H141      -46.3474  -27.1027   11.3267 H         1 UNK         0.0806 
    142 H142      -47.1108  -25.9862    9.1944 H         1 UNK         0.3061 
    143 H143      -47.6190  -24.2163    7.0934 H         1 UNK         0.0734 
    144 H144      -45.3824  -22.2339    7.7746 H         1 UNK         0.0832 
    145 H145      -45.9349  -22.6185    6.1446 H         1 UNK         0.0832 
    146 H146      -47.0198  -21.8349    7.2807 H         1 UNK         0.0832 
    147 H147      -46.0564  -25.7570    6.7889 H         1 UNK         0.3156 
    148 H148      -43.0002  -26.2332    7.0095 H         1 UNK         0.0589 
    149 H149      -42.5430  -27.9403    8.7931 H         1 UNK         0.0808 
    150 H150      -42.4110  -26.3046    9.4105 H         1 UNK         0.0808 
    151 H151      -43.8415  -27.2593    9.7726 H         1 UNK         0.0808 
    152 H152      -44.1546  -27.9464    6.2377 H         1 UNK         0.3098 
    153 H153      -45.7161  -29.3694    5.7510 H         1 UNK         0.0720 
    154 H154      -46.2585  -30.7246    8.4523 H         1 UNK         0.0791 
    155 H155      -44.7187  -30.7298    7.6031 H         1 UNK         0.0791 
    156 H156      -46.1057  -31.5447    6.8979 H         1 UNK         0.0791 
    157 H157      -48.1919  -29.9231    7.1591 H         1 UNK         0.3028 
@<TRIPOS>BOND
     1    1    2 1    
     2    1   82 1    
     3    1   83 1    
     4    1   84 1    
     5    2    3 2    
     6    2    4 am   BACKBONE|DICT|INTERRES
     7    4    5 1    
     8    4   85 1    
     9    5    6 1    
    10    5   80 1    
    11    5   86 1    
    12    6    7 1    
    13    6   87 1    
    14    6   88 1    
    15    7    8 1    
    16    8    9 1    
    17    8   89 1    
    18    8   90 1    
    19    9   10 ar   
    20    9   14 ar   
    21   10   11 ar   
    22   10   91 1    
    23   11   12 ar   
    24   11   58 1    
    25   12   13 ar   
    26   12   92 1    
    27   13   14 ar   
    28   13   15 1    
    29   14   93 1    
    30   15   16 1    
    31   15   94 1    
    32   15   95 1    
    33   16   17 1    
    34   17   18 1    
    35   17   96 1    
    36   17   97 1    
    37   18   19 1    
    38   18   22 1    
    39   18   98 1    
    40   19   20 am   BACKBONE|DICT|INTERRES
    41   19   21 2    
    42   20   99 1    
    43   20  100 1    
    44   22   23 am   BACKBONE|DICT|INTERRES
    45   22  101 1    
    46   23   24 2    
    47   23   25 1    
    48   25   26 1    
    49   25   27 1    
    50   25  102 1    
    51   26  103 1    
    52   26  104 1    
    53   26  105 1    
    54   27   28 am   BACKBONE|DICT|INTERRES
    55   27  106 1    
    56   28   29 2    
    57   28   30 1    
    58   30   31 1    
    59   30   32 1    
    60   30  107 1    
    61   31  108 1    
    62   31  109 1    
    63   31  110 1    
    64   32   33 am   BACKBONE|DICT|INTERRES
    65   32  111 1    
    66   33   34 2    
    67   33   35 1    
    68   35   36 1    
    69   35   37 1    
    70   35  112 1    
    71   36  113 1    
    72   36  114 1    
    73   36  115 1    
    74   37   38 am   BACKBONE|DICT|INTERRES
    75   37  116 1    
    76   38   39 2    
    77   38   40 1    
    78   40   41 1    
    79   40   42 1    
    80   40  117 1    
    81   41  118 1    
    82   41  119 1    
    83   41  120 1    
    84   42   43 am   BACKBONE|DICT|INTERRES
    85   42  121 1    
    86   43   44 2    
    87   43   45 1    
    88   45   46 1    
    89   45   47 1    
    90   45  122 1    
    91   46  123 1    
    92   46  124 1    
    93   46  125 1    
    94   47   48 am   BACKBONE|DICT|INTERRES
    95   47  126 1    
    96   48   49 2    
    97   48   50 1    
    98   50   51 1    
    99   50   52 1    
   100   50  127 1    
   101   51  128 1    
   102   51  129 1    
   103   51  130 1    
   104   52   53 am   BACKBONE|DICT|INTERRES
   105   52  131 1    
   106   53   54 2    
   107   53   55 1    
   108   55   56 1    
   109   55   59 1    
   110   55  132 1    
   111   56   57 1    
   112   56  133 1    
   113   56  134 1    
   114   57   58 1    
   115   58  135 1    
   116   58  136 1    
   117   59   60 am   BACKBONE|DICT|INTERRES
   118   59  137 1    
   119   60   61 2    
   120   60   62 1    
   121   62   63 1    
   122   62   64 1    
   123   62  138 1    
   124   63  139 1    
   125   63  140 1    
   126   63  141 1    
   127   64   65 am   BACKBONE|DICT|INTERRES
   128   64  142 1    
   129   65   66 2    
   130   65   67 1    
   131   67   68 1    
   132   67   69 1    
   133   67  143 1    
   134   68  144 1    
   135   68  145 1    
   136   68  146 1    
   137   69   70 am   BACKBONE|DICT|INTERRES
   138   69  147 1    
   139   70   71 2    
   140   70   72 1    
   141   72   73 1    
   142   72   74 1    
   143   72  148 1    
   144   73  149 1    
   145   73  150 1    
   146   73  151 1    
   147   74   75 am   BACKBONE|DICT|INTERRES
   148   74  152 1    
   149   75   76 2    
   150   75   77 1    
   151   77   78 1    
   152   77   79 1    
   153   77  153 1    
   154   78  154 1    
   155   78  155 1    
   156   78  156 1    
   157   79   80 am   BACKBONE|DICT|INTERRES
   158   79  157 1    
   159   80   81 2    
@<TRIPOS>SUBSTRUCTURE
     1 UNK         1 GROUP             0       ****    0 ROOT    
