@<TRIPOS>MOLECULE
3R207
157   159    1
SMALL
USER_CHARGES


@<TRIPOS>ATOM
      1 CA        -51.7891  -28.0625   -0.0537 C.3       0 UNK        -0.1975 
      2 C         -51.7103  -27.7707    1.4377 C.2       0 UNK         0.4852 
      3 O         -52.4768  -26.9483    1.9414 O.2       0 UNK        -0.5216 
      4 N         -50.7959  -28.4434    2.1489 N.am      1 UNK        -0.4461 
      5 CA        -50.5325  -28.2407    3.5753 C.3       1 UNK         0.0864 
      6 C6        -49.7383  -29.4372    4.1611 C.3       14 UNK        -0.0898 
      7 S7        -49.5234  -29.3560    5.9693 S.3       14 UNK        -0.2598 
      8 C8        -51.0584  -30.1327    6.5641 C.3       14 UNK         0.0286 
      9 C9        -51.4006  -29.5975    7.9441 C.ar      14 UNK        -0.0844 
     10 C10       -51.9015  -28.3017    8.0696 C.ar      14 UNK        -0.0881 
     11 C11       -52.1309  -27.7478    9.3287 C.ar      14 UNK        -0.0643 
     12 C12       -51.8985  -28.5163   10.4722 C.ar      14 UNK        -0.0930 
     13 C13       -51.4279  -29.8355   10.3651 C.ar      14 UNK        -0.0827 
     14 C14       -51.1781  -30.3625    9.0924 C.ar      14 UNK        -0.1249 
     15 C15       -51.1352  -30.7241   11.5777 C.3       14 UNK         0.0141 
     16 S16       -51.3759  -29.9358   13.2072 S.3       14 UNK        -0.2313 
     17 C17       -52.7928  -30.8458   13.9090 C.3       14 UNK        -0.0915 
     18 CA        -54.1094  -30.8025   13.0848 C.3       13 UNK         0.0968 
     19 C         -55.2246  -31.5987   13.8255 C.2       13 UNK         0.5732 
     20 N         -56.2666  -30.9609   14.3460 N.am      13 UNK        -0.7310 
     21 O         -55.1403  -32.8204   13.9274 O.2       13 UNK        -0.5035 
     22 N         -54.4778  -29.4354   12.6813 N.am      13 UNK        -0.4233 
     23 C         -55.4095  -29.1303   11.7689 C.2       13 UNK         0.4989 
     24 O         -56.0782  -29.9758   11.1717 O.2       13 UNK        -0.4996 
     25 CA        -55.6382  -27.6319   11.4812 C.3       12 UNK         0.0216 
     26 CB        -56.8257  -27.3801   10.5327 C.3       12 UNK        -0.1964 
     27 N         -55.8242  -26.8357   12.6991 N.am      12 UNK        -0.4276 
     28 C         -54.8452  -26.4275   13.5145 C.2       12 UNK         0.5020 
     29 O         -53.6533  -26.6947   13.3385 O.2       12 UNK        -0.5489 
     30 CA        -55.2758  -25.6422   14.7576 C.3       11 UNK         0.0294 
     31 CB        -55.8621  -26.5979   15.8169 C.3       11 UNK        -0.2019 
     32 N         -54.1050  -24.9567   15.2924 N.am      11 UNK        -0.4493 
     33 C         -54.0953  -23.9971   16.2256 C.2       11 UNK         0.4932 
     34 O         -55.1173  -23.5053   16.7081 O.2       11 UNK        -0.5029 
     35 CA        -52.7077  -23.5184   16.7033 C.3       10 UNK         0.0280 
     36 CB        -52.7448  -22.8127   18.0756 C.3       10 UNK        -0.1976 
     37 N         -51.7093  -24.5960   16.6837 N.am      10 UNK        -0.4242 
     38 C         -51.7291  -25.7355   17.3945 C.2       10 UNK         0.5072 
     39 O         -52.5530  -25.9900   18.2741 O.2       10 UNK        -0.5224 
     40 CA        -50.6738  -26.7964   17.0433 C.3       9 UNK         0.0343 
     41 CB        -51.2755  -27.8345   16.0844 C.3       9 UNK        -0.2003 
     42 N         -49.4626  -26.2288   16.4457 N.am      9 UNK        -0.4272 
     43 C         -48.4868  -25.6432   17.1547 C.2       9 UNK         0.4988 
     44 O         -48.4900  -25.5558   18.3834 O.2       9 UNK        -0.5108 
     45 CA        -47.3114  -25.0440   16.3643 C.3       8 UNK         0.0248 
     46 CB        -46.3556  -26.1477   15.8848 C.3       8 UNK        -0.2001 
     47 N         -47.7422  -24.2291   15.2261 N.am      8 UNK        -0.4140 
     48 C         -48.4382  -23.0868   15.3284 C.2       8 UNK         0.5028 
     49 O         -48.7874  -22.5846   16.3967 O.2       8 UNK        -0.5428 
     50 CA        -48.8223  -22.3880   14.0166 C.3       7 UNK         0.0264 
     51 CB        -47.6674  -21.5119   13.5047 C.3       7 UNK        -0.1988 
     52 N         -49.2121  -23.3404   12.9781 N.am      7 UNK        -0.4454 
     53 C         -50.3762  -24.0055   12.9576 C.2       7 UNK         0.5027 
     54 O         -51.2569  -23.8762   13.8072 O.2       7 UNK        -0.5083 
     55 CA        -50.5777  -24.9934   11.7932 C.3       6 UNK         0.0844 
     56 C56       -51.0199  -24.2055   10.5306 C.3       14 UNK        -0.0967 
     57 S57       -51.2053  -25.1940    9.0120 S.3       14 UNK        -0.2604 
     58 C58       -52.5813  -26.3011    9.4346 C.3       14 UNK         0.0134 
     59 N         -49.3925  -25.8315   11.5797 N.am      6 UNK        -0.4116 
     60 C         -48.8683  -26.6574   12.5024 C.2       5 UNK         0.5034 
     61 O         -49.3311  -26.8127   13.6319 O.2       5 UNK        -0.5045 
     62 CA        -47.5637  -27.3880   12.1400 C.3       5 UNK         0.0224 
     63 CB        -47.8766  -28.7084   11.4201 C.3       5 UNK        -0.1978 
     64 N         -46.6518  -26.5923   11.3178 N.am      5 UNK        -0.4737 
     65 C         -46.2024  -25.3590   11.5948 C.2       4 UNK         0.5027 
     66 O         -46.4286  -24.7703   12.6525 O.2       4 UNK        -0.5211 
     67 CA        -45.4165  -24.6399   10.4794 C.3       4 UNK         0.0297 
     68 CB        -43.9136  -24.6438   10.7990 C.3       4 UNK        -0.1993 
     69 N         -45.6321  -25.2013    9.1361 N.am      4 UNK        -0.4486 
     70 C         -46.8186  -25.2748    8.5147 C.2       3 UNK         0.4961 
     71 O         -47.8635  -24.8307    8.9952 O.2       3 UNK        -0.5105 
     72 CA        -46.8394  -26.0578    7.1903 C.3       3 UNK         0.0299 
     73 CB        -46.6446  -27.5619    7.4525 C.3       3 UNK        -0.1972 
     74 N         -48.1007  -25.8774    6.4729 N.am      3 UNK        -0.4305 
     75 C         -48.4325  -24.7929    5.7611 C.2       2 UNK         0.5006 
     76 O         -47.6685  -23.8445    5.5670 O.2       2 UNK        -0.5106 
     77 CA        -49.8588  -24.7700    5.1714 C.3       2 UNK         0.0296 
     78 CB        -50.0261  -23.7350    4.0374 C.3       2 UNK        -0.2002 
     79 N         -50.3436  -26.0926    4.7491 N.am      2 UNK        -0.4032 
     80 C         -49.8239  -26.8851    3.7972 C.2       1 UNK         0.5000 
     81 O         -48.8336  -26.6026    3.1169 O.2       1 UNK        -0.5238 
     82 H82       -52.7843  -28.4223   -0.3135 H         1 UNK         0.0889 
     83 H83       -51.0650  -28.8169   -0.3608 H         1 UNK         0.0889 
     84 H84       -51.5951  -27.1544   -0.6238 H         1 UNK         0.0889 
     85 H85       -50.1728  -29.0817    1.6749 H         1 UNK         0.3028 
     86 H86       -51.5019  -28.2086    4.0778 H         1 UNK         0.0864 
     87 H87       -48.7481  -29.4966    3.7053 H         1 UNK         0.0720 
     88 H88       -50.2370  -30.3767    3.9165 H         1 UNK         0.0720 
     89 H89       -50.9365  -31.2168    6.5798 H         1 UNK         0.0814 
     90 H90       -51.8817  -29.9205    5.8806 H         1 UNK         0.0814 
     91 H91       -52.0651  -27.7013    7.1861 H         1 UNK         0.1469 
     92 H92       -52.0729  -28.0656   11.4384 H         1 UNK         0.1381 
     93 H93       -50.7873  -31.3666    8.9965 H         1 UNK         0.1206 
     94 H94       -51.7334  -31.6328   11.5108 H         1 UNK         0.0813 
     95 H95       -50.0966  -31.0513   11.5205 H         1 UNK         0.0813 
     96 H96       -52.9666  -30.4365   14.9060 H         1 UNK         0.0638 
     97 H97       -52.4756  -31.8793   14.0605 H         1 UNK         0.0638 
     98 H98       -53.9355  -31.3523   12.1590 H         1 UNK         0.0568 
     99 H99       -56.9816  -31.4896   14.8199 H         1 UNK         0.3450 
    100 H100      -56.3477  -29.9615   14.2617 H         1 UNK         0.3450 
    101 H101      -53.9568  -28.6761   13.1078 H         1 UNK         0.2987 
    102 H102      -54.7419  -27.2820   10.9732 H         1 UNK         0.0766 
    103 H103      -56.6886  -27.9040    9.5856 H         1 UNK         0.0798 
    104 H104      -56.9293  -26.3204   10.2987 H         1 UNK         0.0798 
    105 H105      -57.7671  -27.7239   10.9631 H         1 UNK         0.0798 
    106 H106      -56.7786  -26.6070   12.9396 H         1 UNK         0.3198 
    107 H107      -56.0207  -24.8988   14.4663 H         1 UNK         0.0843 
    108 H108      -56.1981  -26.0582   16.7023 H         1 UNK         0.0831 
    109 H109      -55.1270  -27.3372   16.1386 H         1 UNK         0.0831 
    110 H110      -56.7251  -27.1406   15.4297 H         1 UNK         0.0831 
    111 H111      -53.2295  -25.2662   14.8830 H         1 UNK         0.3133 
    112 H112      -52.3730  -22.7822   15.9717 H         1 UNK         0.0566 
    113 H113      -51.7487  -22.4932   18.3824 H         1 UNK         0.0814 
    114 H114      -53.1464  -23.4597   18.8559 H         1 UNK         0.0814 
    115 H115      -53.3732  -21.9221   18.0389 H         1 UNK         0.0814 
    116 H116      -51.0112  -24.5082   15.9560 H         1 UNK         0.3091 
    117 H117      -50.4015  -27.3111   17.9673 H         1 UNK         0.0702 
    118 H118      -52.1641  -28.2995   16.5132 H         1 UNK         0.0785 
    119 H119      -50.5635  -28.6312   15.8690 H         1 UNK         0.0785 
    120 H120      -51.5703  -27.3853   15.1348 H         1 UNK         0.0785 
    121 H121      -49.3724  -26.3083   15.4340 H         1 UNK         0.2998 
    122 H122      -46.7562  -24.3899   17.0400 H         1 UNK         0.0697 
    123 H123      -46.8614  -26.8648   15.2396 H         1 UNK         0.0825 
    124 H124      -45.9493  -26.7035   16.7307 H         1 UNK         0.0825 
    125 H125      -45.5121  -25.7336   15.3319 H         1 UNK         0.0825 
    126 H126      -47.4436  -24.5322   14.3027 H         1 UNK         0.3029 
    127 H127      -49.6758  -21.7383   14.2242 H         1 UNK         0.0897 
    128 H128      -46.7822  -22.1032   13.2668 H         1 UNK         0.0792 
    129 H129      -47.3752  -20.7766   14.2556 H         1 UNK         0.0792 
    130 H130      -47.9541  -20.9617   12.6083 H         1 UNK         0.0792 
    131 H131      -48.5187  -23.5545   12.2745 H         1 UNK         0.3086 
    132 H132      -51.3866  -25.6655   12.0841 H         1 UNK         0.0583 
    133 H133      -51.9661  -23.6932   10.7175 H         1 UNK         0.1020 
    134 H134      -50.2965  -23.4207   10.2993 H         1 UNK         0.1020 
    135 H135      -52.9504  -26.0752   10.4343 H         1 UNK         0.0694 
    136 H136      -53.4117  -26.1214    8.7504 H         1 UNK         0.0694 
    137 H137      -48.9362  -25.7365   10.6793 H         1 UNK         0.2989 
    138 H138      -47.0425  -27.6207   13.0693 H         1 UNK         0.1055 
    139 H139      -46.9682  -29.2613   11.1806 H         1 UNK         0.0806 
    140 H140      -48.4857  -29.3516   12.0553 H         1 UNK         0.0806 
    141 H141      -48.4306  -28.5469   10.4939 H         1 UNK         0.0806 
    142 H142      -46.4011  -26.9823   10.4221 H         1 UNK         0.3061 
    143 H143      -45.7617  -23.6040   10.4628 H         1 UNK         0.0734 
    144 H144      -43.5046  -25.6549   10.8090 H         1 UNK         0.0832 
    145 H145      -43.3500  -24.0583   10.0723 H         1 UNK         0.0832 
    146 H146      -43.7231  -24.2066   11.7804 H         1 UNK         0.0832 
    147 H147      -44.8217  -25.5936    8.6775 H         1 UNK         0.3156 
    148 H148      -46.0207  -25.6994    6.5627 H         1 UNK         0.0589 
    149 H149      -46.6455  -28.1270    6.5201 H         1 UNK         0.0808 
    150 H150      -45.6926  -27.7645    7.9444 H         1 UNK         0.0808 
    151 H151      -47.4347  -27.9675    8.0865 H         1 UNK         0.0808 
    152 H152      -48.8007  -26.5916    6.6110 H         1 UNK         0.3098 
    153 H153      -50.5091  -24.4596    5.9906 H         1 UNK         0.0720 
    154 H154      -49.8072  -22.7270    4.3919 H         1 UNK         0.0791 
    155 H155      -51.0465  -23.7276    3.6544 H         1 UNK         0.0791 
    156 H156      -49.3556  -23.9378    3.2017 H         1 UNK         0.0791 
    157 H157      -51.1607  -26.4233    5.2417 H         1 UNK         0.3028 
@<TRIPOS>BOND
     1    1    2 1    
     2    1   82 1    
     3    1   83 1    
     4    1   84 1    
     5    2    3 2    
     6    2    4 am   BACKBONE|DICT|INTERRES
     7    4    5 1    
     8    4   85 1    
     9    5    6 1    
    10    5   80 1    
    11    5   86 1    
    12    6    7 1    
    13    6   87 1    
    14    6   88 1    
    15    7    8 1    
    16    8    9 1    
    17    8   89 1    
    18    8   90 1    
    19    9   10 ar   
    20    9   14 ar   
    21   10   11 ar   
    22   10   91 1    
    23   11   12 ar   
    24   11   58 1    
    25   12   13 ar   
    26   12   92 1    
    27   13   14 ar   
    28   13   15 1    
    29   14   93 1    
    30   15   16 1    
    31   15   94 1    
    32   15   95 1    
    33   16   17 1    
    34   17   18 1    
    35   17   96 1    
    36   17   97 1    
    37   18   19 1    
    38   18   22 1    
    39   18   98 1    
    40   19   20 am   BACKBONE|DICT|INTERRES
    41   19   21 2    
    42   20   99 1    
    43   20  100 1    
    44   22   23 am   BACKBONE|DICT|INTERRES
    45   22  101 1    
    46   23   24 2    
    47   23   25 1    
    48   25   26 1    
    49   25   27 1    
    50   25  102 1    
    51   26  103 1    
    52   26  104 1    
    53   26  105 1    
    54   27   28 am   BACKBONE|DICT|INTERRES
    55   27  106 1    
    56   28   29 2    
    57   28   30 1    
    58   30   31 1    
    59   30   32 1    
    60   30  107 1    
    61   31  108 1    
    62   31  109 1    
    63   31  110 1    
    64   32   33 am   BACKBONE|DICT|INTERRES
    65   32  111 1    
    66   33   34 2    
    67   33   35 1    
    68   35   36 1    
    69   35   37 1    
    70   35  112 1    
    71   36  113 1    
    72   36  114 1    
    73   36  115 1    
    74   37   38 am   BACKBONE|DICT|INTERRES
    75   37  116 1    
    76   38   39 2    
    77   38   40 1    
    78   40   41 1    
    79   40   42 1    
    80   40  117 1    
    81   41  118 1    
    82   41  119 1    
    83   41  120 1    
    84   42   43 am   BACKBONE|DICT|INTERRES
    85   42  121 1    
    86   43   44 2    
    87   43   45 1    
    88   45   46 1    
    89   45   47 1    
    90   45  122 1    
    91   46  123 1    
    92   46  124 1    
    93   46  125 1    
    94   47   48 am   BACKBONE|DICT|INTERRES
    95   47  126 1    
    96   48   49 2    
    97   48   50 1    
    98   50   51 1    
    99   50   52 1    
   100   50  127 1    
   101   51  128 1    
   102   51  129 1    
   103   51  130 1    
   104   52   53 am   BACKBONE|DICT|INTERRES
   105   52  131 1    
   106   53   54 2    
   107   53   55 1    
   108   55   56 1    
   109   55   59 1    
   110   55  132 1    
   111   56   57 1    
   112   56  133 1    
   113   56  134 1    
   114   57   58 1    
   115   58  135 1    
   116   58  136 1    
   117   59   60 am   BACKBONE|DICT|INTERRES
   118   59  137 1    
   119   60   61 2    
   120   60   62 1    
   121   62   63 1    
   122   62   64 1    
   123   62  138 1    
   124   63  139 1    
   125   63  140 1    
   126   63  141 1    
   127   64   65 am   BACKBONE|DICT|INTERRES
   128   64  142 1    
   129   65   66 2    
   130   65   67 1    
   131   67   68 1    
   132   67   69 1    
   133   67  143 1    
   134   68  144 1    
   135   68  145 1    
   136   68  146 1    
   137   69   70 am   BACKBONE|DICT|INTERRES
   138   69  147 1    
   139   70   71 2    
   140   70   72 1    
   141   72   73 1    
   142   72   74 1    
   143   72  148 1    
   144   73  149 1    
   145   73  150 1    
   146   73  151 1    
   147   74   75 am   BACKBONE|DICT|INTERRES
   148   74  152 1    
   149   75   76 2    
   150   75   77 1    
   151   77   78 1    
   152   77   79 1    
   153   77  153 1    
   154   78  154 1    
   155   78  155 1    
   156   78  156 1    
   157   79   80 am   BACKBONE|DICT|INTERRES
   158   79  157 1    
   159   80   81 2    
@<TRIPOS>SUBSTRUCTURE
     1 UNK         1 GROUP             0       ****    0 ROOT    
