@<TRIPOS>MOLECULE
3R207
157   159    1
SMALL
USER_CHARGES


@<TRIPOS>ATOM
      1 CA        -44.8152  -29.5397    8.9887 C.3       0 UNK        -0.1975 
      2 C         -45.2615  -29.4493    7.5376 C.2       0 UNK         0.4852 
      3 O         -44.4333  -29.5516    6.6309 O.2       0 UNK        -0.5216 
      4 N         -46.5625  -29.2406    7.3048 N.am      1 UNK        -0.4461 
      5 CA        -47.1981  -29.1172    5.9888 C.3       1 UNK         0.0864 
      6 C6        -48.6986  -29.5139    6.0408 C.3       14 UNK        -0.0898 
      7 S7        -49.6763  -28.7306    7.3773 S.3       14 UNK        -0.2598 
      8 C8        -51.0036  -27.9393    6.4138 C.3       14 UNK         0.0286 
      9 C9        -52.2146  -27.6122    7.2760 C.ar      14 UNK        -0.0844 
     10 C10       -52.6007  -26.2862    7.5004 C.ar      14 UNK        -0.0881 
     11 C11       -53.7493  -25.9957    8.2461 C.ar      14 UNK        -0.0643 
     12 C12       -54.5089  -27.0455    8.7718 C.ar      14 UNK        -0.0930 
     13 C13       -54.1377  -28.3740    8.5458 C.ar      14 UNK        -0.0827 
     14 C14       -52.9896  -28.6504    7.8005 C.ar      14 UNK        -0.1249 
     15 C15       -54.9909  -29.5099    9.0856 C.3       14 UNK         0.0141 
     16 S16       -54.3678  -30.0658   10.6956 S.3       14 UNK        -0.2313 
     17 C17       -55.7799  -31.0377   11.3213 C.3       14 UNK        -0.0915 
     18 CA        -56.9796  -30.1876   11.8322 C.3       13 UNK         0.0968 
     19 C         -58.0346  -31.1034   12.5193 C.2       13 UNK         0.5732 
     20 N         -58.2484  -31.0104   13.8263 N.am      13 UNK        -0.7310 
     21 O         -58.6707  -31.9140   11.8497 O.2       13 UNK        -0.5035 
     22 N         -56.5389  -29.0199   12.6127 N.am      13 UNK        -0.4233 
     23 C         -57.2949  -27.9854   12.9959 C.2       13 UNK         0.4989 
     24 O         -58.5071  -27.9166   12.7862 O.2       13 UNK        -0.4996 
     25 CA        -56.5723  -26.8244   13.7184 C.3       12 UNK         0.0216 
     26 CB        -57.5514  -25.8206   14.3561 C.3       12 UNK        -0.1964 
     27 N         -55.6063  -27.2557   14.7383 N.am      12 UNK        -0.4276 
     28 C         -54.4065  -27.7937   14.4911 C.2       12 UNK         0.5020 
     29 O         -53.9911  -28.0291   13.3576 O.2       12 UNK        -0.5489 
     30 CA        -53.5123  -28.0832   15.6961 C.3       11 UNK         0.0294 
     31 CB        -52.6568  -29.3450   15.4794 C.3       11 UNK        -0.2019 
     32 N         -52.6235  -26.9418   15.8676 N.am      11 UNK        -0.4493 
     33 C         -52.7276  -26.0139   16.8271 C.2       11 UNK         0.4932 
     34 O         -53.6332  -25.9977   17.6626 O.2       11 UNK        -0.5029 
     35 CA        -51.6279  -24.9309   16.8600 C.3       10 UNK         0.0280 
     36 CB        -51.4665  -24.2750   18.2475 C.3       10 UNK        -0.1976 
     37 N         -50.3404  -25.4202   16.3514 N.am      10 UNK        -0.4242 
     38 C         -49.5927  -26.4240   16.8398 C.2       10 UNK         0.5072 
     39 O         -49.8251  -27.0068   17.8997 O.2       10 UNK        -0.5224 
     40 CA        -48.4003  -26.8877   15.9851 C.3       9 UNK         0.0343 
     41 CB        -48.6631  -28.2911   15.4097 C.3       9 UNK        -0.2003 
     42 N         -48.1233  -25.9669   14.8786 N.am      9 UNK        -0.4272 
     43 C         -47.1534  -25.0433   14.8916 C.2       9 UNK         0.4988 
     44 O         -46.3546  -24.8928   15.8167 O.2       9 UNK        -0.5108 
     45 CA        -47.0619  -24.1249   13.6651 C.3       8 UNK         0.0248 
     46 CB        -46.3806  -24.8485   12.4917 C.3       8 UNK        -0.2001 
     47 N         -48.3604  -23.6070   13.2300 N.am      8 UNK        -0.4140 
     48 C         -49.0969  -22.7096   13.9004 C.2       8 UNK         0.5028 
     49 O         -48.8058  -22.2818   15.0171 O.2       8 UNK        -0.5428 
     50 CA        -50.3666  -22.1925   13.2101 C.3       7 UNK         0.0264 
     51 CB        -50.0072  -21.1786   12.1108 C.3       7 UNK        -0.1988 
     52 N         -51.1368  -23.2858   12.6184 N.am      7 UNK        -0.4454 
     53 C         -52.3579  -23.6690   13.0177 C.2       7 UNK         0.5027 
     54 O         -52.9773  -23.1262   13.9334 O.2       7 UNK        -0.5083 
     55 CA        -53.0161  -24.8623   12.2875 C.3       6 UNK         0.0844 
     56 C56       -54.0741  -24.3871   11.2607 C.3       14 UNK        -0.0967 
     57 S57       -53.3421  -23.6678    9.7447 S.3       14 UNK        -0.2604 
     58 C58       -54.2152  -24.5544    8.4155 C.3       14 UNK         0.0134 
     59 N         -52.0666  -25.7926   11.6770 N.am      6 UNK        -0.4116 
     60 C         -51.1008  -26.4720   12.3044 C.2       5 UNK         0.5034 
     61 O         -50.8962  -26.4320   13.5194 O.2       5 UNK        -0.5045 
     62 CA        -50.1451  -27.2676   11.4011 C.3       5 UNK         0.0224 
     63 CB        -50.6976  -28.6802   11.1609 C.3       5 UNK        -0.1978 
     64 N         -49.8527  -26.6343   10.1056 N.am      5 UNK        -0.4737 
     65 C         -49.3900  -25.3887    9.9258 C.2       4 UNK         0.5027 
     66 O         -49.2597  -24.5644   10.8314 O.2       4 UNK        -0.5211 
     67 CA        -49.0050  -24.9827    8.4956 C.3       4 UNK         0.0297 
     68 CB        -49.7930  -23.7372    8.0577 C.3       4 UNK        -0.1993 
     69 N         -47.5748  -24.6975    8.3614 N.am      4 UNK        -0.4486 
     70 C         -46.5695  -25.5227    8.6791 C.2       3 UNK         0.4961 
     71 O         -46.7121  -26.6503    9.1545 O.2       3 UNK        -0.5105 
     72 CA        -45.1614  -25.0376    8.3062 C.3       3 UNK         0.0299 
     73 CB        -44.1072  -25.4461    9.3503 C.3       3 UNK        -0.1972 
     74 N         -44.8328  -25.6498    7.0243 N.am      3 UNK        -0.4305 
     75 C         -45.1894  -25.1565    5.8304 C.2       2 UNK         0.5006 
     76 O         -45.5981  -24.0089    5.6502 O.2       2 UNK        -0.5106 
     77 CA        -45.1445  -26.1461    4.6540 C.3       2 UNK         0.0296 
     78 CB        -43.7168  -26.2826    4.1007 C.3       2 UNK        -0.2002 
     79 N         -45.6515  -27.4633    5.0522 N.am      2 UNK        -0.4032 
     80 C         -46.9291  -27.7288    5.3653 C.2       1 UNK         0.5000 
     81 O         -47.8480  -26.9230    5.2060 O.2       1 UNK        -0.5238 
     82 H82       -45.5804  -29.1681    9.6705 H         1 UNK         0.0889 
     83 H83       -43.9113  -28.9519    9.1437 H         1 UNK         0.0889 
     84 H84       -44.5965  -30.5748    9.2493 H         1 UNK         0.0889 
     85 H85       -47.1845  -29.0825    8.0866 H         1 UNK         0.3028 
     86 H86       -46.7185  -29.8368    5.3210 H         1 UNK         0.0864 
     87 H87       -49.1684  -29.3360    5.0719 H         1 UNK         0.0720 
     88 H88       -48.7699  -30.5916    6.1949 H         1 UNK         0.0720 
     89 H89       -51.3253  -28.6076    5.6139 H         1 UNK         0.0814 
     90 H90       -50.6089  -27.0447    5.9294 H         1 UNK         0.0814 
     91 H91       -52.0284  -25.4803    7.0644 H         1 UNK         0.1469 
     92 H92       -55.4062  -26.8320    9.3360 H         1 UNK         0.1381 
     93 H93       -52.7017  -29.6774    7.6202 H         1 UNK         0.1206 
     94 H94       -56.0262  -29.1811    9.1801 H         1 UNK         0.0813 
     95 H95       -54.9946  -30.3487    8.3880 H         1 UNK         0.0813 
     96 H96       -55.3935  -31.6614   12.1297 H         1 UNK         0.0638 
     97 H97       -56.1044  -31.7252   10.5380 H         1 UNK         0.0638 
     98 H98       -57.4845  -29.7806   10.9550 H         1 UNK         0.0568 
     99 H99       -58.9361  -31.6069   14.2583 H         1 UNK         0.3450 
    100 H100      -57.7370  -30.3427   14.3797 H         1 UNK         0.3450 
    101 H101      -55.5375  -28.9497   12.7788 H         1 UNK         0.2987 
    102 H102      -56.0197  -26.2881   12.9446 H         1 UNK         0.0766 
    103 H103      -57.0223  -24.9787   14.8034 H         1 UNK         0.0798 
    104 H104      -58.1588  -26.2879   15.1322 H         1 UNK         0.0798 
    105 H105      -58.2336  -25.4081   13.6114 H         1 UNK         0.0798 
    106 H106      -55.8704  -27.0965   15.7008 H         1 UNK         0.3198 
    107 H107      -54.1347  -28.2387   16.5799 H         1 UNK         0.0843 
    108 H108      -53.2870  -30.2196   15.3137 H         1 UNK         0.0831 
    109 H109      -52.0324  -29.5518   16.3487 H         1 UNK         0.0831 
    110 H110      -51.9992  -29.2484   14.6141 H         1 UNK         0.0831 
    111 H111      -51.9077  -26.8282   15.1541 H         1 UNK         0.3133 
    112 H112      -51.9482  -24.1524   16.1682 H         1 UNK         0.0566 
    113 H113      -50.6834  -23.5169   18.2384 H         1 UNK         0.0814 
    114 H114      -52.3893  -23.7821   18.5558 H         1 UNK         0.0814 
    115 H115      -51.2179  -25.0067   19.0166 H         1 UNK         0.0814 
    116 H116      -50.0543  -25.0331   15.4643 H         1 UNK         0.3091 
    117 H117      -47.5351  -26.9553   16.6479 H         1 UNK         0.0702 
    118 H118      -47.8134  -28.6450   14.8259 H         1 UNK         0.0785 
    119 H119      -49.5431  -28.3124   14.7671 H         1 UNK         0.0785 
    120 H120      -48.8296  -29.0150   16.2086 H         1 UNK         0.0785 
    121 H121      -48.7473  -26.0178   14.0838 H         1 UNK         0.2998 
    122 H122      -46.4401  -23.2698   13.9387 H         1 UNK         0.0697 
    123 H123      -46.9593  -25.7072   12.1484 H         1 UNK         0.0825 
    124 H124      -45.3925  -25.2128   12.7762 H         1 UNK         0.0825 
    125 H125      -46.2486  -24.1784   11.6423 H         1 UNK         0.0825 
    126 H126      -48.6771  -23.9104   12.3081 H         1 UNK         0.3029 
    127 H127      -50.9581  -21.6713   13.9662 H         1 UNK         0.0897 
    128 H128      -50.9040  -20.7499   11.6632 H         1 UNK         0.0792 
    129 H129      -49.4202  -20.3532   12.5160 H         1 UNK         0.0792 
    130 H130      -49.4227  -21.6359   11.3111 H         1 UNK         0.0792 
    131 H131      -50.6843  -23.8004   11.8675 H         1 UNK         0.3086 
    132 H132      -53.5426  -25.4203   13.0614 H         1 UNK         0.0583 
    133 H133      -54.7496  -23.6546   11.7073 H         1 UNK         0.1020 
    134 H134      -54.7081  -25.2315   10.9913 H         1 UNK         0.1020 
    135 H135      -55.2899  -24.5153    8.6007 H         1 UNK         0.0694 
    136 H136      -54.0548  -24.0157    7.4804 H         1 UNK         0.0694 
    137 H137      -52.1288  -25.8817   10.6729 H         1 UNK         0.2989 
    138 H138      -49.1976  -27.3570   11.9358 H         1 UNK         0.1055 
    139 H139      -50.9392  -29.1744   12.1033 H         1 UNK         0.0806 
    140 H140      -49.9746  -29.3084   10.6404 H         1 UNK         0.0806 
    141 H141      -51.6109  -28.6564   10.5647 H         1 UNK         0.0806 
    142 H142      -49.9172  -27.2380    9.2953 H         1 UNK         0.3061 
    143 H143      -49.2443  -25.8009    7.8148 H         1 UNK         0.0734 
    144 H144      -50.8638  -23.8792    8.1922 H         1 UNK         0.0832 
    145 H145      -49.5148  -22.8584    8.6412 H         1 UNK         0.0832 
    146 H146      -49.6260  -23.5101    7.0047 H         1 UNK         0.0832 
    147 H147      -47.3390  -23.8090    7.9433 H         1 UNK         0.3156 
    148 H148      -45.1557  -23.9487    8.2210 H         1 UNK         0.0589 
    149 H149      -44.0744  -26.5249    9.5029 H         1 UNK         0.0808 
    150 H150      -43.1102  -25.1215    9.0521 H         1 UNK         0.0808 
    151 H151      -44.3194  -24.9880   10.3162 H         1 UNK         0.0808 
    152 H152      -44.5328  -26.6125    7.0627 H         1 UNK         0.3098 
    153 H153      -45.7861  -25.7566    3.8606 H         1 UNK         0.0720 
    154 H154      -43.6921  -26.9340    3.2269 H         1 UNK         0.0791 
    155 H155      -43.0294  -26.6913    4.8426 H         1 UNK         0.0791 
    156 H156      -43.3249  -25.3125    3.7916 H         1 UNK         0.0791 
    157 H157      -44.9661  -28.1837    5.2599 H         1 UNK         0.3028 
@<TRIPOS>BOND
     1    1    2 1    
     2    1   82 1    
     3    1   83 1    
     4    1   84 1    
     5    2    3 2    
     6    2    4 am   BACKBONE|DICT|INTERRES
     7    4    5 1    
     8    4   85 1    
     9    5    6 1    
    10    5   80 1    
    11    5   86 1    
    12    6    7 1    
    13    6   87 1    
    14    6   88 1    
    15    7    8 1    
    16    8    9 1    
    17    8   89 1    
    18    8   90 1    
    19    9   10 ar   
    20    9   14 ar   
    21   10   11 ar   
    22   10   91 1    
    23   11   12 ar   
    24   11   58 1    
    25   12   13 ar   
    26   12   92 1    
    27   13   14 ar   
    28   13   15 1    
    29   14   93 1    
    30   15   16 1    
    31   15   94 1    
    32   15   95 1    
    33   16   17 1    
    34   17   18 1    
    35   17   96 1    
    36   17   97 1    
    37   18   19 1    
    38   18   22 1    
    39   18   98 1    
    40   19   20 am   BACKBONE|DICT|INTERRES
    41   19   21 2    
    42   20   99 1    
    43   20  100 1    
    44   22   23 am   BACKBONE|DICT|INTERRES
    45   22  101 1    
    46   23   24 2    
    47   23   25 1    
    48   25   26 1    
    49   25   27 1    
    50   25  102 1    
    51   26  103 1    
    52   26  104 1    
    53   26  105 1    
    54   27   28 am   BACKBONE|DICT|INTERRES
    55   27  106 1    
    56   28   29 2    
    57   28   30 1    
    58   30   31 1    
    59   30   32 1    
    60   30  107 1    
    61   31  108 1    
    62   31  109 1    
    63   31  110 1    
    64   32   33 am   BACKBONE|DICT|INTERRES
    65   32  111 1    
    66   33   34 2    
    67   33   35 1    
    68   35   36 1    
    69   35   37 1    
    70   35  112 1    
    71   36  113 1    
    72   36  114 1    
    73   36  115 1    
    74   37   38 am   BACKBONE|DICT|INTERRES
    75   37  116 1    
    76   38   39 2    
    77   38   40 1    
    78   40   41 1    
    79   40   42 1    
    80   40  117 1    
    81   41  118 1    
    82   41  119 1    
    83   41  120 1    
    84   42   43 am   BACKBONE|DICT|INTERRES
    85   42  121 1    
    86   43   44 2    
    87   43   45 1    
    88   45   46 1    
    89   45   47 1    
    90   45  122 1    
    91   46  123 1    
    92   46  124 1    
    93   46  125 1    
    94   47   48 am   BACKBONE|DICT|INTERRES
    95   47  126 1    
    96   48   49 2    
    97   48   50 1    
    98   50   51 1    
    99   50   52 1    
   100   50  127 1    
   101   51  128 1    
   102   51  129 1    
   103   51  130 1    
   104   52   53 am   BACKBONE|DICT|INTERRES
   105   52  131 1    
   106   53   54 2    
   107   53   55 1    
   108   55   56 1    
   109   55   59 1    
   110   55  132 1    
   111   56   57 1    
   112   56  133 1    
   113   56  134 1    
   114   57   58 1    
   115   58  135 1    
   116   58  136 1    
   117   59   60 am   BACKBONE|DICT|INTERRES
   118   59  137 1    
   119   60   61 2    
   120   60   62 1    
   121   62   63 1    
   122   62   64 1    
   123   62  138 1    
   124   63  139 1    
   125   63  140 1    
   126   63  141 1    
   127   64   65 am   BACKBONE|DICT|INTERRES
   128   64  142 1    
   129   65   66 2    
   130   65   67 1    
   131   67   68 1    
   132   67   69 1    
   133   67  143 1    
   134   68  144 1    
   135   68  145 1    
   136   68  146 1    
   137   69   70 am   BACKBONE|DICT|INTERRES
   138   69  147 1    
   139   70   71 2    
   140   70   72 1    
   141   72   73 1    
   142   72   74 1    
   143   72  148 1    
   144   73  149 1    
   145   73  150 1    
   146   73  151 1    
   147   74   75 am   BACKBONE|DICT|INTERRES
   148   74  152 1    
   149   75   76 2    
   150   75   77 1    
   151   77   78 1    
   152   77   79 1    
   153   77  153 1    
   154   78  154 1    
   155   78  155 1    
   156   78  156 1    
   157   79   80 am   BACKBONE|DICT|INTERRES
   158   79  157 1    
   159   80   81 2    
@<TRIPOS>SUBSTRUCTURE
     1 UNK         1 GROUP             0       ****    0 ROOT    
