@<TRIPOS>MOLECULE
3R207
157   159    1
SMALL
USER_CHARGES


@<TRIPOS>ATOM
      1 CA        -47.3916  -33.0321    5.0236 C.3       0 UNK        -0.1975 
      2 C         -47.8209  -31.5938    4.7734 C.2       0 UNK         0.4852 
      3 O         -47.4161  -31.0000    3.7727 O.2       0 UNK        -0.5216 
      4 N         -48.6447  -31.0347    5.6687 N.am      1 UNK        -0.4461 
      5 CA        -49.1194  -29.6485    5.6212 C.3       1 UNK         0.0864 
      6 C6        -50.2904  -29.4099    6.6033 C.3       14 UNK        -0.0898 
      7 S7        -51.7769  -30.3826    6.1928 S.3       14 UNK        -0.2598 
      8 C8        -52.8591  -29.1272    5.4316 C.3       14 UNK         0.0286 
      9 C9        -53.2398  -28.0082    6.3949 C.ar      14 UNK        -0.0844 
     10 C10       -52.8544  -26.6901    6.1299 C.ar      14 UNK        -0.0881 
     11 C11       -53.2074  -25.6545    7.0010 C.ar      14 UNK        -0.0643 
     12 C12       -53.9548  -25.9440    8.1458 C.ar      14 UNK        -0.0930 
     13 C13       -54.3496  -27.2574    8.4198 C.ar      14 UNK        -0.0827 
     14 C14       -53.9917  -28.2842    7.5409 C.ar      14 UNK        -0.1249 
     15 C15       -55.1735  -27.5631    9.6593 C.3       14 UNK         0.0141 
     16 S16       -54.1339  -27.5799   11.1480 S.3       14 UNK        -0.2313 
     17 C17       -55.3718  -28.0110   12.4199 C.3       14 UNK        -0.0915 
     18 CA        -55.0586  -29.3309   13.1709 C.3       13 UNK         0.0968 
     19 C         -55.3435  -30.5905   12.3007 C.2       13 UNK         0.5732 
     20 N         -54.3727  -31.4589   12.0423 N.am      13 UNK        -0.7310 
     21 O         -56.4743  -30.7906   11.8633 O.2       13 UNK        -0.5035 
     22 N         -53.7240  -29.2875   13.7881 N.am      13 UNK        -0.4233 
     23 C         -53.3526  -29.9796   14.8710 C.2       13 UNK         0.4989 
     24 O         -54.1086  -30.7273   15.4924 O.2       13 UNK        -0.4996 
     25 CA        -51.8907  -29.8268   15.3310 C.3       12 UNK         0.0216 
     26 CB        -50.9431  -29.2912   14.2344 C.3       12 UNK        -0.1964 
     27 N         -51.8128  -28.9463   16.4951 N.am      12 UNK        -0.4276 
     28 C         -52.0339  -29.3026   17.7680 C.2       12 UNK         0.5020 
     29 O         -52.2922  -30.4519   18.1279 O.2       12 UNK        -0.5489 
     30 CA        -51.9316  -28.1952   18.8292 C.3       11 UNK         0.0294 
     31 CB        -50.4642  -27.9854   19.2393 C.3       11 UNK        -0.2019 
     32 N         -52.4776  -26.9272   18.3409 N.am      11 UNK        -0.4493 
     33 C         -53.6354  -26.3803   18.7361 C.2       11 UNK         0.4932 
     34 O         -54.3670  -26.8698   19.5973 O.2       11 UNK        -0.5029 
     35 CA        -54.0550  -25.0541   18.0691 C.3       10 UNK         0.0280 
     36 CB        -53.6032  -23.8595   18.9245 C.3       10 UNK        -0.1976 
     37 N         -53.5391  -24.8926   16.7070 N.am      10 UNK        -0.4242 
     38 C         -53.9071  -25.6437   15.6598 C.2       10 UNK         0.5072 
     39 O         -54.7997  -26.4898   15.7106 O.2       10 UNK        -0.5224 
     40 CA        -53.1393  -25.4472   14.3378 C.3       9 UNK         0.0343 
     41 CB        -53.9422  -24.5501   13.3829 C.3       9 UNK        -0.2003 
     42 N         -51.7666  -24.9305   14.4478 N.am      9 UNK        -0.4272 
     43 C         -50.7834  -25.4377   15.2073 C.2       9 UNK         0.4988 
     44 O         -50.9646  -26.3521   16.0114 O.2       9 UNK        -0.5108 
     45 CA        -49.3613  -24.8606   15.0721 C.3       8 UNK         0.0248 
     46 CB        -48.3268  -25.9950   14.9632 C.3       8 UNK        -0.2001 
     47 N         -49.1848  -23.9433   13.9428 N.am      8 UNK        -0.4140 
     48 C         -49.5406  -22.6516   13.9368 C.2       8 UNK         0.5028 
     49 O         -50.0759  -22.0863   14.8906 O.2       8 UNK        -0.5428 
     50 CA        -49.2855  -21.8669   12.6390 C.3       7 UNK         0.0264 
     51 CB        -47.8168  -21.4219   12.5503 C.3       7 UNK        -0.1988 
     52 N         -49.6394  -22.6289   11.4394 N.am      7 UNK        -0.4454 
     53 C         -50.8889  -22.9790   11.0975 C.2       7 UNK         0.5027 
     54 O         -51.8871  -22.6371   11.7306 O.2       7 UNK        -0.5083 
     55 CA        -51.0458  -23.8761    9.8510 C.3       6 UNK         0.0844 
     56 C56       -51.0338  -23.0095    8.5658 C.3       14 UNK        -0.0967 
     57 S57       -51.0256  -23.9600    7.0079 S.3       14 UNK        -0.2604 
     58 C58       -52.7955  -24.2251    6.6833 C.3       14 UNK         0.0134 
     59 N         -50.0495  -24.9513    9.8424 N.am      6 UNK        -0.4116 
     60 C         -49.9770  -25.9306   10.7569 C.2       5 UNK         0.5034 
     61 O         -50.7779  -26.0800   11.6778 O.2       5 UNK        -0.5045 
     62 CA        -48.7787  -26.8834   10.6564 C.3       5 UNK         0.0224 
     63 CB        -49.0979  -28.0476    9.7119 C.3       5 UNK        -0.1978 
     64 N         -47.5657  -26.1969   10.2072 N.am      5 UNK        -0.4737 
     65 C         -46.8701  -25.3409   10.9693 C.2       4 UNK         0.5027 
     66 O         -47.1660  -25.0693   12.1315 O.2       4 UNK        -0.5211 
     67 CA        -45.6758  -24.6287   10.3125 C.3       4 UNK         0.0297 
     68 CB        -44.4310  -25.5295   10.3306 C.3       4 UNK        -0.1993 
     69 N         -45.9546  -24.2007    8.9404 N.am      4 UNK        -0.4486 
     70 C         -46.9101  -23.3259    8.5973 C.2       3 UNK         0.4961 
     71 O         -47.6213  -22.7366    9.4105 O.2       3 UNK        -0.5105 
     72 CA        -47.1410  -23.0900    7.0953 C.3       3 UNK         0.0299 
     73 CB        -46.3443  -21.8644    6.6214 C.3       3 UNK        -0.1972 
     74 N         -46.8337  -24.2360    6.2294 N.am      3 UNK        -0.4305 
     75 C         -47.3696  -25.4621    6.3261 C.2       2 UNK         0.5006 
     76 O         -48.1193  -25.8114    7.2401 O.2       2 UNK        -0.5106 
     77 CA        -46.9876  -26.4389    5.1993 C.3       2 UNK         0.0296 
     78 CB        -45.5057  -26.8642    5.2891 C.3       2 UNK        -0.2002 
     79 N         -47.8914  -27.5950    5.1099 N.am      2 UNK        -0.4032 
     80 C         -47.9678  -28.6644    5.9175 C.2       1 UNK         0.5000 
     81 O         -47.2083  -28.8915    6.8637 O.2       1 UNK        -0.5238 
     82 H82       -47.8337  -33.4372    5.9337 H         1 UNK         0.0889 
     83 H83       -46.3076  -33.0883    5.1192 H         1 UNK         0.0889 
     84 H84       -47.6940  -33.6645    4.1894 H         1 UNK         0.0889 
     85 H85       -48.9376  -31.5653    6.4762 H         1 UNK         0.3028 
     86 H86       -49.4820  -29.4592    4.6082 H         1 UNK         0.0864 
     87 H87       -50.5494  -28.3507    6.6455 H         1 UNK         0.0720 
     88 H88       -49.9936  -29.6872    7.6154 H         1 UNK         0.0720 
     89 H89       -53.7696  -29.6153    5.0812 H         1 UNK         0.0814 
     90 H90       -52.3667  -28.7282    4.5434 H         1 UNK         0.0814 
     91 H91       -52.2757  -26.4635    5.2448 H         1 UNK         0.1469 
     92 H92       -54.2316  -25.1497    8.8254 H         1 UNK         0.1381 
     93 H93       -54.2929  -29.3020    7.7489 H         1 UNK         0.1206 
     94 H94       -55.9586  -26.8141    9.7727 H         1 UNK         0.0813 
     95 H95       -55.6747  -28.5273    9.5583 H         1 UNK         0.0813 
     96 H96       -56.3699  -28.0447   11.9794 H         1 UNK         0.0638 
     97 H97       -55.4075  -27.1917   13.1367 H         1 UNK         0.0638 
     98 H98       -55.7809  -29.3912   13.9872 H         1 UNK         0.0568 
     99 H99       -53.4422  -31.3071   12.3940 H         1 UNK         0.3450 
    100 H100      -54.5758  -32.2716   11.4826 H         1 UNK         0.3450 
    101 H101      -53.0449  -28.7161   13.3080 H         1 UNK         0.2987 
    102 H102      -51.5388  -30.8208   15.6151 H         1 UNK         0.0766 
    103 H103      -50.9730  -29.9199   13.3434 H         1 UNK         0.0798 
    104 H104      -49.9102  -29.2861   14.5836 H         1 UNK         0.0798 
    105 H105      -51.1848  -28.2716   13.9312 H         1 UNK         0.0798 
    106 H106      -51.5647  -27.9765   16.3050 H         1 UNK         0.3198 
    107 H107      -52.4828  -28.5313   19.7102 H         1 UNK         0.0843 
    108 H108      -50.3789  -27.2476   20.0372 H         1 UNK         0.0831 
    109 H109      -49.8532  -27.6448   18.4020 H         1 UNK         0.0831 
    110 H110      -50.0255  -28.9136   19.6081 H         1 UNK         0.0831 
    111 H111      -51.9574  -26.4760   17.5930 H         1 UNK         0.3133 
    112 H112      -55.1458  -25.0428   18.0175 H         1 UNK         0.0566 
    113 H113      -53.9609  -22.9162   18.5112 H         1 UNK         0.0814 
    114 H114      -52.5164  -23.8041   19.0002 H         1 UNK         0.0814 
    115 H115      -53.9965  -23.9359   19.9392 H         1 UNK         0.0814 
    116 H116      -52.8027  -24.2152   16.5706 H         1 UNK         0.3091 
    117 H117      -53.0588  -26.4336   13.8796 H         1 UNK         0.0702 
    118 H118      -53.5529  -24.6184   12.3670 H         1 UNK         0.0785 
    119 H119      -53.9108  -23.5037   13.6885 H         1 UNK         0.0785 
    120 H120      -54.9910  -24.8461   13.3402 H         1 UNK         0.0785 
    121 H121      -51.5233  -24.1911   13.8033 H         1 UNK         0.2998 
    122 H122      -49.1567  -24.3137   15.9946 H         1 UNK         0.0697 
    123 H123      -48.5055  -26.6154   14.0843 H         1 UNK         0.0825 
    124 H124      -48.3598  -26.6487   15.8358 H         1 UNK         0.0825 
    125 H125      -47.3121  -25.6025   14.8955 H         1 UNK         0.0825 
    126 H126      -48.7004  -24.3205   13.1324 H         1 UNK         0.3029 
    127 H127      -49.9114  -20.9722   12.6645 H         1 UNK         0.0897 
    128 H128      -47.1384  -22.2741   12.4930 H         1 UNK         0.0792 
    129 H129      -47.5325  -20.8347   13.4245 H         1 UNK         0.0792 
    130 H130      -47.6443  -20.8006   11.6712 H         1 UNK         0.0792 
    131 H131      -48.8747  -22.8808   10.8161 H         1 UNK         0.3086 
    132 H132      -52.0243  -24.3562    9.9179 H         1 UNK         0.0583 
    133 H133      -51.8833  -22.3240    8.5637 H         1 UNK         0.1020 
    134 H134      -50.1486  -22.3713    8.5470 H         1 UNK         0.1020 
    135 H135      -53.4018  -23.5112    7.2422 H         1 UNK         0.0694 
    136 H136      -52.9895  -24.0238    5.6288 H         1 UNK         0.0694 
    137 H137      -49.3710  -24.9359    9.0918 H         1 UNK         0.2989 
    138 H138      -48.5951  -27.2926   11.6524 H         1 UNK         0.1055 
    139 H139      -49.3006  -27.6888    8.7034 H         1 UNK         0.0806 
    140 H140      -48.2723  -28.7573    9.6564 H         1 UNK         0.0806 
    141 H141      -49.9801  -28.5943   10.0485 H         1 UNK         0.0806 
    142 H142      -47.3194  -26.3025    9.2297 H         1 UNK         0.3061 
    143 H143      -45.4603  -23.7347   10.9017 H         1 UNK         0.0734 
    144 H144      -44.5732  -26.4307    9.7326 H         1 UNK         0.0832 
    145 H145      -43.5552  -25.0054    9.9475 H         1 UNK         0.0832 
    146 H146      -44.1967  -25.8475   11.3476 H         1 UNK         0.0832 
    147 H147      -45.4224  -24.6382    8.2029 H         1 UNK         0.3156 
    148 H148      -48.2018  -22.8700    6.9665 H         1 UNK         0.0589 
    149 H149      -46.5876  -21.6052    5.5908 H         1 UNK         0.0808 
    150 H150      -46.5720  -20.9905    7.2338 H         1 UNK         0.0808 
    151 H151      -45.2684  -22.0331    6.6823 H         1 UNK         0.0808 
    152 H152      -46.2200  -24.0468    5.4498 H         1 UNK         0.3098 
    153 H153      -47.1204  -25.9013    4.2591 H         1 UNK         0.0720 
    154 H154      -44.8415  -26.0127    5.1385 H         1 UNK         0.0791 
    155 H155      -45.2582  -27.6027    4.5264 H         1 UNK         0.0791 
    156 H156      -45.2603  -27.2921    6.2615 H         1 UNK         0.0791 
    157 H157      -48.5886  -27.5178    4.3829 H         1 UNK         0.3028 
@<TRIPOS>BOND
     1    1    2 1    
     2    1   82 1    
     3    1   83 1    
     4    1   84 1    
     5    2    3 2    
     6    2    4 am   BACKBONE|DICT|INTERRES
     7    4    5 1    
     8    4   85 1    
     9    5    6 1    
    10    5   80 1    
    11    5   86 1    
    12    6    7 1    
    13    6   87 1    
    14    6   88 1    
    15    7    8 1    
    16    8    9 1    
    17    8   89 1    
    18    8   90 1    
    19    9   10 ar   
    20    9   14 ar   
    21   10   11 ar   
    22   10   91 1    
    23   11   12 ar   
    24   11   58 1    
    25   12   13 ar   
    26   12   92 1    
    27   13   14 ar   
    28   13   15 1    
    29   14   93 1    
    30   15   16 1    
    31   15   94 1    
    32   15   95 1    
    33   16   17 1    
    34   17   18 1    
    35   17   96 1    
    36   17   97 1    
    37   18   19 1    
    38   18   22 1    
    39   18   98 1    
    40   19   20 am   BACKBONE|DICT|INTERRES
    41   19   21 2    
    42   20   99 1    
    43   20  100 1    
    44   22   23 am   BACKBONE|DICT|INTERRES
    45   22  101 1    
    46   23   24 2    
    47   23   25 1    
    48   25   26 1    
    49   25   27 1    
    50   25  102 1    
    51   26  103 1    
    52   26  104 1    
    53   26  105 1    
    54   27   28 am   BACKBONE|DICT|INTERRES
    55   27  106 1    
    56   28   29 2    
    57   28   30 1    
    58   30   31 1    
    59   30   32 1    
    60   30  107 1    
    61   31  108 1    
    62   31  109 1    
    63   31  110 1    
    64   32   33 am   BACKBONE|DICT|INTERRES
    65   32  111 1    
    66   33   34 2    
    67   33   35 1    
    68   35   36 1    
    69   35   37 1    
    70   35  112 1    
    71   36  113 1    
    72   36  114 1    
    73   36  115 1    
    74   37   38 am   BACKBONE|DICT|INTERRES
    75   37  116 1    
    76   38   39 2    
    77   38   40 1    
    78   40   41 1    
    79   40   42 1    
    80   40  117 1    
    81   41  118 1    
    82   41  119 1    
    83   41  120 1    
    84   42   43 am   BACKBONE|DICT|INTERRES
    85   42  121 1    
    86   43   44 2    
    87   43   45 1    
    88   45   46 1    
    89   45   47 1    
    90   45  122 1    
    91   46  123 1    
    92   46  124 1    
    93   46  125 1    
    94   47   48 am   BACKBONE|DICT|INTERRES
    95   47  126 1    
    96   48   49 2    
    97   48   50 1    
    98   50   51 1    
    99   50   52 1    
   100   50  127 1    
   101   51  128 1    
   102   51  129 1    
   103   51  130 1    
   104   52   53 am   BACKBONE|DICT|INTERRES
   105   52  131 1    
   106   53   54 2    
   107   53   55 1    
   108   55   56 1    
   109   55   59 1    
   110   55  132 1    
   111   56   57 1    
   112   56  133 1    
   113   56  134 1    
   114   57   58 1    
   115   58  135 1    
   116   58  136 1    
   117   59   60 am   BACKBONE|DICT|INTERRES
   118   59  137 1    
   119   60   61 2    
   120   60   62 1    
   121   62   63 1    
   122   62   64 1    
   123   62  138 1    
   124   63  139 1    
   125   63  140 1    
   126   63  141 1    
   127   64   65 am   BACKBONE|DICT|INTERRES
   128   64  142 1    
   129   65   66 2    
   130   65   67 1    
   131   67   68 1    
   132   67   69 1    
   133   67  143 1    
   134   68  144 1    
   135   68  145 1    
   136   68  146 1    
   137   69   70 am   BACKBONE|DICT|INTERRES
   138   69  147 1    
   139   70   71 2    
   140   70   72 1    
   141   72   73 1    
   142   72   74 1    
   143   72  148 1    
   144   73  149 1    
   145   73  150 1    
   146   73  151 1    
   147   74   75 am   BACKBONE|DICT|INTERRES
   148   74  152 1    
   149   75   76 2    
   150   75   77 1    
   151   77   78 1    
   152   77   79 1    
   153   77  153 1    
   154   78  154 1    
   155   78  155 1    
   156   78  156 1    
   157   79   80 am   BACKBONE|DICT|INTERRES
   158   79  157 1    
   159   80   81 2    
@<TRIPOS>SUBSTRUCTURE
     1 UNK         1 GROUP             0       ****    0 ROOT    
