@<TRIPOS>MOLECULE
3R207
157   159    1
SMALL
USER_CHARGES


@<TRIPOS>ATOM
      1 CA        -52.2511  -23.0154   12.0630 C.3       0 UNK        -0.1975 
      2 C         -51.4746  -23.2609   10.7795 C.2       0 UNK         0.4852 
      3 O         -50.9628  -22.3127   10.1834 O.2       0 UNK        -0.5216 
      4 N         -51.3734  -24.5284   10.3572 N.am      1 UNK        -0.4461 
      5 CA        -50.7569  -25.0224    9.1169 C.3       1 UNK         0.0864 
      6 C6        -51.3849  -24.3990    7.8412 C.3       14 UNK        -0.0898 
      7 S7        -50.9891  -25.3255    6.3213 S.3       14 UNK        -0.2598 
      8 C8        -52.5375  -26.2354    6.0058 C.3       14 UNK         0.0286 
      9 C9        -52.8901  -27.2788    7.0653 C.ar      14 UNK        -0.0844 
     10 C10       -51.9291  -28.1631    7.5708 C.ar      14 UNK        -0.0881 
     11 C11       -52.2769  -29.1563    8.4963 C.ar      14 UNK        -0.0643 
     12 C12       -53.6167  -29.2770    8.8806 C.ar      14 UNK        -0.0930 
     13 C13       -54.5935  -28.4132    8.3761 C.ar      14 UNK        -0.0827 
     14 C14       -54.2177  -27.4066    7.4827 C.ar      14 UNK        -0.1249 
     15 C15       -56.0649  -28.6053    8.7283 C.3       14 UNK         0.0141 
     16 S16       -56.4309  -28.2527   10.4765 S.3       14 UNK        -0.2313 
     17 C17       -56.5646  -29.9435   11.1576 C.3       14 UNK        -0.0915 
     18 CA        -56.3368  -30.0009   12.6962 C.3       13 UNK         0.0968 
     19 C         -56.5750  -31.4215   13.2938 C.2       13 UNK         0.5732 
     20 N         -55.8169  -31.8639   14.2921 N.am      13 UNK        -0.7310 
     21 O         -57.4877  -32.1273   12.8706 O.2       13 UNK        -0.5035 
     22 N         -55.0803  -29.3682   13.1201 N.am      13 UNK        -0.4233 
     23 C         -53.8414  -29.7488   12.7788 C.2       13 UNK         0.4989 
     24 O         -53.5818  -30.6892   12.0284 O.2       13 UNK        -0.4996 
     25 CA        -52.6836  -28.9550   13.4078 C.3       12 UNK         0.0216 
     26 CB        -52.3095  -27.7827   12.4872 C.3       12 UNK        -0.1964 
     27 N         -52.9817  -28.4476   14.7535 N.am      12 UNK        -0.4276 
     28 C         -53.3480  -29.2099   15.7991 C.2       12 UNK         0.5020 
     29 O         -53.3659  -30.4414   15.7715 O.2       12 UNK        -0.5489 
     30 CA        -53.8372  -28.4927   17.0730 C.3       11 UNK         0.0294 
     31 CB        -52.6951  -28.3955   18.0973 C.3       11 UNK        -0.2019 
     32 N         -54.3837  -27.1525   16.8396 N.am      11 UNK        -0.4493 
     33 C         -55.3753  -26.8289   15.9952 C.2       11 UNK         0.4932 
     34 O         -56.0411  -27.6558   15.3716 O.2       11 UNK        -0.5029 
     35 CA        -55.6264  -25.3270   15.7517 C.3       10 UNK         0.0280 
     36 CB        -56.8822  -24.8669   16.5092 C.3       10 UNK        -0.1976 
     37 N         -54.5019  -24.4438   16.0977 N.am      10 UNK        -0.4242 
     38 C         -53.2553  -24.5282   15.6104 C.2       10 UNK         0.5072 
     39 O         -52.8818  -25.3989   14.8181 O.2       10 UNK        -0.5224 
     40 CA        -52.2472  -23.5123   16.1586 C.3       9 UNK         0.0343 
     41 CB        -51.8751  -23.8515   17.6166 C.3       9 UNK        -0.2003 
     42 N         -51.0545  -23.5442   15.3205 N.am      9 UNK        -0.4272 
     43 C         -50.0765  -22.6334   15.2843 C.2       9 UNK         0.4988 
     44 O         -50.0880  -21.5982   15.9527 O.2       9 UNK        -0.5108 
     45 CA        -48.8767  -22.9460   14.3644 C.3       8 UNK         0.0248 
     46 CB        -47.6812  -22.0050   14.6066 C.3       8 UNK        -0.2001 
     47 N         -48.4278  -24.3345   14.5143 N.am      8 UNK        -0.4140 
     48 C         -48.9802  -25.3824   13.8929 C.2       8 UNK         0.5028 
     49 O         -49.9245  -25.2832   13.1079 O.2       8 UNK        -0.5428 
     50 CA        -48.4358  -26.7746   14.2609 C.3       7 UNK         0.0264 
     51 CB        -49.2993  -27.4012   15.3690 C.3       7 UNK        -0.1988 
     52 N         -48.3982  -27.6779   13.1055 N.am      7 UNK        -0.4454 
     53 C         -47.6652  -27.4508   12.0064 C.2       7 UNK         0.5027 
     54 O         -46.8912  -26.4927   11.9106 O.2       7 UNK        -0.5083 
     55 CA        -47.8168  -28.4517   10.8347 C.3       6 UNK         0.0844 
     56 C56       -49.2995  -28.6094   10.3930 C.3       14 UNK        -0.0967 
     57 S57       -49.5035  -29.6920    8.9375 S.3       14 UNK        -0.2604 
     58 C58       -51.2667  -30.1695    9.0450 C.3       14 UNK         0.0134 
     59 N         -46.9434  -28.0261    9.7362 N.am      6 UNK        -0.4116 
     60 C         -45.6312  -28.2909    9.6613 C.2       5 UNK         0.5034 
     61 O         -45.0564  -29.0958   10.3979 O.2       5 UNK        -0.5045 
     62 CA        -44.8094  -27.4887    8.6310 C.3       5 UNK         0.0224 
     63 CB        -43.5248  -28.2173    8.1792 C.3       5 UNK        -0.1978 
     64 N         -45.5944  -27.0224    7.4826 N.am      5 UNK        -0.4737 
     65 C         -46.1814  -27.7717    6.5368 C.2       4 UNK         0.5027 
     66 O         -46.0706  -28.9960    6.4687 O.2       4 UNK        -0.5211 
     67 CA        -47.0562  -27.0429    5.4998 C.3       4 UNK         0.0297 
     68 CB        -48.4324  -27.7165    5.3888 C.3       4 UNK        -0.1993 
     69 N         -47.2527  -25.6313    5.8431 N.am      4 UNK        -0.4486 
     70 C         -46.6030  -24.6048    5.2771 C.2       3 UNK         0.4961 
     71 O         -45.7972  -24.7298    4.3546 O.2       3 UNK        -0.5105 
     72 CA        -46.8796  -23.1954    5.8369 C.3       3 UNK         0.0299 
     73 CB        -47.9621  -22.4947    5.0002 C.3       3 UNK        -0.1972 
     74 N         -47.2803  -23.1775    7.2466 N.am      3 UNK        -0.4305 
     75 C         -46.5262  -23.5864    8.2783 C.2       2 UNK         0.5006 
     76 O         -45.3724  -23.9990    8.1619 O.2       2 UNK        -0.5106 
     77 CA        -47.1943  -23.5988    9.6659 C.3       2 UNK         0.0296 
     78 CB        -46.9357  -22.2806   10.4112 C.3       2 UNK        -0.2002 
     79 N         -48.6373  -23.8549    9.6192 N.am      2 UNK        -0.4032 
     80 C         -49.2127  -24.9492    9.1049 C.2       1 UNK         0.5000 
     81 O         -48.5667  -25.8769    8.6103 O.2       1 UNK        -0.5238 
     82 H82       -53.2229  -22.5787   11.8356 H         1 UNK         0.0889 
     83 H83       -51.7094  -22.3232   12.7056 H         1 UNK         0.0889 
     84 H84       -52.4120  -23.9403   12.6154 H         1 UNK         0.0889 
     85 H85       -51.7436  -25.2523   10.9574 H         1 UNK         0.3028 
     86 H86       -51.0061  -26.0821    9.1055 H         1 UNK         0.0864 
     87 H87       -51.0564  -23.3671    7.7079 H         1 UNK         0.0720 
     88 H88       -52.4700  -24.3535    7.9462 H         1 UNK         0.0720 
     89 H89       -52.4468  -26.7430    5.0448 H         1 UNK         0.0814 
     90 H90       -53.3457  -25.5111    5.8920 H         1 UNK         0.0814 
     91 H91       -50.9109  -28.0805    7.2270 H         1 UNK         0.1469 
     92 H92       -53.9055  -30.0661    9.5590 H         1 UNK         0.1381 
     93 H93       -54.9710  -26.7450    7.0769 H         1 UNK         0.1206 
     94 H94       -56.3697  -29.6216    8.4746 H         1 UNK         0.0813 
     95 H95       -56.6881  -27.9503    8.1176 H         1 UNK         0.0813 
     96 H96       -57.5603  -30.3138   10.9078 H         1 UNK         0.0638 
     97 H97       -55.8626  -30.6024   10.6463 H         1 UNK         0.0638 
     98 H98       -57.1166  -29.3897   13.1515 H         1 UNK         0.0568 
     99 H99       -55.0559  -31.3050   14.6564 H         1 UNK         0.3450 
    100 H100      -55.9940  -32.7794   14.6731 H         1 UNK         0.3450 
    101 H101      -55.1932  -28.6192   13.7939 H         1 UNK         0.2987 
    102 H102      -51.8271  -29.6273   13.4860 H         1 UNK         0.0766 
    103 H103      -51.3880  -27.3081   12.8141 H         1 UNK         0.0798 
    104 H104      -53.0903  -27.0212   12.4672 H         1 UNK         0.0798 
    105 H105      -52.1582  -28.1164   11.4598 H         1 UNK         0.0798 
    106 H106      -52.9931  -27.4367   14.8614 H         1 UNK         0.3198 
    107 H107      -54.6373  -29.1007   17.5001 H         1 UNK         0.0843 
    108 H108      -51.8764  -27.7738   17.7320 H         1 UNK         0.0831 
    109 H109      -52.2820  -29.3817   18.3150 H         1 UNK         0.0831 
    110 H110      -53.0413  -27.9771   19.0426 H         1 UNK         0.0831 
    111 H111      -53.9080  -26.3921   17.3015 H         1 UNK         0.3133 
    112 H112      -55.8103  -25.2070   14.6821 H         1 UNK         0.0566 
    113 H113      -57.1422  -23.8375   16.2618 H         1 UNK         0.0814 
    114 H114      -57.7432  -25.4854   16.2508 H         1 UNK         0.0814 
    115 H115      -56.7484  -24.9311   17.5898 H         1 UNK         0.0814 
    116 H116      -54.7064  -23.7045   16.7552 H         1 UNK         0.3091 
    117 H117      -52.6926  -22.5168   16.1061 H         1 UNK         0.0702 
    118 H118      -52.7517  -23.8427   18.2654 H         1 UNK         0.0785 
    119 H119      -51.4186  -24.8393   17.6944 H         1 UNK         0.0785 
    120 H120      -51.1711  -23.1280   18.0279 H         1 UNK         0.0785 
    121 H121      -51.0066  -24.3440   14.6934 H         1 UNK         0.2998 
    122 H122      -49.2129  -22.7909   13.3369 H         1 UNK         0.0697 
    123 H123      -47.3158  -22.0720   15.6321 H         1 UNK         0.0825 
    124 H124      -47.9585  -20.9656   14.4259 H         1 UNK         0.0825 
    125 H125      -46.8511  -22.2362   13.9390 H         1 UNK         0.0825 
    126 H126      -47.6855  -24.4962   15.1799 H         1 UNK         0.3029 
    127 H127      -47.4139  -26.6660   14.6311 H         1 UNK         0.0897 
    128 H128      -48.9207  -28.3789   15.6673 H         1 UNK         0.0792 
    129 H129      -50.3351  -27.5231   15.0524 H         1 UNK         0.0792 
    130 H130      -49.3080  -26.7729   16.2608 H         1 UNK         0.0792 
    131 H131      -49.0092  -28.4794   13.1389 H         1 UNK         0.3086 
    132 H132      -47.4756  -29.4238   11.1964 H         1 UNK         0.0583 
    133 H133      -49.8853  -29.0365   11.2073 H         1 UNK         0.1020 
    134 H134      -49.7493  -27.6440   10.1734 H         1 UNK         0.1020 
    135 H135      -51.3931  -31.0969    8.4851 H         1 UNK         0.0694 
    136 H136      -51.5057  -30.4086   10.0825 H         1 UNK         0.0694 
    137 H137      -47.3396  -27.3219    9.1216 H         1 UNK         0.2989 
    138 H138      -44.4980  -26.5845    9.1570 H         1 UNK         0.1055 
    139 H139      -42.8634  -28.4042    9.0261 H         1 UNK         0.0806 
    140 H140      -42.9636  -27.6229    7.4583 H         1 UNK         0.0806 
    141 H141      -43.7436  -29.1828    7.7225 H         1 UNK         0.0806 
    142 H142      -45.7342  -26.0192    7.4418 H         1 UNK         0.3061 
    143 H143      -46.5560  -27.1333    4.5336 H         1 UNK         0.0734 
    144 H144      -49.0756  -27.2012    4.6756 H         1 UNK         0.0832 
    145 H145      -48.3422  -28.7514    5.0566 H         1 UNK         0.0832 
    146 H146      -48.9346  -27.7271    6.3548 H         1 UNK         0.0832 
    147 H147      -47.8789  -25.4524    6.6211 H         1 UNK         0.3156 
    148 H148      -45.9544  -22.6218    5.7506 H         1 UNK         0.0589 
    149 H149      -47.6825  -22.4654    3.9460 H         1 UNK         0.0808 
    150 H150      -48.9214  -23.0103    5.0678 H         1 UNK         0.0808 
    151 H151      -48.1099  -21.4637    5.3222 H         1 UNK         0.0808 
    152 H152      -48.2168  -22.8570    7.4446 H         1 UNK         0.3098 
    153 H153      -46.7380  -24.4093   10.2369 H         1 UNK         0.0720 
    154 H154      -45.8664  -22.0776   10.4864 H         1 UNK         0.0791 
    155 H155      -47.3296  -22.3185   11.4268 H         1 UNK         0.0791 
    156 H156      -47.3961  -21.4319    9.9038 H         1 UNK         0.0791 
    157 H157      -49.2586  -23.1313    9.9718 H         1 UNK         0.3028 
@<TRIPOS>BOND
     1    1    2 1    
     2    1   82 1    
     3    1   83 1    
     4    1   84 1    
     5    2    3 2    
     6    2    4 am   BACKBONE|DICT|INTERRES
     7    4    5 1    
     8    4   85 1    
     9    5    6 1    
    10    5   80 1    
    11    5   86 1    
    12    6    7 1    
    13    6   87 1    
    14    6   88 1    
    15    7    8 1    
    16    8    9 1    
    17    8   89 1    
    18    8   90 1    
    19    9   10 ar   
    20    9   14 ar   
    21   10   11 ar   
    22   10   91 1    
    23   11   12 ar   
    24   11   58 1    
    25   12   13 ar   
    26   12   92 1    
    27   13   14 ar   
    28   13   15 1    
    29   14   93 1    
    30   15   16 1    
    31   15   94 1    
    32   15   95 1    
    33   16   17 1    
    34   17   18 1    
    35   17   96 1    
    36   17   97 1    
    37   18   19 1    
    38   18   22 1    
    39   18   98 1    
    40   19   20 am   BACKBONE|DICT|INTERRES
    41   19   21 2    
    42   20   99 1    
    43   20  100 1    
    44   22   23 am   BACKBONE|DICT|INTERRES
    45   22  101 1    
    46   23   24 2    
    47   23   25 1    
    48   25   26 1    
    49   25   27 1    
    50   25  102 1    
    51   26  103 1    
    52   26  104 1    
    53   26  105 1    
    54   27   28 am   BACKBONE|DICT|INTERRES
    55   27  106 1    
    56   28   29 2    
    57   28   30 1    
    58   30   31 1    
    59   30   32 1    
    60   30  107 1    
    61   31  108 1    
    62   31  109 1    
    63   31  110 1    
    64   32   33 am   BACKBONE|DICT|INTERRES
    65   32  111 1    
    66   33   34 2    
    67   33   35 1    
    68   35   36 1    
    69   35   37 1    
    70   35  112 1    
    71   36  113 1    
    72   36  114 1    
    73   36  115 1    
    74   37   38 am   BACKBONE|DICT|INTERRES
    75   37  116 1    
    76   38   39 2    
    77   38   40 1    
    78   40   41 1    
    79   40   42 1    
    80   40  117 1    
    81   41  118 1    
    82   41  119 1    
    83   41  120 1    
    84   42   43 am   BACKBONE|DICT|INTERRES
    85   42  121 1    
    86   43   44 2    
    87   43   45 1    
    88   45   46 1    
    89   45   47 1    
    90   45  122 1    
    91   46  123 1    
    92   46  124 1    
    93   46  125 1    
    94   47   48 am   BACKBONE|DICT|INTERRES
    95   47  126 1    
    96   48   49 2    
    97   48   50 1    
    98   50   51 1    
    99   50   52 1    
   100   50  127 1    
   101   51  128 1    
   102   51  129 1    
   103   51  130 1    
   104   52   53 am   BACKBONE|DICT|INTERRES
   105   52  131 1    
   106   53   54 2    
   107   53   55 1    
   108   55   56 1    
   109   55   59 1    
   110   55  132 1    
   111   56   57 1    
   112   56  133 1    
   113   56  134 1    
   114   57   58 1    
   115   58  135 1    
   116   58  136 1    
   117   59   60 am   BACKBONE|DICT|INTERRES
   118   59  137 1    
   119   60   61 2    
   120   60   62 1    
   121   62   63 1    
   122   62   64 1    
   123   62  138 1    
   124   63  139 1    
   125   63  140 1    
   126   63  141 1    
   127   64   65 am   BACKBONE|DICT|INTERRES
   128   64  142 1    
   129   65   66 2    
   130   65   67 1    
   131   67   68 1    
   132   67   69 1    
   133   67  143 1    
   134   68  144 1    
   135   68  145 1    
   136   68  146 1    
   137   69   70 am   BACKBONE|DICT|INTERRES
   138   69  147 1    
   139   70   71 2    
   140   70   72 1    
   141   72   73 1    
   142   72   74 1    
   143   72  148 1    
   144   73  149 1    
   145   73  150 1    
   146   73  151 1    
   147   74   75 am   BACKBONE|DICT|INTERRES
   148   74  152 1    
   149   75   76 2    
   150   75   77 1    
   151   77   78 1    
   152   77   79 1    
   153   77  153 1    
   154   78  154 1    
   155   78  155 1    
   156   78  156 1    
   157   79   80 am   BACKBONE|DICT|INTERRES
   158   79  157 1    
   159   80   81 2    
@<TRIPOS>SUBSTRUCTURE
     1 UNK         1 GROUP             0       ****    0 ROOT    
