@<TRIPOS>MOLECULE
3R207
157   159    1
SMALL
USER_CHARGES


@<TRIPOS>ATOM
      1 CA        -46.3927  -28.0619   11.5351 C.3       0 UNK        -0.1975 
      2 C         -46.8245  -27.7926   10.1018 C.2       0 UNK         0.4852 
      3 O         -46.1341  -27.0693    9.3804 O.2       0 UNK        -0.5216 
      4 N         -47.9412  -28.3996    9.6696 N.am      1 UNK        -0.4461 
      5 CA        -48.6142  -28.2121    8.3690 C.3       1 UNK         0.0864 
      6 C6        -49.2759  -26.8125    8.2497 C.3       14 UNK        -0.0898 
      7 S7        -50.6924  -26.6318    9.3817 S.3       14 UNK        -0.2598 
      8 C8        -52.0592  -27.1978    8.3140 C.3       14 UNK         0.0286 
      9 C9        -53.3434  -26.4515    8.6323 C.ar      14 UNK        -0.0844 
     10 C10       -53.5722  -25.1948    8.0669 C.ar      14 UNK        -0.0881 
     11 C11       -54.7093  -24.4536    8.4056 C.ar      14 UNK        -0.0643 
     12 C12       -55.6527  -25.0161    9.2728 C.ar      14 UNK        -0.0930 
     13 C13       -55.4599  -26.2955    9.8056 C.ar      14 UNK        -0.0827 
     14 C14       -54.2976  -27.0044    9.4893 C.ar      14 UNK        -0.1249 
     15 C15       -56.5103  -26.9211   10.7107 C.3       14 UNK         0.0141 
     16 S16       -55.9941  -26.8764   12.4520 S.3       14 UNK        -0.2313 
     17 C17       -57.4431  -27.6177   13.2781 C.3       14 UNK        -0.0915 
     18 CA        -57.2445  -29.0990   13.6986 C.3       13 UNK         0.0968 
     19 C         -57.2997  -30.0757   12.4846 C.2       13 UNK         0.5732 
     20 N         -56.2912  -30.9010   12.2268 N.am      13 UNK        -0.7310 
     21 O         -58.2932  -30.0918   11.7618 O.2       13 UNK        -0.5035 
     22 N         -56.0772  -29.2570   14.5774 N.am      13 UNK        -0.4233 
     23 C         -55.8791  -30.2792   15.4183 C.2       13 UNK         0.4989 
     24 O         -56.7197  -31.1514   15.6460 O.2       13 UNK        -0.4996 
     25 CA        -54.4962  -30.3376   16.0968 C.3       12 UNK         0.0216 
     26 CB        -54.1905  -31.7118   16.7292 C.3       12 UNK        -0.1964 
     27 N         -53.4071  -29.9267   15.2002 N.am      12 UNK        -0.4276 
     28 C         -53.0680  -30.4734   14.0224 C.2       12 UNK         0.5020 
     29 O         -53.6597  -31.4256   13.5127 O.2       12 UNK        -0.5489 
     30 CA        -51.8938  -29.8356   13.2591 C.3       11 UNK         0.0294 
     31 CB        -52.4200  -28.9047   12.1565 C.3       11 UNK        -0.2019 
     32 N         -50.9652  -29.0920   14.1141 N.am      11 UNK        -0.4493 
     33 C         -50.1247  -29.6503   14.9975 C.2       11 UNK         0.4932 
     34 O         -50.0231  -30.8637   15.1787 O.2       11 UNK        -0.5029 
     35 CA        -49.2622  -28.6900   15.8283 C.3       10 UNK         0.0280 
     36 CB        -48.0440  -28.2147   15.0189 C.3       10 UNK        -0.1976 
     37 N         -50.0451  -27.5345   16.2692 N.am      10 UNK        -0.4242 
     38 C         -50.7616  -27.4915   17.4019 C.2       10 UNK         0.5072 
     39 O         -50.7873  -28.4021   18.2307 O.2       10 UNK        -0.5224 
     40 CA        -51.5957  -26.2230   17.6660 C.3       9 UNK         0.0343 
     41 CB        -50.7993  -25.2261   18.5232 C.3       9 UNK        -0.2003 
     42 N         -52.0477  -25.5537   16.4443 N.am      9 UNK        -0.4272 
     43 C         -52.9565  -26.0535   15.5956 C.2       9 UNK         0.4988 
     44 O         -53.5530  -27.1144   15.7768 O.2       9 UNK        -0.5108 
     45 CA        -53.2108  -25.2636   14.3014 C.3       8 UNK         0.0248 
     46 CB        -54.3592  -24.2613   14.4932 C.3       8 UNK        -0.2001 
     47 N         -52.0382  -24.5693   13.7608 N.am      8 UNK        -0.4140 
     48 C         -50.8692  -25.1421   13.4463 C.2       8 UNK         0.5028 
     49 O         -50.6091  -26.3264   13.6680 O.2       8 UNK        -0.5428 
     50 CA        -49.8298  -24.2373   12.7638 C.3       7 UNK         0.0264 
     51 CB        -48.4485  -24.9074   12.6692 C.3       7 UNK        -0.1988 
     52 N         -50.2686  -23.8612   11.4196 N.am      7 UNK        -0.4454 
     53 C         -51.2016  -22.9444   11.1357 C.2       7 UNK         0.5027 
     54 O         -51.7491  -22.2454   11.9921 O.2       7 UNK        -0.5083 
     55 CA        -51.5641  -22.7850    9.6521 C.3       6 UNK         0.0844 
     56 C56       -52.8644  -21.9640    9.4378 C.3       14 UNK        -0.0967 
     57 S57       -53.4432  -22.0198    7.7073 S.3       14 UNK        -0.2604 
     58 C58       -54.9458  -23.0562    7.8327 C.3       14 UNK         0.0134 
     59 N         -50.4075  -22.2069    8.9707 N.am      6 UNK        -0.4116 
     60 C         -49.7865  -22.7254    7.9038 C.2       5 UNK         0.5034 
     61 O         -50.1535  -23.7400    7.3117 O.2       5 UNK        -0.5045 
     62 CA        -48.5298  -21.9899    7.3975 C.3       5 UNK         0.0224 
     63 CB        -48.4916  -20.4905    7.7727 C.3       5 UNK        -0.1978 
     64 N         -47.2848  -22.6536    7.8081 N.am      5 UNK        -0.4737 
     65 C         -46.8842  -22.9396    9.0548 C.2       4 UNK         0.5027 
     66 O         -47.5526  -22.6898   10.0576 O.2       4 UNK        -0.5211 
     67 CA        -45.4886  -23.5778    9.2092 C.3       4 UNK         0.0297 
     68 CB        -45.2183  -24.0800   10.6398 C.3       4 UNK        -0.1993 
     69 N         -45.2264  -24.6732    8.2680 N.am      4 UNK        -0.4486 
     70 C         -44.7899  -24.5061    7.0124 C.2       3 UNK         0.4961 
     71 O         -44.7507  -23.4045    6.4628 O.2       3 UNK        -0.5105 
     72 CA        -44.2774  -25.7272    6.2331 C.3       3 UNK         0.0299 
     73 CB        -42.7436  -25.8203    6.3632 C.3       3 UNK        -0.1972 
     74 N         -44.8948  -27.0051    6.6078 N.am      3 UNK        -0.4305 
     75 C         -44.9071  -28.0791    5.7989 C.2       2 UNK         0.5006 
     76 O         -44.4227  -28.0841    4.6658 O.2       2 UNK        -0.5106 
     77 CA        -45.5513  -29.3797    6.3183 C.3       2 UNK         0.0296 
     78 CB        -44.4751  -30.3205    6.8847 C.3       2 UNK        -0.2002 
     79 N         -46.5751  -29.1570    7.3364 N.am      2 UNK        -0.4032 
     80 C         -47.7466  -28.5414    7.1281 C.2       1 UNK         0.5000 
     81 O         -48.1498  -28.2372    6.0036 O.2       1 UNK        -0.5238 
     82 H82       -46.3280  -27.1273   12.0908 H         1 UNK         0.0889 
     83 H83       -45.4100  -28.5322   11.5472 H         1 UNK         0.0889 
     84 H84       -47.0908  -28.7184   12.0536 H         1 UNK         0.0889 
     85 H85       -48.4383  -29.0027   10.3102 H         1 UNK         0.3028 
     86 H86       -49.4110  -28.9570    8.3394 H         1 UNK         0.0864 
     87 H87       -49.6219  -26.6021    7.2368 H         1 UNK         0.0720 
     88 H88       -48.5539  -26.0249    8.4721 H         1 UNK         0.0720 
     89 H89       -52.1946  -28.2723    8.4458 H         1 UNK         0.0814 
     90 H90       -51.8165  -27.0475    7.2615 H         1 UNK         0.0814 
     91 H91       -52.8369  -24.7763    7.3924 H         1 UNK         0.1469 
     92 H92       -56.5451  -24.4607    9.5276 H         1 UNK         0.1381 
     93 H93       -54.1369  -27.9846    9.9153 H         1 UNK         0.1206 
     94 H94       -56.6823  -27.9546   10.4071 H         1 UNK         0.0813 
     95 H95       -57.4648  -26.4036   10.6028 H         1 UNK         0.0813 
     96 H96       -58.3286  -27.5037   12.6501 H         1 UNK         0.0638 
     97 H97       -57.6445  -27.0195   14.1679 H         1 UNK         0.0638 
     98 H98       -58.1184  -29.3620   14.2974 H         1 UNK         0.0568 
     99 H99       -56.3644  -31.5227   11.4382 H         1 UNK         0.3450 
    100 H100      -55.4662  -30.9395   12.8155 H         1 UNK         0.3450 
    101 H101      -55.3378  -28.5797   14.4537 H         1 UNK         0.2987 
    102 H102      -54.5224  -29.6011   16.9014 H         1 UNK         0.0766 
    103 H103      -54.9295  -31.9668   17.4896 H         1 UNK         0.0798 
    104 H104      -53.2138  -31.7157   17.2133 H         1 UNK         0.0798 
    105 H105      -54.1992  -32.5099   15.9859 H         1 UNK         0.0798 
    106 H106      -52.9343  -29.0712   15.4714 H         1 UNK         0.3198 
    107 H107      -51.3371  -30.6460   12.7839 H         1 UNK         0.0843 
    108 H108      -52.9938  -28.0738   12.5664 H         1 UNK         0.0831 
    109 H109      -53.0731  -29.4463   11.4713 H         1 UNK         0.0831 
    110 H110      -51.6043  -28.4874   11.5668 H         1 UNK         0.0831 
    111 H111      -50.9287  -28.0811   13.9819 H         1 UNK         0.3133 
    112 H112      -48.8917  -29.2328   16.7006 H         1 UNK         0.0566 
    113 H113      -47.4182  -27.5399   15.6029 H         1 UNK         0.0814 
    114 H114      -48.3381  -27.6941   14.1074 H         1 UNK         0.0814 
    115 H115      -47.4212  -29.0601   14.7236 H         1 UNK         0.0814 
    116 H116      -50.1408  -26.7792   15.5996 H         1 UNK         0.3091 
    117 H117      -52.4810  -26.5256   18.2296 H         1 UNK         0.0702 
    118 H118      -51.4042  -24.3589   18.7891 H         1 UNK         0.0785 
    119 H119      -49.9075  -24.8696   18.0061 H         1 UNK         0.0785 
    120 H120      -50.4722  -25.6885   19.4557 H         1 UNK         0.0785 
    121 H121      -51.6113  -24.6728   16.2145 H         1 UNK         0.2998 
    122 H122      -53.5119  -25.9868   13.5445 H         1 UNK         0.0697 
    123 H123      -54.0965  -23.4741   15.2007 H         1 UNK         0.0825 
    124 H124      -55.2520  -24.7601   14.8735 H         1 UNK         0.0825 
    125 H125      -54.6341  -23.7901   13.5492 H         1 UNK         0.0825 
    126 H126      -52.1647  -23.6001   13.4880 H         1 UNK         0.3029 
    127 H127      -49.7238  -23.3357   13.3709 H         1 UNK         0.0897 
    128 H128      -48.4701  -25.7828   12.0192 H         1 UNK         0.0792 
    129 H129      -48.0991  -25.2309   13.6504 H         1 UNK         0.0792 
    130 H130      -47.7069  -24.2121   12.2795 H         1 UNK         0.0792 
    131 H131      -49.8777  -24.3967   10.6561 H         1 UNK         0.3086 
    132 H132      -51.7335  -23.7971    9.2906 H         1 UNK         0.0583 
    133 H133      -53.6619  -22.3335   10.0859 H         1 UNK         0.1020 
    134 H134      -52.7102  -20.9207    9.7192 H         1 UNK         0.1020 
    135 H135      -55.6805  -22.5187    8.4343 H         1 UNK         0.0694 
    136 H136      -55.3796  -23.1601    6.8375 H         1 UNK         0.0694 
    137 H137      -49.9840  -21.4102    9.4243 H         1 UNK         0.2989 
    138 H138      -48.5678  -22.0507    6.3085 H         1 UNK         0.1055 
    139 H139      -48.3578  -20.3299    8.8429 H         1 UNK         0.0806 
    140 H140      -49.4114  -19.9860    7.4728 H         1 UNK         0.0806 
    141 H141      -47.6715  -19.9843    7.2633 H         1 UNK         0.0806 
    142 H142      -46.6408  -22.8964    7.0620 H         1 UNK         0.3061 
    143 H143      -44.7698  -22.7784    9.0161 H         1 UNK         0.0734 
    144 H144      -45.9057  -24.8770   10.9198 H         1 UNK         0.0832 
    145 H145      -44.2032  -24.4637   10.7411 H         1 UNK         0.0832 
    146 H146      -45.3326  -23.2769   11.3690 H         1 UNK         0.0832 
    147 H147      -45.3466  -25.6073    8.6534 H         1 UNK         0.3156 
    148 H148      -44.5181  -25.5305    5.1858 H         1 UNK         0.0589 
    149 H149      -42.4436  -26.0764    7.3800 H         1 UNK         0.0808 
    150 H150      -42.2687  -24.8707    6.1117 H         1 UNK         0.0808 
    151 H151      -42.3268  -26.5712    5.6922 H         1 UNK         0.0808 
    152 H152      -45.3319  -27.0705    7.5215 H         1 UNK         0.3098 
    153 H153      -46.0252  -29.8740    5.4676 H         1 UNK         0.0720 
    154 H154      -43.7087  -30.5310    6.1372 H         1 UNK         0.0791 
    155 H155      -44.9019  -31.2773    7.1861 H         1 UNK         0.0791 
    156 H156      -43.9742  -29.8865    7.7512 H         1 UNK         0.0791 
    157 H157      -46.3226  -29.3679    8.2908 H         1 UNK         0.3028 
@<TRIPOS>BOND
     1    1    2 1    
     2    1   82 1    
     3    1   83 1    
     4    1   84 1    
     5    2    3 2    
     6    2    4 am   BACKBONE|DICT|INTERRES
     7    4    5 1    
     8    4   85 1    
     9    5    6 1    
    10    5   80 1    
    11    5   86 1    
    12    6    7 1    
    13    6   87 1    
    14    6   88 1    
    15    7    8 1    
    16    8    9 1    
    17    8   89 1    
    18    8   90 1    
    19    9   10 ar   
    20    9   14 ar   
    21   10   11 ar   
    22   10   91 1    
    23   11   12 ar   
    24   11   58 1    
    25   12   13 ar   
    26   12   92 1    
    27   13   14 ar   
    28   13   15 1    
    29   14   93 1    
    30   15   16 1    
    31   15   94 1    
    32   15   95 1    
    33   16   17 1    
    34   17   18 1    
    35   17   96 1    
    36   17   97 1    
    37   18   19 1    
    38   18   22 1    
    39   18   98 1    
    40   19   20 am   BACKBONE|DICT|INTERRES
    41   19   21 2    
    42   20   99 1    
    43   20  100 1    
    44   22   23 am   BACKBONE|DICT|INTERRES
    45   22  101 1    
    46   23   24 2    
    47   23   25 1    
    48   25   26 1    
    49   25   27 1    
    50   25  102 1    
    51   26  103 1    
    52   26  104 1    
    53   26  105 1    
    54   27   28 am   BACKBONE|DICT|INTERRES
    55   27  106 1    
    56   28   29 2    
    57   28   30 1    
    58   30   31 1    
    59   30   32 1    
    60   30  107 1    
    61   31  108 1    
    62   31  109 1    
    63   31  110 1    
    64   32   33 am   BACKBONE|DICT|INTERRES
    65   32  111 1    
    66   33   34 2    
    67   33   35 1    
    68   35   36 1    
    69   35   37 1    
    70   35  112 1    
    71   36  113 1    
    72   36  114 1    
    73   36  115 1    
    74   37   38 am   BACKBONE|DICT|INTERRES
    75   37  116 1    
    76   38   39 2    
    77   38   40 1    
    78   40   41 1    
    79   40   42 1    
    80   40  117 1    
    81   41  118 1    
    82   41  119 1    
    83   41  120 1    
    84   42   43 am   BACKBONE|DICT|INTERRES
    85   42  121 1    
    86   43   44 2    
    87   43   45 1    
    88   45   46 1    
    89   45   47 1    
    90   45  122 1    
    91   46  123 1    
    92   46  124 1    
    93   46  125 1    
    94   47   48 am   BACKBONE|DICT|INTERRES
    95   47  126 1    
    96   48   49 2    
    97   48   50 1    
    98   50   51 1    
    99   50   52 1    
   100   50  127 1    
   101   51  128 1    
   102   51  129 1    
   103   51  130 1    
   104   52   53 am   BACKBONE|DICT|INTERRES
   105   52  131 1    
   106   53   54 2    
   107   53   55 1    
   108   55   56 1    
   109   55   59 1    
   110   55  132 1    
   111   56   57 1    
   112   56  133 1    
   113   56  134 1    
   114   57   58 1    
   115   58  135 1    
   116   58  136 1    
   117   59   60 am   BACKBONE|DICT|INTERRES
   118   59  137 1    
   119   60   61 2    
   120   60   62 1    
   121   62   63 1    
   122   62   64 1    
   123   62  138 1    
   124   63  139 1    
   125   63  140 1    
   126   63  141 1    
   127   64   65 am   BACKBONE|DICT|INTERRES
   128   64  142 1    
   129   65   66 2    
   130   65   67 1    
   131   67   68 1    
   132   67   69 1    
   133   67  143 1    
   134   68  144 1    
   135   68  145 1    
   136   68  146 1    
   137   69   70 am   BACKBONE|DICT|INTERRES
   138   69  147 1    
   139   70   71 2    
   140   70   72 1    
   141   72   73 1    
   142   72   74 1    
   143   72  148 1    
   144   73  149 1    
   145   73  150 1    
   146   73  151 1    
   147   74   75 am   BACKBONE|DICT|INTERRES
   148   74  152 1    
   149   75   76 2    
   150   75   77 1    
   151   77   78 1    
   152   77   79 1    
   153   77  153 1    
   154   78  154 1    
   155   78  155 1    
   156   78  156 1    
   157   79   80 am   BACKBONE|DICT|INTERRES
   158   79  157 1    
   159   80   81 2    
@<TRIPOS>SUBSTRUCTURE
     1 UNK         1 GROUP             0       ****    0 ROOT    
