@<TRIPOS>MOLECULE
3R207
157   159    1
SMALL
USER_CHARGES


@<TRIPOS>ATOM
      1 CA        -48.3241  -31.2416    3.7290 C.3       0 UNK        -0.1975 
      2 C         -48.5998  -29.8889    4.3687 C.2       0 UNK         0.4852 
      3 O         -47.8799  -28.9273    4.0991 O.2       0 UNK        -0.5216 
      4 N         -49.6344  -29.8096    5.2161 N.am      1 UNK        -0.4461 
      5 CA        -50.0614  -28.5849    5.9073 C.3       1 UNK         0.0864 
      6 C6        -51.5344  -28.6772    6.3746 C.3       14 UNK        -0.0898 
      7 S7        -52.7013  -28.6839    4.9718 S.3       14 UNK        -0.2598 
      8 C8        -54.3166  -28.6460    5.8214 C.3       14 UNK         0.0286 
      9 C9        -54.4115  -27.5214    6.8447 C.ar      14 UNK        -0.0844 
     10 C10       -54.4476  -26.1855    6.4325 C.ar      14 UNK        -0.0881 
     11 C11       -54.4820  -25.1515    7.3744 C.ar      14 UNK        -0.0643 
     12 C12       -54.4886  -25.4642    8.7374 C.ar      14 UNK        -0.0930 
     13 C13       -54.4483  -26.7968    9.1607 C.ar      14 UNK        -0.0827 
     14 C14       -54.4246  -27.8201    8.2099 C.ar      14 UNK        -0.1249 
     15 C15       -54.4055  -27.1305   10.6437 C.3       14 UNK         0.0141 
     16 S16       -52.7662  -27.7585   11.1263 S.3       14 UNK        -0.2313 
     17 C17       -53.0254  -29.5644   11.1735 C.3       14 UNK        -0.0915 
     18 CA        -52.7055  -30.2182   12.5498 C.3       13 UNK         0.0968 
     19 C         -51.1924  -30.4014   12.8569 C.2       13 UNK         0.5732 
     20 N         -50.7780  -30.4190   14.1195 N.am      13 UNK        -0.7310 
     21 O         -50.3829  -30.5720   11.9497 O.2       13 UNK        -0.5035 
     22 N         -53.4333  -29.5967   13.6672 N.am      13 UNK        -0.4233 
     23 C         -54.5704  -30.0643   14.1927 C.2       13 UNK         0.4989 
     24 O         -55.2050  -31.0036   13.7082 O.2       13 UNK        -0.4996 
     25 CA        -55.0913  -29.3823   15.4771 C.3       12 UNK         0.0216 
     26 CB        -55.9910  -30.3161   16.3143 C.3       12 UNK        -0.1964 
     27 N         -54.0525  -28.7913   16.3337 N.am      12 UNK        -0.4276 
     28 C         -52.9740  -29.3934   16.8650 C.2       12 UNK         0.5020 
     29 O         -52.6700  -30.5656   16.6385 O.2       12 UNK        -0.5489 
     30 CA        -52.0602  -28.5436   17.7722 C.3       11 UNK         0.0294 
     31 CB        -50.5729  -28.8858   17.5649 C.3       11 UNK        -0.2019 
     32 N         -52.2475  -27.1166   17.5142 N.am      11 UNK        -0.4493 
     33 C         -52.7611  -26.2190   18.3662 C.2       11 UNK         0.4932 
     34 O         -53.0587  -26.4740   19.5331 O.2       11 UNK        -0.5029 
     35 CA        -53.0141  -24.7966   17.8218 C.3       10 UNK         0.0280 
     36 CB        -51.8728  -23.8546   18.2366 C.3       10 UNK        -0.1976 
     37 N         -53.1741  -24.7380   16.3646 N.am      10 UNK        -0.4242 
     38 C         -54.1348  -25.3640   15.6663 C.2       10 UNK         0.5072 
     39 O         -55.0605  -25.9862   16.1873 O.2       10 UNK        -0.5224 
     40 CA        -53.9949  -25.3794   14.1330 C.3       9 UNK         0.0343 
     41 CB        -54.8190  -24.2344   13.5236 C.3       9 UNK        -0.2003 
     42 N         -52.6033  -25.2938   13.6706 N.am      9 UNK        -0.4272 
     43 C         -51.6187  -26.1446   14.0129 C.2       9 UNK         0.4988 
     44 O         -51.8264  -27.1752   14.6550 O.2       9 UNK        -0.5108 
     45 CA        -50.1626  -25.7878   13.6424 C.3       8 UNK         0.0248 
     46 CB        -49.5418  -26.8578   12.7318 C.3       8 UNK        -0.2001 
     47 N         -49.9985  -24.4696   13.0243 N.am      8 UNK        -0.4140 
     48 C         -50.2237  -23.2955   13.6368 C.2       8 UNK         0.5028 
     49 O         -50.5012  -23.1975   14.8333 O.2       8 UNK        -0.5428 
     50 CA        -50.2162  -22.0249   12.7621 C.3       7 UNK         0.0264 
     51 CB        -48.8841  -21.2756   12.9165 C.3       7 UNK        -0.1988 
     52 N         -50.4689  -22.2871   11.3394 N.am      7 UNK        -0.4454 
     53 C         -51.5841  -22.8530   10.8474 C.2       7 UNK         0.5027 
     54 O         -52.5689  -23.0987   11.5432 O.2       7 UNK        -0.5083 
     55 CA        -51.6046  -23.2721    9.3585 C.3       6 UNK         0.0844 
     56 C56       -52.6009  -22.3928    8.5637 C.3       14 UNK        -0.0967 
     57 S57       -52.8474  -22.9649    6.8456 S.3       14 UNK        -0.2604 
     58 C58       -54.5148  -23.7007    6.9138 C.3       14 UNK         0.0134 
     59 N         -50.2813  -23.3280    8.7210 N.am      6 UNK        -0.4116 
     60 C         -49.2582  -24.1037    9.1072 C.2       5 UNK         0.5034 
     61 O         -49.2980  -24.8215   10.1109 O.2       5 UNK        -0.5045 
     62 CA        -47.9755  -24.0508    8.2492 C.3       5 UNK         0.0224 
     63 CB        -47.7634  -22.7057    7.5154 C.3       5 UNK        -0.1978 
     64 N         -46.7924  -24.4243    9.0321 N.am      5 UNK        -0.4737 
     65 C         -46.2833  -23.7700   10.0877 C.2       4 UNK         0.5027 
     66 O         -46.6656  -22.6564   10.4482 O.2       4 UNK        -0.5211 
     67 CA        -45.1894  -24.4779   10.9117 C.3       4 UNK         0.0297 
     68 CB        -45.6428  -24.6423   12.3735 C.3       4 UNK        -0.1993 
     69 N         -44.8313  -25.7963   10.3810 N.am      4 UNK        -0.4486 
     70 C         -43.9301  -26.0189    9.4151 C.2       3 UNK         0.4961 
     71 O         -43.2448  -25.1364    8.8983 O.2       3 UNK        -0.5105 
     72 CA        -43.7817  -27.4732    8.9298 C.3       3 UNK         0.0299 
     73 CB        -42.6481  -28.1796    9.6907 C.3       3 UNK        -0.1972 
     74 N         -45.0148  -28.2629    9.0490 N.am      3 UNK        -0.4305 
     75 C         -46.1315  -28.0446    8.3394 C.2       2 UNK         0.5006 
     76 O         -46.2354  -27.1395    7.5100 O.2       2 UNK        -0.5106 
     77 CA        -47.3133  -28.9833    8.6511 C.3       2 UNK         0.0296 
     78 CB        -48.0029  -28.5719    9.9692 C.3       2 UNK        -0.2002 
     79 N         -48.2866  -29.1075    7.5541 N.am      2 UNK        -0.4032 
     80 C         -49.1499  -28.1877    7.0901 C.2       1 UNK         0.5000 
     81 O         -49.2767  -27.0583    7.5600 O.2       1 UNK        -0.5238 
     82 H82       -48.3907  -31.1633    2.6442 H         1 UNK         0.0889 
     83 H83       -49.0334  -32.0011    4.0575 H         1 UNK         0.0889 
     84 H84       -47.3208  -31.5808    3.9852 H         1 UNK         0.0889 
     85 H85       -50.2059  -30.6262    5.3821 H         1 UNK         0.3028 
     86 H86       -49.9916  -27.7594    5.1949 H         1 UNK         0.0864 
     87 H87       -51.7793  -27.8186    7.0029 H         1 UNK         0.0720 
     88 H88       -51.6994  -29.5636    6.9897 H         1 UNK         0.0720 
     89 H89       -54.4875  -29.6139    6.2952 H         1 UNK         0.0814 
     90 H90       -55.1065  -28.5267    5.0786 H         1 UNK         0.0814 
     91 H91       -54.4273  -25.9521    5.3766 H         1 UNK         0.1469 
     92 H92       -54.5076  -24.6682    9.4690 H         1 UNK         0.1381 
     93 H93       -54.3816  -28.8498    8.5373 H         1 UNK         0.1206 
     94 H94       -54.6132  -26.2392   11.2338 H         1 UNK         0.0813 
     95 H95       -55.1918  -27.8432   10.8941 H         1 UNK         0.0813 
     96 H96       -52.4282  -30.0153   10.3794 H         1 UNK         0.0638 
     97 H97       -54.0594  -29.7891   10.9120 H         1 UNK         0.0638 
     98 H98       -53.0406  -31.2533   12.4660 H         1 UNK         0.0568 
     99 H99       -49.7987  -30.5557   14.3082 H         1 UNK         0.3450 
    100 H100      -51.4397  -30.3734   14.8838 H         1 UNK         0.3450 
    101 H101      -52.9550  -28.8187   14.1108 H         1 UNK         0.2987 
    102 H102      -55.7088  -28.5497   15.1372 H         1 UNK         0.0766 
    103 H103      -56.8509  -30.6593   15.7377 H         1 UNK         0.0798 
    104 H104      -55.4486  -31.2007   16.6503 H         1 UNK         0.0798 
    105 H105      -56.3799  -29.8064   17.1958 H         1 UNK         0.0798 
    106 H106      -54.2039  -27.8128   16.5570 H         1 UNK         0.3198 
    107 H107      -52.3284  -28.7853   18.8026 H         1 UNK         0.0843 
    108 H108      -50.3730  -29.9346   17.7880 H         1 UNK         0.0831 
    109 H109      -49.9361  -28.2914   18.2201 H         1 UNK         0.0831 
    110 H110      -50.2583  -28.7025   16.5367 H         1 UNK         0.0831 
    111 H111      -52.0527  -26.8347   16.5573 H         1 UNK         0.3133 
    112 H112      -53.9408  -24.4341   18.2712 H         1 UNK         0.0566 
    113 H113      -52.0771  -22.8266   17.9367 H         1 UNK         0.0814 
    114 H114      -51.7384  -23.8546   19.3192 H         1 UNK         0.0814 
    115 H115      -50.9229  -24.1507   17.7889 H         1 UNK         0.0814 
    116 H116      -52.4495  -24.2522   15.8501 H         1 UNK         0.3091 
    117 H117      -54.4001  -26.3284   13.7764 H         1 UNK         0.0702 
    118 H118      -54.8173  -24.2705   12.4351 H         1 UNK         0.0785 
    119 H119      -54.4333  -23.2587   13.8221 H         1 UNK         0.0785 
    120 H120      -55.8603  -24.2872   13.8446 H         1 UNK         0.0785 
    121 H121      -52.3770  -24.4945   13.0890 H         1 UNK         0.2998 
    122 H122      -49.6003  -25.7824   14.5781 H         1 UNK         0.0697 
    123 H123      -49.6169  -27.8486   13.1800 H         1 UNK         0.0825 
    124 H124      -48.4847  -26.6656   12.5543 H         1 UNK         0.0825 
    125 H125      -50.0377  -26.8991   11.7621 H         1 UNK         0.0825 
    126 H126      -49.7785  -24.4686   12.0316 H         1 UNK         0.3029 
    127 H127      -51.0185  -21.3787   13.1245 H         1 UNK         0.0897 
    128 H128      -48.8765  -20.3499   12.3408 H         1 UNK         0.0792 
    129 H129      -48.7066  -21.0093   13.9595 H         1 UNK         0.0792 
    130 H130      -48.0401  -21.8834   12.5896 H         1 UNK         0.0792 
    131 H131      -49.6931  -22.1368   10.7098 H         1 UNK         0.3086 
    132 H132      -51.9826  -24.2962    9.3489 H         1 UNK         0.0583 
    133 H133      -53.5680  -22.3541    9.0686 H         1 UNK         0.1020 
    134 H134      -52.2480  -21.3603    8.5286 H         1 UNK         0.1020 
    135 H135      -55.1667  -23.1101    7.5590 H         1 UNK         0.0694 
    136 H136      -54.9549  -23.6431    5.9171 H         1 UNK         0.0694 
    137 H137      -50.1759  -22.7735    7.8844 H         1 UNK         0.2989 
    138 H138      -48.0818  -24.8234    7.4878 H         1 UNK         0.1055 
    139 H139      -46.7994  -22.6849    7.0070 H         1 UNK         0.0806 
    140 H140      -47.7955  -21.8549    8.1970 H         1 UNK         0.0806 
    141 H141      -48.5241  -22.5454    6.7508 H         1 UNK         0.0806 
    142 H142      -46.4184  -25.3398    8.8138 H         1 UNK         0.3061 
    143 H143      -44.3073  -23.8342   10.9002 H         1 UNK         0.0734 
    144 H144      -45.8524  -23.6737   12.8296 H         1 UNK         0.0832 
    145 H145      -46.5530  -25.2375   12.4488 H         1 UNK         0.0832 
    146 H146      -44.8734  -25.1219   12.9786 H         1 UNK         0.0832 
    147 H147      -45.3454  -26.5856   10.7439 H         1 UNK         0.3156 
    148 H148      -43.5096  -27.4382    7.8726 H         1 UNK         0.0589 
    149 H149      -42.8674  -28.2675   10.7556 H         1 UNK         0.0808 
    150 H150      -42.4700  -29.1814    9.2993 H         1 UNK         0.0808 
    151 H151      -41.7120  -27.6270    9.5962 H         1 UNK         0.0808 
    152 H152      -44.9994  -29.0269    9.7102 H         1 UNK         0.3098 
    153 H153      -46.9039  -29.9856    8.7867 H         1 UNK         0.0720 
    154 H154      -48.8773  -29.1905   10.1704 H         1 UNK         0.0791 
    155 H155      -48.3315  -27.5318    9.9493 H         1 UNK         0.0791 
    156 H156      -47.3299  -28.6802   10.8200 H         1 UNK         0.0791 
    157 H157      -48.2648  -29.9887    7.0618 H         1 UNK         0.3028 
@<TRIPOS>BOND
     1    1    2 1    
     2    1   82 1    
     3    1   83 1    
     4    1   84 1    
     5    2    3 2    
     6    2    4 am   BACKBONE|DICT|INTERRES
     7    4    5 1    
     8    4   85 1    
     9    5    6 1    
    10    5   80 1    
    11    5   86 1    
    12    6    7 1    
    13    6   87 1    
    14    6   88 1    
    15    7    8 1    
    16    8    9 1    
    17    8   89 1    
    18    8   90 1    
    19    9   10 ar   
    20    9   14 ar   
    21   10   11 ar   
    22   10   91 1    
    23   11   12 ar   
    24   11   58 1    
    25   12   13 ar   
    26   12   92 1    
    27   13   14 ar   
    28   13   15 1    
    29   14   93 1    
    30   15   16 1    
    31   15   94 1    
    32   15   95 1    
    33   16   17 1    
    34   17   18 1    
    35   17   96 1    
    36   17   97 1    
    37   18   19 1    
    38   18   22 1    
    39   18   98 1    
    40   19   20 am   BACKBONE|DICT|INTERRES
    41   19   21 2    
    42   20   99 1    
    43   20  100 1    
    44   22   23 am   BACKBONE|DICT|INTERRES
    45   22  101 1    
    46   23   24 2    
    47   23   25 1    
    48   25   26 1    
    49   25   27 1    
    50   25  102 1    
    51   26  103 1    
    52   26  104 1    
    53   26  105 1    
    54   27   28 am   BACKBONE|DICT|INTERRES
    55   27  106 1    
    56   28   29 2    
    57   28   30 1    
    58   30   31 1    
    59   30   32 1    
    60   30  107 1    
    61   31  108 1    
    62   31  109 1    
    63   31  110 1    
    64   32   33 am   BACKBONE|DICT|INTERRES
    65   32  111 1    
    66   33   34 2    
    67   33   35 1    
    68   35   36 1    
    69   35   37 1    
    70   35  112 1    
    71   36  113 1    
    72   36  114 1    
    73   36  115 1    
    74   37   38 am   BACKBONE|DICT|INTERRES
    75   37  116 1    
    76   38   39 2    
    77   38   40 1    
    78   40   41 1    
    79   40   42 1    
    80   40  117 1    
    81   41  118 1    
    82   41  119 1    
    83   41  120 1    
    84   42   43 am   BACKBONE|DICT|INTERRES
    85   42  121 1    
    86   43   44 2    
    87   43   45 1    
    88   45   46 1    
    89   45   47 1    
    90   45  122 1    
    91   46  123 1    
    92   46  124 1    
    93   46  125 1    
    94   47   48 am   BACKBONE|DICT|INTERRES
    95   47  126 1    
    96   48   49 2    
    97   48   50 1    
    98   50   51 1    
    99   50   52 1    
   100   50  127 1    
   101   51  128 1    
   102   51  129 1    
   103   51  130 1    
   104   52   53 am   BACKBONE|DICT|INTERRES
   105   52  131 1    
   106   53   54 2    
   107   53   55 1    
   108   55   56 1    
   109   55   59 1    
   110   55  132 1    
   111   56   57 1    
   112   56  133 1    
   113   56  134 1    
   114   57   58 1    
   115   58  135 1    
   116   58  136 1    
   117   59   60 am   BACKBONE|DICT|INTERRES
   118   59  137 1    
   119   60   61 2    
   120   60   62 1    
   121   62   63 1    
   122   62   64 1    
   123   62  138 1    
   124   63  139 1    
   125   63  140 1    
   126   63  141 1    
   127   64   65 am   BACKBONE|DICT|INTERRES
   128   64  142 1    
   129   65   66 2    
   130   65   67 1    
   131   67   68 1    
   132   67   69 1    
   133   67  143 1    
   134   68  144 1    
   135   68  145 1    
   136   68  146 1    
   137   69   70 am   BACKBONE|DICT|INTERRES
   138   69  147 1    
   139   70   71 2    
   140   70   72 1    
   141   72   73 1    
   142   72   74 1    
   143   72  148 1    
   144   73  149 1    
   145   73  150 1    
   146   73  151 1    
   147   74   75 am   BACKBONE|DICT|INTERRES
   148   74  152 1    
   149   75   76 2    
   150   75   77 1    
   151   77   78 1    
   152   77   79 1    
   153   77  153 1    
   154   78  154 1    
   155   78  155 1    
   156   78  156 1    
   157   79   80 am   BACKBONE|DICT|INTERRES
   158   79  157 1    
   159   80   81 2    
@<TRIPOS>SUBSTRUCTURE
     1 UNK         1 GROUP             0       ****    0 ROOT    
