@<TRIPOS>MOLECULE
3R207
157   159    1
SMALL
USER_CHARGES


@<TRIPOS>ATOM
      1 CA        -45.3210  -28.8565    7.0960 C.3       0 UNK        -0.1975 
      2 C         -46.3015  -28.5553    5.9724 C.2       0 UNK         0.4852 
      3 O         -45.8804  -28.3095    4.8413 O.2       0 UNK        -0.5216 
      4 N         -47.6070  -28.5508    6.2749 N.am      1 UNK        -0.4461 
      5 CA        -48.7235  -28.3118    5.3459 C.3       1 UNK         0.0864 
      6 C6        -50.0611  -28.8395    5.9276 C.3       14 UNK        -0.0898 
      7 S7        -50.0219  -30.6060    6.3767 S.3       14 UNK        -0.2598 
      8 C8        -51.7373  -30.8527    6.9420 C.3       14 UNK         0.0286 
      9 C9        -52.0143  -30.1174    8.2458 C.ar      14 UNK        -0.0844 
     10 C10       -52.6098  -28.8517    8.2331 C.ar      14 UNK        -0.0881 
     11 C11       -52.8295  -28.1575    9.4262 C.ar      14 UNK        -0.0643 
     12 C12       -52.4627  -28.7462   10.6381 C.ar      14 UNK        -0.0930 
     13 C13       -51.8927  -30.0216   10.6672 C.ar      14 UNK        -0.0827 
     14 C14       -51.6690  -30.7023    9.4673 C.ar      14 UNK        -0.1249 
     15 C15       -51.4960  -30.6545   11.9918 C.3       14 UNK         0.0141 
     16 S16       -52.8721  -31.5834   12.7434 S.3       14 UNK        -0.2313 
     17 C17       -53.9644  -30.2415   13.3208 C.3       14 UNK        -0.0915 
     18 CA        -55.1778  -30.0117   12.3765 C.3       13 UNK         0.0968 
     19 C         -56.3709  -30.9334   12.7549 C.2       13 UNK         0.5732 
     20 N         -56.4706  -32.1059   12.1438 N.am      13 UNK        -0.7310 
     21 O         -57.1784  -30.6112   13.6251 O.2       13 UNK        -0.5035 
     22 N         -55.5270  -28.5854   12.3346 N.am      13 UNK        -0.4233 
     23 C         -56.4858  -28.0129   11.5980 C.2       13 UNK         0.4989 
     24 O         -57.1858  -28.6307   10.7938 O.2       13 UNK        -0.4996 
     25 CA        -56.6948  -26.4892   11.7806 C.3       12 UNK         0.0216 
     26 CB        -58.0874  -26.0312   11.3064 C.3       12 UNK        -0.1964 
     27 N         -56.4844  -26.0101   13.1542 N.am      12 UNK        -0.4276 
     28 C         -55.3038  -25.8759   13.7709 C.2       12 UNK         0.5020 
     29 O         -54.2250  -26.1828   13.2563 O.2       12 UNK        -0.5489 
     30 CA        -55.3443  -25.3923   15.2233 C.3       11 UNK         0.0294 
     31 CB        -55.7955  -26.5368   16.1538 C.3       11 UNK        -0.2019 
     32 N         -54.0084  -24.9408   15.5971 N.am      11 UNK        -0.4493 
     33 C         -53.6866  -24.2306   16.6852 C.2       11 UNK         0.4932 
     34 O         -54.5160  -23.7931   17.4851 O.2       11 UNK        -0.5029 
     35 CA        -52.1822  -23.9843   16.9177 C.3       10 UNK         0.0280 
     36 CB        -51.8476  -23.5344   18.3555 C.3       10 UNK        -0.1976 
     37 N         -51.3708  -25.1384   16.5156 N.am      10 UNK        -0.4242 
     38 C         -51.3970  -26.3795   17.0249 C.2       10 UNK         0.5072 
     39 O         -52.0411  -26.7100   18.0214 O.2       10 UNK        -0.5224 
     40 CA        -50.5893  -27.4507   16.2717 C.3       9 UNK         0.0343 
     41 CB        -51.4890  -28.1715   15.2565 C.3       9 UNK        -0.2003 
     42 N         -49.4127  -26.9156   15.5810 N.am      9 UNK        -0.4272 
     43 C         -48.3048  -26.4907   16.2060 C.2       9 UNK         0.4988 
     44 O         -48.1332  -26.5635   17.4236 O.2       9 UNK        -0.5108 
     45 CA        -47.2060  -25.8662   15.3302 C.3       8 UNK         0.0248 
     46 CB        -46.3769  -26.9591   14.6366 C.3       8 UNK        -0.2001 
     47 N         -47.7331  -24.9287   14.3344 N.am      8 UNK        -0.4140 
     48 C         -48.3466  -23.7719   14.6291 C.2       8 UNK         0.5028 
     49 O         -48.4923  -23.3437   15.7741 O.2       8 UNK        -0.5428 
     50 CA        -48.9207  -22.9629   13.4543 C.3       7 UNK         0.0264 
     51 CB        -47.8226  -22.1305   12.7732 C.3       7 UNK        -0.1988 
     52 N         -49.5871  -23.8006   12.4572 N.am      7 UNK        -0.4454 
     53 C         -50.6874  -24.5355   12.6759 C.2       7 UNK         0.5027 
     54 O         -51.2991  -24.5554   13.7431 O.2       7 UNK        -0.5083 
     55 CA        -51.1490  -25.4346   11.5155 C.3       6 UNK         0.0844 
     56 C56       -51.9709  -24.6257   10.4785 C.3       14 UNK        -0.0967 
     57 S57       -52.2852  -25.4966    8.9022 S.3       14 UNK        -0.2604 
     58 C58       -53.4736  -26.7800    9.4011 C.3       14 UNK         0.0134 
     59 N         -50.0139  -26.1420   10.9242 N.am      6 UNK        -0.4116 
     60 C         -49.2842  -27.0822   11.5374 C.2       5 UNK         0.5034 
     61 O         -49.4878  -27.4784   12.6851 O.2       5 UNK        -0.5045 
     62 CA        -48.0964  -27.6427   10.7397 C.3       5 UNK         0.0224 
     63 CB        -48.5574  -28.7825    9.8182 C.3       5 UNK        -0.1978 
     64 N         -47.4067  -26.6080    9.9590 N.am      5 UNK        -0.4737 
     65 C         -46.7138  -25.6013   10.5110 C.2       4 UNK         0.5027 
     66 O         -46.5660  -25.4588   11.7238 O.2       4 UNK        -0.5211 
     67 CA        -46.1239  -24.5539    9.5534 C.3       4 UNK         0.0297 
     68 CB        -44.8162  -25.0684    8.9313 C.3       4 UNK        -0.1993 
     69 N         -47.0364  -24.1309    8.4865 N.am      4 UNK        -0.4486 
     70 C         -48.2651  -23.6242    8.6494 C.2       3 UNK         0.4961 
     71 O         -48.8117  -23.5133    9.7459 O.2       3 UNK        -0.5105 
     72 CA        -49.0347  -23.1677    7.3950 C.3       3 UNK         0.0299 
     73 CB        -48.9035  -21.6449    7.2046 C.3       3 UNK        -0.1972 
     74 N         -48.7203  -23.8883    6.1509 N.am      3 UNK        -0.4305 
     75 C         -47.5815  -23.9263    5.4448 C.2       2 UNK         0.5006 
     76 O         -46.5414  -23.3653    5.7928 O.2       2 UNK        -0.5106 
     77 CA        -47.6022  -24.7934    4.1700 C.3       2 UNK         0.0296 
     78 CB        -46.3444  -24.5981    3.3030 C.3       2 UNK        -0.2002 
     79 N         -47.7351  -26.2153    4.4944 N.am      2 UNK        -0.4032 
     80 C         -48.8438  -26.8224    4.9355 C.2       1 UNK         0.5000 
     81 O         -49.9203  -26.2306    5.0537 O.2       1 UNK        -0.5238 
     82 H82       -44.9898  -29.8927    7.0358 H         1 UNK         0.0889 
     83 H83       -45.7612  -28.6919    8.0781 H         1 UNK         0.0889 
     84 H84       -44.4442  -28.2149    7.0127 H         1 UNK         0.0889 
     85 H85       -47.8912  -28.8012    7.2097 H         1 UNK         0.3028 
     86 H86       -48.5201  -28.8681    4.4283 H         1 UNK         0.0864 
     87 H87       -50.3303  -28.2634    6.8142 H         1 UNK         0.0720 
     88 H88       -50.8715  -28.6992    5.2094 H         1 UNK         0.0720 
     89 H89       -51.9129  -31.9206    7.0802 H         1 UNK         0.0814 
     90 H90       -52.4301  -30.5302    6.1631 H         1 UNK         0.0814 
     91 H91       -52.8847  -28.3942    7.2925 H         1 UNK         0.1469 
     92 H92       -52.6309  -28.2152   11.5629 H         1 UNK         0.1381 
     93 H93       -51.2136  -31.6831    9.4820 H         1 UNK         0.1206 
     94 H94       -50.6586  -31.3367   11.8384 H         1 UNK         0.0813 
     95 H95       -51.1345  -29.8904   12.6797 H         1 UNK         0.0813 
     96 H96       -53.3650  -29.3362   13.4109 H         1 UNK         0.0638 
     97 H97       -54.2857  -30.4636   14.3403 H         1 UNK         0.0638 
     98 H98       -54.8812  -30.2584   11.3551 H         1 UNK         0.0568 
     99 H99       -57.2284  -32.7240   12.3870 H         1 UNK         0.3450 
    100 H100      -55.7926  -32.3887   11.4534 H         1 UNK         0.3450 
    101 H101      -54.9778  -27.9687   12.9221 H         1 UNK         0.2987 
    102 H102      -55.9615  -25.9940   11.1431 H         1 UNK         0.0766 
    103 H103      -58.2054  -24.9515   11.4014 H         1 UNK         0.0798 
    104 H104      -58.8843  -26.5092   11.8774 H         1 UNK         0.0798 
    105 H105      -58.2466  -26.2763   10.2554 H         1 UNK         0.0798 
    106 H106      -57.3209  -25.7822   13.6732 H         1 UNK         0.3198 
    107 H107      -56.0378  -24.5519   15.2957 H         1 UNK         0.0843 
    108 H108      -55.1017  -27.3781   16.1183 H         1 UNK         0.0831 
    109 H109      -56.7801  -26.9135   15.8744 H         1 UNK         0.0831 
    110 H110      -55.8638  -26.2076   17.1907 H         1 UNK         0.0831 
    111 H111      -53.2827  -25.2068   14.9374 H         1 UNK         0.3133 
    112 H112      -51.8998  -23.1726   16.2457 H         1 UNK         0.0566 
    113 H113      -50.7765  -23.3740   18.4794 H         1 UNK         0.0814 
    114 H114      -52.3459  -22.5945   18.5955 H         1 UNK         0.0814 
    115 H115      -52.1662  -24.2680   19.0964 H         1 UNK         0.0814 
    116 H116      -50.8700  -25.0079   15.6424 H         1 UNK         0.3091 
    117 H117      -50.2511  -28.1844   17.0065 H         1 UNK         0.0702 
    118 H118      -50.9682  -29.0174   14.8102 H         1 UNK         0.0785 
    119 H119      -51.8064  -27.5060   14.4518 H         1 UNK         0.0785 
    120 H120      -52.3890  -28.5610   15.7344 H         1 UNK         0.0785 
    121 H121      -49.4502  -26.8876   14.5655 H         1 UNK         0.2998 
    122 H122      -46.5390  -25.3052   15.9882 H         1 UNK         0.0697 
    123 H123      -45.5378  -26.5312   14.0879 H         1 UNK         0.0825 
    124 H124      -46.9767  -27.5364   13.9325 H         1 UNK         0.0825 
    125 H125      -45.9645  -27.6585   15.3650 H         1 UNK         0.0825 
    126 H126      -47.5816  -25.1682   13.3579 H         1 UNK         0.3029 
    127 H127      -49.6675  -22.2770   13.8601 H         1 UNK         0.0897 
    128 H128      -48.2349  -21.5008   11.9845 H         1 UNK         0.0792 
    129 H129      -47.3292  -21.4732   13.4903 H         1 UNK         0.0792 
    130 H130      -47.0547  -22.7630   12.3265 H         1 UNK         0.0792 
    131 H131      -49.1811  -23.8093   11.5224 H         1 UNK         0.3086 
    132 H132      -51.8085  -26.1868   11.9477 H         1 UNK         0.0583 
    133 H133      -52.9269  -24.3264   10.9132 H         1 UNK         0.1020 
    134 H134      -51.4599  -23.6954   10.2227 H         1 UNK         0.1020 
    135 H135      -53.8880  -26.5394   10.3795 H         1 UNK         0.0694 
    136 H136      -54.3118  -26.7814    8.7029 H         1 UNK         0.0694 
    137 H137      -49.7556  -25.8554    9.9924 H         1 UNK         0.2989 
    138 H138      -47.3847  -28.0535   11.4595 H         1 UNK         0.1055 
    139 H139      -49.0406  -29.5697   10.3978 H         1 UNK         0.0806 
    140 H140      -47.7189  -29.2469    9.3022 H         1 UNK         0.0806 
    141 H141      -49.2802  -28.4427    9.0754 H         1 UNK         0.0806 
    142 H142      -47.5001  -26.6306    8.9551 H         1 UNK         0.3061 
    143 H143      -45.8924  -23.6671   10.1468 H         1 UNK         0.0734 
    144 H144      -44.3242  -24.2922    8.3447 H         1 UNK         0.0832 
    145 H145      -44.1128  -25.3828    9.7039 H         1 UNK         0.0832 
    146 H146      -44.9870  -25.9238    8.2771 H         1 UNK         0.0832 
    147 H147      -46.6562  -24.0873    7.5450 H         1 UNK         0.3156 
    148 H148      -50.0862  -23.3823    7.5929 H         1 UNK         0.0589 
    149 H149      -47.8731  -21.3450    7.0114 H         1 UNK         0.0808 
    150 H150      -49.5169  -21.2946    6.3745 H         1 UNK         0.0808 
    151 H151      -49.2329  -21.1119    8.0977 H         1 UNK         0.0808 
    152 H152      -49.4659  -24.4890    5.8061 H         1 UNK         0.3098 
    153 H153      -48.4669  -24.4861    3.5778 H         1 UNK         0.0720 
    154 H154      -46.4124  -25.1638    2.3736 H         1 UNK         0.0791 
    155 H155      -45.4404  -24.9175    3.8235 H         1 UNK         0.0791 
    156 H156      -46.2138  -23.5490    3.0339 H         1 UNK         0.0791 
    157 H157      -46.8894  -26.7801    4.4576 H         1 UNK         0.3028 
@<TRIPOS>BOND
     1    1    2 1    
     2    1   82 1    
     3    1   83 1    
     4    1   84 1    
     5    2    3 2    
     6    2    4 am   BACKBONE|DICT|INTERRES
     7    4    5 1    
     8    4   85 1    
     9    5    6 1    
    10    5   80 1    
    11    5   86 1    
    12    6    7 1    
    13    6   87 1    
    14    6   88 1    
    15    7    8 1    
    16    8    9 1    
    17    8   89 1    
    18    8   90 1    
    19    9   10 ar   
    20    9   14 ar   
    21   10   11 ar   
    22   10   91 1    
    23   11   12 ar   
    24   11   58 1    
    25   12   13 ar   
    26   12   92 1    
    27   13   14 ar   
    28   13   15 1    
    29   14   93 1    
    30   15   16 1    
    31   15   94 1    
    32   15   95 1    
    33   16   17 1    
    34   17   18 1    
    35   17   96 1    
    36   17   97 1    
    37   18   19 1    
    38   18   22 1    
    39   18   98 1    
    40   19   20 am   BACKBONE|DICT|INTERRES
    41   19   21 2    
    42   20   99 1    
    43   20  100 1    
    44   22   23 am   BACKBONE|DICT|INTERRES
    45   22  101 1    
    46   23   24 2    
    47   23   25 1    
    48   25   26 1    
    49   25   27 1    
    50   25  102 1    
    51   26  103 1    
    52   26  104 1    
    53   26  105 1    
    54   27   28 am   BACKBONE|DICT|INTERRES
    55   27  106 1    
    56   28   29 2    
    57   28   30 1    
    58   30   31 1    
    59   30   32 1    
    60   30  107 1    
    61   31  108 1    
    62   31  109 1    
    63   31  110 1    
    64   32   33 am   BACKBONE|DICT|INTERRES
    65   32  111 1    
    66   33   34 2    
    67   33   35 1    
    68   35   36 1    
    69   35   37 1    
    70   35  112 1    
    71   36  113 1    
    72   36  114 1    
    73   36  115 1    
    74   37   38 am   BACKBONE|DICT|INTERRES
    75   37  116 1    
    76   38   39 2    
    77   38   40 1    
    78   40   41 1    
    79   40   42 1    
    80   40  117 1    
    81   41  118 1    
    82   41  119 1    
    83   41  120 1    
    84   42   43 am   BACKBONE|DICT|INTERRES
    85   42  121 1    
    86   43   44 2    
    87   43   45 1    
    88   45   46 1    
    89   45   47 1    
    90   45  122 1    
    91   46  123 1    
    92   46  124 1    
    93   46  125 1    
    94   47   48 am   BACKBONE|DICT|INTERRES
    95   47  126 1    
    96   48   49 2    
    97   48   50 1    
    98   50   51 1    
    99   50   52 1    
   100   50  127 1    
   101   51  128 1    
   102   51  129 1    
   103   51  130 1    
   104   52   53 am   BACKBONE|DICT|INTERRES
   105   52  131 1    
   106   53   54 2    
   107   53   55 1    
   108   55   56 1    
   109   55   59 1    
   110   55  132 1    
   111   56   57 1    
   112   56  133 1    
   113   56  134 1    
   114   57   58 1    
   115   58  135 1    
   116   58  136 1    
   117   59   60 am   BACKBONE|DICT|INTERRES
   118   59  137 1    
   119   60   61 2    
   120   60   62 1    
   121   62   63 1    
   122   62   64 1    
   123   62  138 1    
   124   63  139 1    
   125   63  140 1    
   126   63  141 1    
   127   64   65 am   BACKBONE|DICT|INTERRES
   128   64  142 1    
   129   65   66 2    
   130   65   67 1    
   131   67   68 1    
   132   67   69 1    
   133   67  143 1    
   134   68  144 1    
   135   68  145 1    
   136   68  146 1    
   137   69   70 am   BACKBONE|DICT|INTERRES
   138   69  147 1    
   139   70   71 2    
   140   70   72 1    
   141   72   73 1    
   142   72   74 1    
   143   72  148 1    
   144   73  149 1    
   145   73  150 1    
   146   73  151 1    
   147   74   75 am   BACKBONE|DICT|INTERRES
   148   74  152 1    
   149   75   76 2    
   150   75   77 1    
   151   77   78 1    
   152   77   79 1    
   153   77  153 1    
   154   78  154 1    
   155   78  155 1    
   156   78  156 1    
   157   79   80 am   BACKBONE|DICT|INTERRES
   158   79  157 1    
   159   80   81 2    
@<TRIPOS>SUBSTRUCTURE
     1 UNK         1 GROUP             0       ****    0 ROOT    
