@<TRIPOS>MOLECULE
3R207
157   159    1
SMALL
USER_CHARGES


@<TRIPOS>ATOM
      1 CA        -50.7004  -26.8369    0.4085 C.3       0 UNK        -0.1975 
      2 C         -51.6344  -27.6557    1.2878 C.2       0 UNK         0.4852 
      3 O         -52.5283  -28.3269    0.7700 O.2       0 UNK        -0.5216 
      4 N         -51.4363  -27.5995    2.6092 N.am      1 UNK        -0.4461 
      5 CA        -52.2442  -28.3060    3.6098 C.3       1 UNK         0.0864 
      6 C6        -51.9603  -29.8323    3.6714 C.3       14 UNK        -0.0898 
      7 S7        -50.2367  -30.2770    4.0982 S.3       14 UNK        -0.2598 
      8 C8        -50.4693  -31.4139    5.5041 C.3       14 UNK         0.0286 
      9 C9        -50.8072  -30.6792    6.7944 C.ar      14 UNK        -0.0844 
     10 C10       -49.7864  -30.1995    7.6203 C.ar      14 UNK        -0.0881 
     11 C11       -50.0820  -29.5468    8.8226 C.ar      14 UNK        -0.0643 
     12 C12       -51.4237  -29.3460    9.1749 C.ar      14 UNK        -0.0930 
     13 C13       -52.4528  -29.8243    8.3589 C.ar      14 UNK        -0.0827 
     14 C14       -52.1381  -30.5013    7.1786 C.ar      14 UNK        -0.1249 
     15 C15       -53.9081  -29.6140    8.7439 C.3       14 UNK         0.0141 
     16 S16       -54.4847  -30.9396    9.8494 S.3       14 UNK        -0.2313 
     17 C17       -56.3001  -30.7933    9.6936 C.3       14 UNK        -0.0915 
     18 CA        -57.0214  -30.2406   10.9521 C.3       13 UNK         0.0968 
     19 C         -56.9713  -31.2183   12.1619 C.2       13 UNK         0.5732 
     20 N         -57.6731  -32.3406   12.0786 N.am      13 UNK        -0.7310 
     21 O         -56.2980  -30.9807   13.1643 O.2       13 UNK        -0.5035 
     22 N         -56.5606  -28.8867   11.2850 N.am      13 UNK        -0.4233 
     23 C         -57.2532  -28.0127   12.0220 C.2       13 UNK         0.4989 
     24 O         -58.3940  -28.2129   12.4437 O.2       13 UNK        -0.4996 
     25 CA        -56.5179  -26.7210   12.3879 C.3       12 UNK         0.0216 
     26 CB        -57.4721  -25.5597   12.7315 C.3       12 UNK        -0.1964 
     27 N         -55.6556  -27.0112   13.5290 N.am      12 UNK        -0.4276 
     28 C         -54.4785  -26.4277   13.7681 C.2       12 UNK         0.5020 
     29 O         -53.9666  -25.5823   13.0294 O.2       12 UNK        -0.5489 
     30 CA        -53.7394  -26.8886   15.0331 C.3       11 UNK         0.0294 
     31 CB        -52.7832  -28.0503   14.7185 C.3       11 UNK        -0.2019 
     32 N         -52.9743  -25.7813   15.6005 N.am      11 UNK        -0.4493 
     33 C         -53.4750  -24.8572   16.4302 C.2       11 UNK         0.4932 
     34 O         -54.6288  -24.8842   16.8638 O.2       11 UNK        -0.5029 
     35 CA        -52.5232  -23.7153   16.8402 C.3       10 UNK         0.0280 
     36 CB        -53.0107  -22.9276   18.0750 C.3       10 UNK        -0.1976 
     37 N         -51.1381  -24.1666   17.0133 N.am      10 UNK        -0.4242 
     38 C         -50.6701  -25.0662   17.8936 C.2       10 UNK         0.5072 
     39 O         -51.3585  -25.5955   18.7675 O.2       10 UNK        -0.5224 
     40 CA        -49.1872  -25.4744   17.7758 C.3       9 UNK         0.0343 
     41 CB        -49.0742  -26.9216   17.2675 C.3       9 UNK        -0.2003 
     42 N         -48.3981  -24.6016   16.9014 N.am      9 UNK        -0.4272 
     43 C         -48.0164  -23.3542   17.2104 C.2       9 UNK         0.4988 
     44 O         -48.2178  -22.8275   18.3051 O.2       9 UNK        -0.5108 
     45 CA        -47.3257  -22.5435   16.1003 C.3       8 UNK         0.0248 
     46 CB        -45.8182  -22.8417   16.0740 C.3       8 UNK        -0.2001 
     47 N         -47.9012  -22.7748   14.7703 N.am      8 UNK        -0.4140 
     48 C         -49.1613  -22.4774   14.4171 C.2       8 UNK         0.5028 
     49 O         -49.9742  -21.9435   15.1712 O.2       8 UNK        -0.5428 
     50 CA        -49.6142  -22.8963   13.0072 C.3       7 UNK         0.0264 
     51 CB        -49.0737  -21.9318   11.9402 C.3       7 UNK        -0.1988 
     52 N         -49.2313  -24.2718   12.6800 N.am      7 UNK        -0.4454 
     53 C         -49.6751  -25.3544   13.3382 C.2       7 UNK         0.5027 
     54 O         -50.4988  -25.3116   14.2522 O.2       7 UNK        -0.5083 
     55 CA        -49.0604  -26.7111   12.9519 C.3       6 UNK         0.0844 
     56 C56       -49.8371  -27.3684   11.7867 C.3       14 UNK        -0.0967 
     57 S57       -49.2630  -29.0771   11.4908 S.3       14 UNK        -0.2604 
     58 C58       -48.9266  -29.0628    9.6979 C.3       14 UNK         0.0134 
     59 N         -47.6246  -26.5845   12.6860 N.am      6 UNK        -0.4116 
     60 C         -46.7022  -26.3304   13.6248 C.2       5 UNK         0.5034 
     61 O         -46.9574  -26.1928   14.8210 O.2       5 UNK        -0.5045 
     62 CA        -45.2555  -26.1527   13.1360 C.3       5 UNK         0.0224 
     63 CB        -44.5997  -27.5169   12.8679 C.3       5 UNK        -0.1978 
     64 N         -45.1638  -25.3161   11.9359 N.am      5 UNK        -0.4737 
     65 C         -45.5099  -24.0219   11.8899 C.2       4 UNK         0.5027 
     66 O         -45.9045  -23.3865   12.8650 O.2       4 UNK        -0.5211 
     67 CA        -45.4483  -23.3258   10.5206 C.3       4 UNK         0.0297 
     68 CB        -44.0593  -22.7076   10.2981 C.3       4 UNK        -0.1993 
     69 N         -45.7864  -24.1958    9.3896 N.am      4 UNK        -0.4486 
     70 C         -46.9437  -24.8516    9.2343 C.2       3 UNK         0.4961 
     71 O         -47.8623  -24.8535   10.0618 O.2       3 UNK        -0.5105 
     72 CA        -47.0754  -25.6740    7.9498 C.3       3 UNK         0.0299 
     73 CB        -46.2558  -26.9773    8.0440 C.3       3 UNK        -0.1972 
     74 N         -48.4918  -25.9530    7.7329 N.am      3 UNK        -0.4305 
     75 C         -49.0442  -26.3218    6.5740 C.2       2 UNK         0.5006 
     76 O         -48.4008  -26.5394    5.5422 O.2       2 UNK        -0.5106 
     77 CA        -50.5744  -26.4370    6.5505 C.3       2 UNK         0.0296 
     78 CB        -51.2310  -25.0421    6.6066 C.3       2 UNK        -0.2002 
     79 N         -50.9385  -27.1333    5.3214 N.am      2 UNK        -0.4032 
     80 C         -52.1406  -27.6164    4.9833 C.2       1 UNK         0.5000 
     81 O         -53.1499  -27.5056    5.6814 O.2       1 UNK        -0.5238 
     82 H82       -51.2704  -26.1096   -0.1692 H         1 UNK         0.0889 
     83 H83       -50.1747  -27.4894   -0.2883 H         1 UNK         0.0889 
     84 H84       -49.9559  -26.2972    0.9936 H         1 UNK         0.0889 
     85 H85       -50.7180  -26.9906    2.9732 H         1 UNK         0.3028 
     86 H86       -53.2882  -28.1881    3.3097 H         1 UNK         0.0864 
     87 H87       -52.1808  -30.2825    2.7027 H         1 UNK         0.0720 
     88 H88       -52.6535  -30.3089    4.3639 H         1 UNK         0.0720 
     89 H89       -49.5517  -31.9877    5.6423 H         1 UNK         0.0814 
     90 H90       -51.2437  -32.1440    5.2632 H         1 UNK         0.0814 
     91 H91       -48.7553  -30.3441    7.3271 H         1 UNK         0.1469 
     92 H92       -51.6767  -28.8304   10.0896 H         1 UNK         0.1381 
     93 H93       -52.9353  -30.8836    6.5569 H         1 UNK         0.1206 
     94 H94       -54.5214  -29.5862    7.8416 H         1 UNK         0.0813 
     95 H95       -54.0345  -28.6462    9.2308 H         1 UNK         0.0813 
     96 H96       -56.5404  -30.1613    8.8377 H         1 UNK         0.0638 
     97 H97       -56.6922  -31.7785    9.4357 H         1 UNK         0.0638 
     98 H98       -58.0776  -30.1527   10.6889 H         1 UNK         0.0568 
     99 H99       -58.2269  -32.5521   11.2632 H         1 UNK         0.3450 
    100 H100      -57.6487  -32.9898   12.8492 H         1 UNK         0.3450 
    101 H101      -55.6044  -28.6775   11.0427 H         1 UNK         0.2987 
    102 H102      -55.9143  -26.4264   11.5261 H         1 UNK         0.0766 
    103 H103      -56.9204  -24.6394   12.9244 H         1 UNK         0.0798 
    104 H104      -58.0753  -25.7773   13.6138 H         1 UNK         0.0798 
    105 H105      -58.1571  -25.3604   11.9064 H         1 UNK         0.0798 
    106 H106      -55.9897  -27.7315   14.1567 H         1 UNK         0.3198 
    107 H107      -54.4707  -27.2334   15.7679 H         1 UNK         0.0843 
    108 H108      -52.2859  -28.4073   15.6205 H         1 UNK         0.0831 
    109 H109      -52.0114  -27.7549   14.0095 H         1 UNK         0.0831 
    110 H110      -53.3194  -28.8964   14.2862 H         1 UNK         0.0831 
    111 H111      -52.0468  -25.6269   15.2079 H         1 UNK         0.3133 
    112 H112      -52.5064  -23.0236   15.9969 H         1 UNK         0.0566 
    113 H113      -52.3206  -22.1229   18.3286 H         1 UNK         0.0814 
    114 H114      -53.9837  -22.4719   17.8879 H         1 UNK         0.0814 
    115 H115      -53.1163  -23.5689   18.9504 H         1 UNK         0.0814 
    116 H116      -50.4870  -23.8001   16.3293 H         1 UNK         0.3091 
    117 H117      -48.7575  -25.4311   18.7787 H         1 UNK         0.0702 
    118 H118      -48.0352  -27.2494   17.2284 H         1 UNK         0.0785 
    119 H119      -49.4982  -27.0304   16.2689 H         1 UNK         0.0785 
    120 H120      -49.6065  -27.6110   17.9241 H         1 UNK         0.0785 
    121 H121      -48.1228  -24.9882   16.0040 H         1 UNK         0.2998 
    122 H122      -47.4585  -21.4854   16.3350 H         1 UNK         0.0697 
    123 H123      -45.3009  -22.2030   15.3579 H         1 UNK         0.0825 
    124 H124      -45.3664  -22.6653   17.0511 H         1 UNK         0.0825 
    125 H125      -45.6169  -23.8785   15.8019 H         1 UNK         0.0825 
    126 H126      -47.2727  -23.1611   14.0674 H         1 UNK         0.3029 
    127 H127      -50.7053  -22.8483   12.9834 H         1 UNK         0.0897 
    128 H128      -49.3979  -22.2212   10.9402 H         1 UNK         0.0792 
    129 H129      -49.4330  -20.9174   12.1180 H         1 UNK         0.0792 
    130 H130      -47.9851  -21.8936   11.9421 H         1 UNK         0.0792 
    131 H131      -48.5821  -24.4013   11.9099 H         1 UNK         0.3086 
    132 H132      -49.1709  -27.3609   13.8230 H         1 UNK         0.0583 
    133 H133      -50.9044  -27.4107   12.0094 H         1 UNK         0.1020 
    134 H134      -49.7485  -26.7677   10.8804 H         1 UNK         0.1020 
    135 H135      -48.6435  -28.0619    9.3843 H         1 UNK         0.0694 
    136 H136      -48.0529  -29.6941    9.5287 H         1 UNK         0.0694 
    137 H137      -47.3374  -26.6319   11.7200 H         1 UNK         0.2989 
    138 H138      -44.6999  -25.6555   13.9345 H         1 UNK         0.1055 
    139 H139      -44.6461  -28.1516   13.7542 H         1 UNK         0.0806 
    140 H140      -43.5471  -27.4062   12.6067 H         1 UNK         0.0806 
    141 H141      -45.0927  -28.0543   12.0567 H         1 UNK         0.0806 
    142 H142      -44.8424  -25.7564   11.0861 H         1 UNK         0.3061 
    143 H143      -46.1798  -22.5160   10.5337 H         1 UNK         0.0734 
    144 H144      -44.0274  -22.1186    9.3813 H         1 UNK         0.0832 
    145 H145      -43.7952  -22.0384   11.1185 H         1 UNK         0.0832 
    146 H146      -43.2812  -23.4696   10.2371 H         1 UNK         0.0832 
    147 H147      -45.0928  -24.2687    8.6586 H         1 UNK         0.3156 
    148 H148      -46.7103  -25.0720    7.1149 H         1 UNK         0.0589 
    149 H149      -46.4699  -27.5335    8.9560 H         1 UNK         0.0808 
    150 H150      -46.4437  -27.6370    7.1968 H         1 UNK         0.0808 
    151 H151      -45.1867  -26.7628    8.0469 H         1 UNK         0.0808 
    152 H152      -49.0749  -25.7272    8.5298 H         1 UNK         0.3098 
    153 H153      -50.8965  -27.0374    7.4030 H         1 UNK         0.0720 
    154 H154      -50.9403  -24.5032    7.5091 H         1 UNK         0.0791 
    155 H155      -52.3187  -25.1096    6.6161 H         1 UNK         0.0791 
    156 H156      -50.9423  -24.4287    5.7522 H         1 UNK         0.0791 
    157 H157      -50.1321  -27.3392    4.7435 H         1 UNK         0.3028 
@<TRIPOS>BOND
     1    1    2 1    
     2    1   82 1    
     3    1   83 1    
     4    1   84 1    
     5    2    3 2    
     6    2    4 am   BACKBONE|DICT|INTERRES
     7    4    5 1    
     8    4   85 1    
     9    5    6 1    
    10    5   80 1    
    11    5   86 1    
    12    6    7 1    
    13    6   87 1    
    14    6   88 1    
    15    7    8 1    
    16    8    9 1    
    17    8   89 1    
    18    8   90 1    
    19    9   10 ar   
    20    9   14 ar   
    21   10   11 ar   
    22   10   91 1    
    23   11   12 ar   
    24   11   58 1    
    25   12   13 ar   
    26   12   92 1    
    27   13   14 ar   
    28   13   15 1    
    29   14   93 1    
    30   15   16 1    
    31   15   94 1    
    32   15   95 1    
    33   16   17 1    
    34   17   18 1    
    35   17   96 1    
    36   17   97 1    
    37   18   19 1    
    38   18   22 1    
    39   18   98 1    
    40   19   20 am   BACKBONE|DICT|INTERRES
    41   19   21 2    
    42   20   99 1    
    43   20  100 1    
    44   22   23 am   BACKBONE|DICT|INTERRES
    45   22  101 1    
    46   23   24 2    
    47   23   25 1    
    48   25   26 1    
    49   25   27 1    
    50   25  102 1    
    51   26  103 1    
    52   26  104 1    
    53   26  105 1    
    54   27   28 am   BACKBONE|DICT|INTERRES
    55   27  106 1    
    56   28   29 2    
    57   28   30 1    
    58   30   31 1    
    59   30   32 1    
    60   30  107 1    
    61   31  108 1    
    62   31  109 1    
    63   31  110 1    
    64   32   33 am   BACKBONE|DICT|INTERRES
    65   32  111 1    
    66   33   34 2    
    67   33   35 1    
    68   35   36 1    
    69   35   37 1    
    70   35  112 1    
    71   36  113 1    
    72   36  114 1    
    73   36  115 1    
    74   37   38 am   BACKBONE|DICT|INTERRES
    75   37  116 1    
    76   38   39 2    
    77   38   40 1    
    78   40   41 1    
    79   40   42 1    
    80   40  117 1    
    81   41  118 1    
    82   41  119 1    
    83   41  120 1    
    84   42   43 am   BACKBONE|DICT|INTERRES
    85   42  121 1    
    86   43   44 2    
    87   43   45 1    
    88   45   46 1    
    89   45   47 1    
    90   45  122 1    
    91   46  123 1    
    92   46  124 1    
    93   46  125 1    
    94   47   48 am   BACKBONE|DICT|INTERRES
    95   47  126 1    
    96   48   49 2    
    97   48   50 1    
    98   50   51 1    
    99   50   52 1    
   100   50  127 1    
   101   51  128 1    
   102   51  129 1    
   103   51  130 1    
   104   52   53 am   BACKBONE|DICT|INTERRES
   105   52  131 1    
   106   53   54 2    
   107   53   55 1    
   108   55   56 1    
   109   55   59 1    
   110   55  132 1    
   111   56   57 1    
   112   56  133 1    
   113   56  134 1    
   114   57   58 1    
   115   58  135 1    
   116   58  136 1    
   117   59   60 am   BACKBONE|DICT|INTERRES
   118   59  137 1    
   119   60   61 2    
   120   60   62 1    
   121   62   63 1    
   122   62   64 1    
   123   62  138 1    
   124   63  139 1    
   125   63  140 1    
   126   63  141 1    
   127   64   65 am   BACKBONE|DICT|INTERRES
   128   64  142 1    
   129   65   66 2    
   130   65   67 1    
   131   67   68 1    
   132   67   69 1    
   133   67  143 1    
   134   68  144 1    
   135   68  145 1    
   136   68  146 1    
   137   69   70 am   BACKBONE|DICT|INTERRES
   138   69  147 1    
   139   70   71 2    
   140   70   72 1    
   141   72   73 1    
   142   72   74 1    
   143   72  148 1    
   144   73  149 1    
   145   73  150 1    
   146   73  151 1    
   147   74   75 am   BACKBONE|DICT|INTERRES
   148   74  152 1    
   149   75   76 2    
   150   75   77 1    
   151   77   78 1    
   152   77   79 1    
   153   77  153 1    
   154   78  154 1    
   155   78  155 1    
   156   78  156 1    
   157   79   80 am   BACKBONE|DICT|INTERRES
   158   79  157 1    
   159   80   81 2    
@<TRIPOS>SUBSTRUCTURE
     1 UNK         1 GROUP             0       ****    0 ROOT    
