@<TRIPOS>MOLECULE
3R207
157   159    1
SMALL
USER_CHARGES


@<TRIPOS>ATOM
      1 CA        -50.0198  -28.6809    2.9969 C.3       0 UNK        -0.1975 
      2 C         -49.4329  -27.6510    3.9490 C.2       0 UNK         0.4852 
      3 O         -48.6365  -28.0068    4.8182 O.2       0 UNK        -0.5216 
      4 N         -49.8017  -26.3709    3.7802 N.am      1 UNK        -0.4461 
      5 CA        -49.4365  -25.2139    4.6235 C.3       1 UNK         0.0864 
      6 C6        -49.9785  -25.3354    6.0793 C.3       14 UNK        -0.0898 
      7 S7        -51.8005  -25.3343    6.1329 S.3       14 UNK        -0.2598 
      8 C8        -52.1900  -27.0944    6.4053 C.3       14 UNK         0.0286 
      9 C9        -52.1726  -27.4986    7.8740 C.ar      14 UNK        -0.0844 
     10 C10       -51.3505  -28.5403    8.3185 C.ar      14 UNK        -0.0881 
     11 C11       -51.4269  -28.9960    9.6408 C.ar      14 UNK        -0.0643 
     12 C12       -52.3160  -28.3756   10.5269 C.ar      14 UNK        -0.0930 
     13 C13       -53.1290  -27.3213   10.0978 C.ar      14 UNK        -0.0827 
     14 C14       -53.0533  -26.8912    8.7717 C.ar      14 UNK        -0.1249 
     15 C15       -54.1033  -26.6454   11.0510 C.3       14 UNK         0.0141 
     16 S16       -55.7653  -27.3785   10.9354 S.3       14 UNK        -0.2313 
     17 C17       -55.5200  -28.9458   11.8354 C.3       14 UNK        -0.0915 
     18 CA        -56.8216  -29.5080   12.4661 C.3       13 UNK         0.0968 
     19 C         -56.5155  -30.8352   13.2221 C.2       13 UNK         0.5732 
     20 N         -56.5315  -30.8677   14.5509 N.am      13 UNK        -0.7310 
     21 O         -56.2595  -31.8551   12.5865 O.2       13 UNK        -0.5035 
     22 N         -57.5168  -28.4973   13.2762 N.am      13 UNK        -0.4233 
     23 C         -58.7581  -28.6128   13.7654 C.2       13 UNK         0.4989 
     24 O         -59.5239  -29.5309   13.4662 O.2       13 UNK        -0.4996 
     25 CA        -59.2188  -27.5252   14.7636 C.3       12 UNK         0.0216 
     26 CB        -60.2047  -28.0826   15.8128 C.3       12 UNK        -0.1964 
     27 N         -58.1211  -26.8037   15.4321 N.am      12 UNK        -0.4276 
     28 C         -57.1280  -27.3375   16.1587 C.2       12 UNK         0.5020 
     29 O         -56.9901  -28.5475   16.3648 O.2       12 UNK        -0.5489 
     30 CA        -56.0931  -26.3603   16.7229 C.3       11 UNK         0.0294 
     31 CB        -56.4145  -26.0119   18.1853 C.3       11 UNK        -0.2019 
     32 N         -54.7899  -27.0141   16.6535 N.am      11 UNK        -0.4493 
     33 C         -53.7074  -26.5258   16.0417 C.2       11 UNK         0.4932 
     34 O         -53.6489  -25.4072   15.5271 O.2       11 UNK        -0.5029 
     35 CA        -52.5094  -27.4835   15.9523 C.3       10 UNK         0.0280 
     36 CB        -52.6312  -28.3892   14.7166 C.3       10 UNK        -0.1976 
     37 N         -51.2346  -26.7653   15.9055 N.am      10 UNK        -0.4242 
     38 C         -50.6573  -26.2055   16.9769 C.2       10 UNK         0.5072 
     39 O         -51.1536  -26.2175   18.1054 O.2       10 UNK        -0.5224 
     40 CA        -49.2713  -25.5711   16.7861 C.3       9 UNK         0.0343 
     41 CB        -48.1842  -26.6579   16.8141 C.3       9 UNK        -0.2003 
     42 N         -49.1382  -24.7686   15.5677 N.am      9 UNK        -0.4272 
     43 C         -49.6543  -23.5393   15.4196 C.2       9 UNK         0.4988 
     44 O         -50.3673  -22.9907   16.2610 O.2       9 UNK        -0.5108 
     45 CA        -49.2721  -22.7628   14.1466 C.3       8 UNK         0.0248 
     46 CB        -47.8319  -22.2329   14.2468 C.3       8 UNK        -0.2001 
     47 N         -49.4164  -23.5591   12.9295 N.am      8 UNK        -0.4140 
     48 C         -50.5904  -23.8850   12.3720 C.2       8 UNK         0.5028 
     49 O         -51.6780  -23.4627   12.7661 O.2       8 UNK        -0.5428 
     50 CA        -50.5536  -24.8643   11.1846 C.3       7 UNK         0.0264 
     51 CB        -50.4053  -24.1209    9.8495 C.3       7 UNK        -0.1988 
     52 N         -49.5128  -25.8894   11.2929 N.am      7 UNK        -0.4454 
     53 C         -49.4294  -26.7811   12.2916 C.2       7 UNK         0.5027 
     54 O         -50.2089  -26.8282   13.2432 O.2       7 UNK        -0.5083 
     55 CA        -48.2291  -27.7434   12.2554 C.3       6 UNK         0.0844 
     56 C56       -48.4173  -28.8739   11.2146 C.3       14 UNK        -0.0967 
     57 S57       -49.7480  -30.0372   11.6613 S.3       14 UNK        -0.2604 
     58 C58       -50.6194  -30.2206   10.0685 C.3       14 UNK         0.0134 
     59 N         -46.9818  -27.0046   12.0445 N.am      6 UNK        -0.4116 
     60 C         -46.4566  -26.1273   12.9131 C.2       5 UNK         0.5034 
     61 O         -46.9347  -25.8844   14.0191 O.2       5 UNK        -0.5045 
     62 CA        -45.2165  -25.3462   12.4492 C.3       5 UNK         0.0224 
     63 CB        -43.9379  -26.1664   12.6813 C.3       5 UNK        -0.1978 
     64 N         -45.2988  -24.9464   11.0429 N.am      5 UNK        -0.4737 
     65 C         -46.2123  -24.0979   10.5494 C.2       4 UNK         0.5027 
     66 O         -47.0388  -23.5056   11.2412 O.2       4 UNK        -0.5211 
     67 CA        -46.2417  -23.9269    9.0226 C.3       4 UNK         0.0297 
     68 CB        -45.3082  -22.7886    8.5844 C.3       4 UNK        -0.1993 
     69 N         -45.8944  -25.1519    8.2967 N.am      4 UNK        -0.4486 
     70 C         -46.5780  -26.3024    8.3492 C.2       3 UNK         0.4961 
     71 O         -47.5728  -26.4657    9.0583 O.2       3 UNK        -0.5105 
     72 CA        -46.0571  -27.4466    7.4552 C.3       3 UNK         0.0299 
     73 CB        -46.8499  -28.7522    7.6489 C.3       3 UNK        -0.1972 
     74 N         -46.1114  -27.0630    6.0441 N.am      3 UNK        -0.4305 
     75 C         -45.2551  -26.2284    5.4311 C.2       2 UNK         0.5006 
     76 O         -44.2208  -25.8122    5.9554 O.2       2 UNK        -0.5106 
     77 CA        -45.6557  -25.7034    4.0380 C.3       2 UNK         0.0296 
     78 CB        -45.0618  -26.5904    2.9326 C.3       2 UNK        -0.2002 
     79 N         -47.1097  -25.6295    3.8769 N.am      2 UNK        -0.4032 
     80 C         -47.9264  -24.8691    4.6229 C.2       1 UNK         0.5000 
     81 O         -47.5201  -23.9388    5.3218 O.2       1 UNK        -0.5238 
     82 H82       -49.2229  -29.1807    2.4471 H         1 UNK         0.0889 
     83 H83       -50.7005  -28.2294    2.2753 H         1 UNK         0.0889 
     84 H84       -50.5714  -29.4349    3.5578 H         1 UNK         0.0889 
     85 H85       -50.4404  -26.1506    3.0279 H         1 UNK         0.3028 
     86 H86       -49.9175  -24.3489    4.1637 H         1 UNK         0.0864 
     87 H87       -49.6544  -24.4874    6.6854 H         1 UNK         0.0720 
     88 H88       -49.5880  -26.2223    6.5818 H         1 UNK         0.0720 
     89 H89       -51.5163  -27.7205    5.8229 H         1 UNK         0.0814 
     90 H90       -53.1891  -27.2865    6.0120 H         1 UNK         0.0814 
     91 H91       -50.6845  -29.0292    7.6205 H         1 UNK         0.1469 
     92 H92       -52.3874  -28.7284   11.5460 H         1 UNK         0.1381 
     93 H93       -53.6991  -26.0940    8.4295 H         1 UNK         0.1206 
     94 H94       -54.1736  -25.5842   10.8070 H         1 UNK         0.0813 
     95 H95       -53.7397  -26.6890   12.0777 H         1 UNK         0.0813 
     96 H96       -54.7708  -28.7874   12.6120 H         1 UNK         0.0638 
     97 H97       -55.0904  -29.6670   11.1374 H         1 UNK         0.0638 
     98 H98       -57.4943  -29.7723   11.6482 H         1 UNK         0.0568 
     99 H99       -56.7430  -30.0372   15.0958 H         1 UNK         0.3450 
    100 H100      -56.3348  -31.7359   15.0216 H         1 UNK         0.3450 
    101 H101      -56.9629  -27.7035   13.5566 H         1 UNK         0.2987 
    102 H102      -59.7539  -26.7838   14.1683 H         1 UNK         0.0766 
    103 H103      -60.5413  -27.3024   16.4954 H         1 UNK         0.0798 
    104 H104      -59.7526  -28.8767   16.4083 H         1 UNK         0.0798 
    105 H105      -61.0941  -28.4985   15.3377 H         1 UNK         0.0798 
    106 H106      -58.1322  -25.7993   15.3114 H         1 UNK         0.3198 
    107 H107      -56.1008  -25.4456   16.1258 H         1 UNK         0.0843 
    108 H108      -56.4454  -26.9016   18.8160 H         1 UNK         0.0831 
    109 H109      -57.3848  -25.5202   18.2663 H         1 UNK         0.0831 
    110 H110      -55.6704  -25.3327   18.6018 H         1 UNK         0.0831 
    111 H111      -54.7873  -27.9756   16.9697 H         1 UNK         0.3133 
    112 H112      -52.5081  -28.1221   16.8386 H         1 UNK         0.0566 
    113 H113      -51.7912  -29.0805   14.6446 H         1 UNK         0.0814 
    114 H114      -53.5423  -28.9876   14.7546 H         1 UNK         0.0814 
    115 H115      -52.6578  -27.8048   13.7980 H         1 UNK         0.0814 
    116 H116      -50.7888  -26.6859   14.9927 H         1 UNK         0.3091 
    117 H117      -49.0958  -24.9122   17.6395 H         1 UNK         0.0702 
    118 H118      -47.1861  -26.2204   16.7853 H         1 UNK         0.0785 
    119 H119      -48.2754  -27.3404   15.9680 H         1 UNK         0.0785 
    120 H120      -48.2497  -27.2548   17.7248 H         1 UNK         0.0785 
    121 H121      -48.5280  -25.1425   14.8462 H         1 UNK         0.2998 
    122 H122      -49.9394  -21.9017   14.0693 H         1 UNK         0.0697 
    123 H123      -47.1038  -23.0434   14.2950 H         1 UNK         0.0825 
    124 H124      -47.7013  -21.6215   15.1406 H         1 UNK         0.0825 
    125 H125      -47.5793  -21.6106   13.3879 H         1 UNK         0.0825 
    126 H126      -48.5617  -23.8657   12.4744 H         1 UNK         0.3029 
    127 H127      -51.5115  -25.3834   11.1766 H         1 UNK         0.0897 
    128 H128      -50.4607  -24.8136    9.0097 H         1 UNK         0.0792 
    129 H129      -49.4571  -23.5871    9.7874 H         1 UNK         0.0792 
    130 H130      -51.2038  -23.3896    9.7193 H         1 UNK         0.0792 
    131 H131      -48.8336  -25.9407   10.5388 H         1 UNK         0.3086 
    132 H132      -48.1546  -28.2083   13.2412 H         1 UNK         0.0583 
    133 H133      -48.6124  -28.4634   10.2235 H         1 UNK         0.1020 
    134 H134      -47.4973  -29.4533   11.1256 H         1 UNK         0.1020 
    135 H135      -49.8907  -30.4923    9.3029 H         1 UNK         0.0694 
    136 H136      -51.3043  -31.0656   10.1494 H         1 UNK         0.0694 
    137 H137      -46.5668  -27.0778   11.1274 H         1 UNK         0.2989 
    138 H138      -45.1569  -24.4379   13.0534 H         1 UNK         0.1055 
    139 H139      -43.8497  -26.4610   13.7281 H         1 UNK         0.0806 
    140 H140      -43.0465  -25.5897   12.4337 H         1 UNK         0.0806 
    141 H141      -43.9249  -27.0790   12.0839 H         1 UNK         0.0806 
    142 H142      -44.6526  -25.3792   10.3988 H         1 UNK         0.3061 
    143 H143      -47.2615  -23.6590    8.7397 H         1 UNK         0.0734 
    144 H144      -45.3912  -22.6006    7.5135 H         1 UNK         0.0832 
    145 H145      -45.5613  -21.8589    9.0961 H         1 UNK         0.0832 
    146 H146      -44.2642  -23.0112    8.8080 H         1 UNK         0.0832 
    147 H147      -45.1094  -25.1057    7.6548 H         1 UNK         0.3156 
    148 H148      -45.0185  -27.6400    7.7311 H         1 UNK         0.0589 
    149 H149      -47.9128  -28.6148    7.4439 H         1 UNK         0.0808 
    150 H150      -46.4835  -29.5407    6.9916 H         1 UNK         0.0808 
    151 H151      -46.7566  -29.1166    8.6718 H         1 UNK         0.0808 
    152 H152      -46.9530  -27.3473    5.5479 H         1 UNK         0.3098 
    153 H153      -45.2512  -24.6948    3.9313 H         1 UNK         0.0720 
    154 H154      -45.2881  -26.1953    1.9420 H         1 UNK         0.0791 
    155 H155      -45.4436  -27.6111    2.9835 H         1 UNK         0.0791 
    156 H156      -43.9755  -26.6438    3.0184 H         1 UNK         0.0791 
    157 H157      -47.5389  -26.3597    3.3277 H         1 UNK         0.3028 
@<TRIPOS>BOND
     1    1    2 1    
     2    1   82 1    
     3    1   83 1    
     4    1   84 1    
     5    2    3 2    
     6    2    4 am   BACKBONE|DICT|INTERRES
     7    4    5 1    
     8    4   85 1    
     9    5    6 1    
    10    5   80 1    
    11    5   86 1    
    12    6    7 1    
    13    6   87 1    
    14    6   88 1    
    15    7    8 1    
    16    8    9 1    
    17    8   89 1    
    18    8   90 1    
    19    9   10 ar   
    20    9   14 ar   
    21   10   11 ar   
    22   10   91 1    
    23   11   12 ar   
    24   11   58 1    
    25   12   13 ar   
    26   12   92 1    
    27   13   14 ar   
    28   13   15 1    
    29   14   93 1    
    30   15   16 1    
    31   15   94 1    
    32   15   95 1    
    33   16   17 1    
    34   17   18 1    
    35   17   96 1    
    36   17   97 1    
    37   18   19 1    
    38   18   22 1    
    39   18   98 1    
    40   19   20 am   BACKBONE|DICT|INTERRES
    41   19   21 2    
    42   20   99 1    
    43   20  100 1    
    44   22   23 am   BACKBONE|DICT|INTERRES
    45   22  101 1    
    46   23   24 2    
    47   23   25 1    
    48   25   26 1    
    49   25   27 1    
    50   25  102 1    
    51   26  103 1    
    52   26  104 1    
    53   26  105 1    
    54   27   28 am   BACKBONE|DICT|INTERRES
    55   27  106 1    
    56   28   29 2    
    57   28   30 1    
    58   30   31 1    
    59   30   32 1    
    60   30  107 1    
    61   31  108 1    
    62   31  109 1    
    63   31  110 1    
    64   32   33 am   BACKBONE|DICT|INTERRES
    65   32  111 1    
    66   33   34 2    
    67   33   35 1    
    68   35   36 1    
    69   35   37 1    
    70   35  112 1    
    71   36  113 1    
    72   36  114 1    
    73   36  115 1    
    74   37   38 am   BACKBONE|DICT|INTERRES
    75   37  116 1    
    76   38   39 2    
    77   38   40 1    
    78   40   41 1    
    79   40   42 1    
    80   40  117 1    
    81   41  118 1    
    82   41  119 1    
    83   41  120 1    
    84   42   43 am   BACKBONE|DICT|INTERRES
    85   42  121 1    
    86   43   44 2    
    87   43   45 1    
    88   45   46 1    
    89   45   47 1    
    90   45  122 1    
    91   46  123 1    
    92   46  124 1    
    93   46  125 1    
    94   47   48 am   BACKBONE|DICT|INTERRES
    95   47  126 1    
    96   48   49 2    
    97   48   50 1    
    98   50   51 1    
    99   50   52 1    
   100   50  127 1    
   101   51  128 1    
   102   51  129 1    
   103   51  130 1    
   104   52   53 am   BACKBONE|DICT|INTERRES
   105   52  131 1    
   106   53   54 2    
   107   53   55 1    
   108   55   56 1    
   109   55   59 1    
   110   55  132 1    
   111   56   57 1    
   112   56  133 1    
   113   56  134 1    
   114   57   58 1    
   115   58  135 1    
   116   58  136 1    
   117   59   60 am   BACKBONE|DICT|INTERRES
   118   59  137 1    
   119   60   61 2    
   120   60   62 1    
   121   62   63 1    
   122   62   64 1    
   123   62  138 1    
   124   63  139 1    
   125   63  140 1    
   126   63  141 1    
   127   64   65 am   BACKBONE|DICT|INTERRES
   128   64  142 1    
   129   65   66 2    
   130   65   67 1    
   131   67   68 1    
   132   67   69 1    
   133   67  143 1    
   134   68  144 1    
   135   68  145 1    
   136   68  146 1    
   137   69   70 am   BACKBONE|DICT|INTERRES
   138   69  147 1    
   139   70   71 2    
   140   70   72 1    
   141   72   73 1    
   142   72   74 1    
   143   72  148 1    
   144   73  149 1    
   145   73  150 1    
   146   73  151 1    
   147   74   75 am   BACKBONE|DICT|INTERRES
   148   74  152 1    
   149   75   76 2    
   150   75   77 1    
   151   77   78 1    
   152   77   79 1    
   153   77  153 1    
   154   78  154 1    
   155   78  155 1    
   156   78  156 1    
   157   79   80 am   BACKBONE|DICT|INTERRES
   158   79  157 1    
   159   80   81 2    
@<TRIPOS>SUBSTRUCTURE
     1 UNK         1 GROUP             0       ****    0 ROOT    
