@<TRIPOS>MOLECULE
3R207
157   159    1
SMALL
USER_CHARGES


@<TRIPOS>ATOM
      1 CA        -45.1809  -30.9009    6.3390 C.3       0 UNK        -0.1975 
      2 C         -45.9349  -30.1282    5.2670 C.2       0 UNK         0.4852 
      3 O         -45.3892  -29.8807    4.1913 O.2       0 UNK        -0.5216 
      4 N         -47.1846  -29.7413    5.5556 N.am      1 UNK        -0.4461 
      5 CA        -48.0771  -29.0082    4.6456 C.3       1 UNK         0.0864 
      6 C6        -49.5456  -29.0329    5.1382 C.3       14 UNK        -0.0898 
      7 S7        -50.1979  -30.7056    5.4709 S.3       14 UNK        -0.2598 
      8 C8        -51.9606  -30.5049    5.0458 C.3       14 UNK         0.0286 
      9 C9        -52.6815  -29.5722    6.0115 C.ar      14 UNK        -0.0844 
     10 C10       -52.6957  -28.1951    5.7769 C.ar      14 UNK        -0.0881 
     11 C11       -53.3276  -27.3245    6.6666 C.ar      14 UNK        -0.0643 
     12 C12       -53.9913  -27.8419    7.7826 C.ar      14 UNK        -0.0930 
     13 C13       -54.0109  -29.2213    8.0143 C.ar      14 UNK        -0.0827 
     14 C14       -53.3460  -30.0805    7.1320 C.ar      14 UNK        -0.1249 
     15 C15       -54.7798  -29.7895    9.1961 C.3       14 UNK         0.0141 
     16 S16       -53.6959  -30.1402   10.6143 S.3       14 UNK        -0.2313 
     17 C17       -54.9038  -30.9160   11.7467 C.3       14 UNK        -0.0915 
     18 CA        -55.0587  -30.2061   13.1202 C.3       13 UNK         0.0968 
     19 C         -53.9370  -30.5790   14.1364 C.2       13 UNK         0.5732 
     20 N         -53.3301  -29.6403   14.8535 N.am      13 UNK        -0.7310 
     21 O         -53.6268  -31.7566   14.3029 O.2       13 UNK        -0.5035 
     22 N         -55.2827  -28.7615   12.9678 N.am      13 UNK        -0.4233 
     23 C         -56.0400  -28.0176   13.7777 C.2       13 UNK         0.4989 
     24 O         -56.7684  -28.4715   14.6637 O.2       13 UNK        -0.4996 
     25 CA        -55.9597  -26.4966   13.5676 C.3       12 UNK         0.0216 
     26 CB        -57.2395  -25.9683   12.8994 C.3       12 UNK        -0.1964 
     27 N         -55.7358  -25.7903   14.8318 N.am      12 UNK        -0.4276 
     28 C         -54.6628  -25.9618   15.6155 C.2       12 UNK         0.5020 
     29 O         -53.7345  -26.7307   15.3546 O.2       12 UNK        -0.5489 
     30 CA        -54.6372  -25.1752   16.9283 C.3       11 UNK         0.0294 
     31 CB        -54.9984  -26.0920   18.1133 C.3       11 UNK        -0.2019 
     32 N         -53.3037  -24.6077   17.1043 N.am      11 UNK        -0.4493 
     33 C         -52.9818  -23.6270   17.9557 C.2       11 UNK         0.4932 
     34 O         -53.7956  -23.0758   18.7000 O.2       11 UNK        -0.5029 
     35 CA        -51.5016  -23.1934   17.9734 C.3       10 UNK         0.0280 
     36 CB        -51.1654  -22.2192   19.1230 C.3       10 UNK        -0.1976 
     37 N         -50.5794  -24.3353   17.9667 N.am      10 UNK        -0.4242 
     38 C         -50.4758  -25.3177   18.8746 C.2       10 UNK         0.5072 
     39 O         -51.1278  -25.3567   19.9198 O.2       10 UNK        -0.5224 
     40 CA        -49.4846  -26.4575   18.5498 C.3       9 UNK         0.0343 
     41 CB        -49.6878  -27.6921   19.4488 C.3       9 UNK        -0.2003 
     42 N         -49.5721  -26.8783   17.1483 N.am      9 UNK        -0.4272 
     43 C         -48.9369  -26.3003   16.1207 C.2       9 UNK         0.4988 
     44 O         -48.1498  -25.3618   16.2563 O.2       9 UNK        -0.5108 
     45 CA        -49.2584  -26.8140   14.7023 C.3       8 UNK         0.0248 
     46 CB        -50.3145  -27.9394   14.6570 C.3       8 UNK        -0.2001 
     47 N         -49.6493  -25.7249   13.8008 N.am      8 UNK        -0.4140 
     48 C         -50.6150  -24.8124   13.9960 C.2       8 UNK         0.5028 
     49 O         -51.3144  -24.7455   15.0069 O.2       8 UNK        -0.5428 
     50 CA        -50.8343  -23.7833   12.8766 C.3       7 UNK         0.0264 
     51 CB        -49.7926  -22.6567   12.9659 C.3       7 UNK        -0.1988 
     52 N         -50.8032  -24.3749   11.5381 N.am      7 UNK        -0.4454 
     53 C         -51.7355  -25.2062   11.0457 C.2       7 UNK         0.5027 
     54 O         -52.7533  -25.5412   11.6526 O.2       7 UNK        -0.5083 
     55 CA        -51.4914  -25.7415    9.6198 C.3       6 UNK         0.0844 
     56 C56       -51.9052  -24.6631    8.5857 C.3       14 UNK        -0.0967 
     57 S57       -51.6542  -25.1417    6.8457 S.3       14 UNK        -0.2604 
     58 C58       -53.2811  -25.8289    6.4027 C.3       14 UNK         0.0134 
     59 N         -50.1128  -26.2187    9.4624 N.am      6 UNK        -0.4116 
     60 C         -49.5920  -27.2575   10.1358 C.2       5 UNK         0.5034 
     61 O         -50.2438  -28.0020   10.8665 O.2       5 UNK        -0.5045 
     62 CA        -48.0771  -27.4852   10.0166 C.3       5 UNK         0.0224 
     63 CB        -47.7505  -28.4401    8.8564 C.3       5 UNK        -0.1978 
     64 N         -47.3472  -26.2244    9.8575 N.am      5 UNK        -0.4737 
     65 C         -47.1027  -25.3701   10.8620 C.2       4 UNK         0.5027 
     66 O         -47.4211  -25.5880   12.0293 O.2       4 UNK        -0.5211 
     67 CA        -46.4204  -24.0355   10.5112 C.3       4 UNK         0.0297 
     68 CB        -44.8921  -24.1836   10.5708 C.3       4 UNK        -0.1993 
     69 N         -46.8091  -23.5164    9.1987 N.am      4 UNK        -0.4486 
     70 C         -48.0484  -23.1254    8.8695 C.2       3 UNK         0.4961 
     71 O         -48.9855  -23.0871    9.6667 O.2       3 UNK        -0.5105 
     72 CA        -48.2972  -22.7839    7.3867 C.3       3 UNK         0.0299 
     73 CB        -48.0638  -21.2864    7.1345 C.3       3 UNK        -0.1972 
     74 N         -47.4872  -23.5759    6.4478 N.am      3 UNK        -0.4305 
     75 C         -47.4886  -24.9153    6.3888 C.2       2 UNK         0.5006 
     76 O         -48.1768  -25.6224    7.1278 O.2       2 UNK        -0.5106 
     77 CA        -46.5016  -25.5723    5.4101 C.3       2 UNK         0.0296 
     78 CB        -45.0582  -25.4221    5.9225 C.3       2 UNK        -0.2002 
     79 N         -46.8037  -26.9986    5.2938 N.am      2 UNK        -0.4032 
     80 C         -47.6501  -27.5397    4.4085 C.2       1 UNK         0.5000 
     81 O         -48.1218  -26.9223    3.4512 O.2       1 UNK        -0.5238 
     82 H82       -45.7791  -31.0400    7.2394 H         1 UNK         0.0889 
     83 H83       -44.2711  -30.3686    6.6155 H         1 UNK         0.0889 
     84 H84       -44.8997  -31.8845    5.9639 H         1 UNK         0.0889 
     85 H85       -47.5991  -30.0158    6.4347 H         1 UNK         0.3028 
     86 H86       -48.0384  -29.5082    3.6753 H         1 UNK         0.0864 
     87 H87       -50.1752  -28.5677    4.3789 H         1 UNK         0.0720 
     88 H88       -49.6665  -28.4370    6.0455 H         1 UNK         0.0720 
     89 H89       -52.4364  -31.4866    5.0555 H         1 UNK         0.0814 
     90 H90       -52.0523  -30.1369    4.0227 H         1 UNK         0.0814 
     91 H91       -52.1988  -27.7876    4.9084 H         1 UNK         0.1469 
     92 H92       -54.4939  -27.1727    8.4674 H         1 UNK         0.1381 
     93 H93       -53.3512  -31.1464    7.3161 H         1 UNK         0.1206 
     94 H94       -55.5657  -29.0987    9.5060 H         1 UNK         0.0813 
     95 H95       -55.2824  -30.7086    8.8902 H         1 UNK         0.0813 
     96 H96       -54.6328  -31.9657   11.8721 H         1 UNK         0.0638 
     97 H97       -55.8802  -30.9365   11.2608 H         1 UNK         0.0638 
     98 H98       -55.9598  -30.6301   13.5672 H         1 UNK         0.0568 
     99 H99       -53.5832  -28.6599   14.7843 H         1 UNK         0.3450 
    100 H100      -52.6226  -29.9230   15.5102 H         1 UNK         0.3450 
    101 H101      -54.6921  -28.3063   12.2866 H         1 UNK         0.2987 
    102 H102      -55.1132  -26.2725   12.9146 H         1 UNK         0.0766 
    103 H103      -57.4135  -26.4655   11.9441 H         1 UNK         0.0798 
    104 H104      -57.1712  -24.8990   12.6982 H         1 UNK         0.0798 
    105 H105      -58.1200  -26.1394   13.5205 H         1 UNK         0.0798 
    106 H106      -56.4737  -25.1748   15.1418 H         1 UNK         0.3198 
    107 H107      -55.3593  -24.3580   16.8696 H         1 UNK         0.0843 
    108 H108      -55.0425  -25.5390   19.0514 H         1 UNK         0.0831 
    109 H109      -54.2696  -26.8949   18.2326 H         1 UNK         0.0831 
    110 H110      -55.9744  -26.5559   17.9651 H         1 UNK         0.0831 
    111 H111      -52.5978  -24.9497   16.4506 H         1 UNK         0.3133 
    112 H112      -51.3314  -22.6635   17.0350 H         1 UNK         0.0566 
    113 H113      -50.1195  -21.9144   19.0919 H         1 UNK         0.0814 
    114 H114      -51.3571  -22.6631   20.1004 H         1 UNK         0.0814 
    115 H115      -51.7683  -21.3129   19.0549 H         1 UNK         0.0814 
    116 H116      -50.0188  -24.4295   17.1280 H         1 UNK         0.3091 
    117 H117      -48.4824  -26.0698   18.7444 H         1 UNK         0.0702 
    118 H118      -48.9652  -28.4749   19.2174 H         1 UNK         0.0785 
    119 H119      -50.6878  -28.1129   19.3355 H         1 UNK         0.0785 
    120 H120      -49.5575  -27.4370   20.5014 H         1 UNK         0.0785 
    121 H121      -50.2424  -27.6046   16.9408 H         1 UNK         0.2998 
    122 H122      -48.3257  -27.2169   14.3054 H         1 UNK         0.0697 
    123 H123      -51.2743  -27.6082   15.0529 H         1 UNK         0.0825 
    124 H124      -49.9948  -28.8140   15.2246 H         1 UNK         0.0825 
    125 H125      -50.4862  -28.2727   13.6332 H         1 UNK         0.0825 
    126 H126      -49.0527  -25.6240   12.9834 H         1 UNK         0.3029 
    127 H127      -51.8236  -23.3446   13.0243 H         1 UNK         0.0897 
    128 H128      -48.7804  -23.0289   12.8030 H         1 UNK         0.0792 
    129 H129      -49.8131  -22.1834   13.9485 H         1 UNK         0.0792 
    130 H130      -49.9850  -21.8793   12.2261 H         1 UNK         0.0792 
    131 H131      -50.0367  -24.0912   10.9325 H         1 UNK         0.3086 
    132 H132      -52.1426  -26.6063    9.4832 H         1 UNK         0.0583 
    133 H133      -52.9511  -24.3856    8.7294 H         1 UNK         0.1020 
    134 H134      -51.3408  -23.7434    8.7456 H         1 UNK         0.1020 
    135 H135      -54.0797  -25.3093    6.9336 H         1 UNK         0.0694 
    136 H136      -53.4577  -25.6467    5.3416 H         1 UNK         0.0694 
    137 H137      -49.5207  -25.7090    8.8173 H         1 UNK         0.2989 
    138 H138      -47.7440  -27.9595   10.9430 H         1 UNK         0.1055 
    139 H139      -48.1209  -28.0626    7.9048 H         1 UNK         0.0806 
    140 H140      -46.6767  -28.6034    8.7648 H         1 UNK         0.0806 
    141 H141      -48.2155  -29.4136    9.0183 H         1 UNK         0.0806 
    142 H142      -47.1552  -25.9338    8.9067 H         1 UNK         0.3061 
    143 H143      -46.7227  -23.3031   11.2628 H         1 UNK         0.0734 
    144 H144      -44.5234  -24.8898    9.8257 H         1 UNK         0.0832 
    145 H145      -44.3930  -23.2285   10.4065 H         1 UNK         0.0832 
    146 H146      -44.5750  -24.5481   11.5491 H         1 UNK         0.0832 
    147 H147      -46.0998  -23.5064    8.4809 H         1 UNK         0.3156 
    148 H148      -49.3455  -23.0042    7.1759 H         1 UNK         0.0589 
    149 H149      -48.3358  -21.0077    6.1162 H         1 UNK         0.0808 
    150 H150      -48.6716  -20.6791    7.8069 H         1 UNK         0.0808 
    151 H151      -47.0219  -21.0058    7.2943 H         1 UNK         0.0808 
    152 H152      -46.8901  -23.0606    5.8165 H         1 UNK         0.3098 
    153 H153      -46.5917  -25.0867    4.4362 H         1 UNK         0.0720 
    154 H154      -44.7623  -24.3738    5.9766 H         1 UNK         0.0791 
    155 H155      -44.3513  -25.9186    5.2571 H         1 UNK         0.0791 
    156 H156      -44.9332  -25.8497    6.9185 H         1 UNK         0.0791 
    157 H157      -46.5033  -27.5806    6.0605 H         1 UNK         0.3028 
@<TRIPOS>BOND
     1    1    2 1    
     2    1   82 1    
     3    1   83 1    
     4    1   84 1    
     5    2    3 2    
     6    2    4 am   BACKBONE|DICT|INTERRES
     7    4    5 1    
     8    4   85 1    
     9    5    6 1    
    10    5   80 1    
    11    5   86 1    
    12    6    7 1    
    13    6   87 1    
    14    6   88 1    
    15    7    8 1    
    16    8    9 1    
    17    8   89 1    
    18    8   90 1    
    19    9   10 ar   
    20    9   14 ar   
    21   10   11 ar   
    22   10   91 1    
    23   11   12 ar   
    24   11   58 1    
    25   12   13 ar   
    26   12   92 1    
    27   13   14 ar   
    28   13   15 1    
    29   14   93 1    
    30   15   16 1    
    31   15   94 1    
    32   15   95 1    
    33   16   17 1    
    34   17   18 1    
    35   17   96 1    
    36   17   97 1    
    37   18   19 1    
    38   18   22 1    
    39   18   98 1    
    40   19   20 am   BACKBONE|DICT|INTERRES
    41   19   21 2    
    42   20   99 1    
    43   20  100 1    
    44   22   23 am   BACKBONE|DICT|INTERRES
    45   22  101 1    
    46   23   24 2    
    47   23   25 1    
    48   25   26 1    
    49   25   27 1    
    50   25  102 1    
    51   26  103 1    
    52   26  104 1    
    53   26  105 1    
    54   27   28 am   BACKBONE|DICT|INTERRES
    55   27  106 1    
    56   28   29 2    
    57   28   30 1    
    58   30   31 1    
    59   30   32 1    
    60   30  107 1    
    61   31  108 1    
    62   31  109 1    
    63   31  110 1    
    64   32   33 am   BACKBONE|DICT|INTERRES
    65   32  111 1    
    66   33   34 2    
    67   33   35 1    
    68   35   36 1    
    69   35   37 1    
    70   35  112 1    
    71   36  113 1    
    72   36  114 1    
    73   36  115 1    
    74   37   38 am   BACKBONE|DICT|INTERRES
    75   37  116 1    
    76   38   39 2    
    77   38   40 1    
    78   40   41 1    
    79   40   42 1    
    80   40  117 1    
    81   41  118 1    
    82   41  119 1    
    83   41  120 1    
    84   42   43 am   BACKBONE|DICT|INTERRES
    85   42  121 1    
    86   43   44 2    
    87   43   45 1    
    88   45   46 1    
    89   45   47 1    
    90   45  122 1    
    91   46  123 1    
    92   46  124 1    
    93   46  125 1    
    94   47   48 am   BACKBONE|DICT|INTERRES
    95   47  126 1    
    96   48   49 2    
    97   48   50 1    
    98   50   51 1    
    99   50   52 1    
   100   50  127 1    
   101   51  128 1    
   102   51  129 1    
   103   51  130 1    
   104   52   53 am   BACKBONE|DICT|INTERRES
   105   52  131 1    
   106   53   54 2    
   107   53   55 1    
   108   55   56 1    
   109   55   59 1    
   110   55  132 1    
   111   56   57 1    
   112   56  133 1    
   113   56  134 1    
   114   57   58 1    
   115   58  135 1    
   116   58  136 1    
   117   59   60 am   BACKBONE|DICT|INTERRES
   118   59  137 1    
   119   60   61 2    
   120   60   62 1    
   121   62   63 1    
   122   62   64 1    
   123   62  138 1    
   124   63  139 1    
   125   63  140 1    
   126   63  141 1    
   127   64   65 am   BACKBONE|DICT|INTERRES
   128   64  142 1    
   129   65   66 2    
   130   65   67 1    
   131   67   68 1    
   132   67   69 1    
   133   67  143 1    
   134   68  144 1    
   135   68  145 1    
   136   68  146 1    
   137   69   70 am   BACKBONE|DICT|INTERRES
   138   69  147 1    
   139   70   71 2    
   140   70   72 1    
   141   72   73 1    
   142   72   74 1    
   143   72  148 1    
   144   73  149 1    
   145   73  150 1    
   146   73  151 1    
   147   74   75 am   BACKBONE|DICT|INTERRES
   148   74  152 1    
   149   75   76 2    
   150   75   77 1    
   151   77   78 1    
   152   77   79 1    
   153   77  153 1    
   154   78  154 1    
   155   78  155 1    
   156   78  156 1    
   157   79   80 am   BACKBONE|DICT|INTERRES
   158   79  157 1    
   159   80   81 2    
@<TRIPOS>SUBSTRUCTURE
     1 UNK         1 GROUP             0       ****    0 ROOT    
