@<TRIPOS>MOLECULE
3R207
157   159    1
SMALL
USER_CHARGES


@<TRIPOS>ATOM
      1 CA        -46.7224  -32.0458    2.9449 C.3       0 UNK        -0.1975 
      2 C         -47.4731  -30.8593    3.5312 C.2       0 UNK         0.4852 
      3 O         -47.7896  -30.8762    4.7202 O.2       0 UNK        -0.5216 
      4 N         -47.7260  -29.8325    2.7047 N.am      1 UNK        -0.4461 
      5 CA        -48.4707  -28.5753    2.9194 C.3       1 UNK         0.0864 
      6 C6        -50.0168  -28.7355    2.8670 C.3       14 UNK        -0.0898 
      7 S7        -50.7851  -29.6016    4.2776 S.3       14 UNK        -0.2598 
      8 C8        -51.4708  -28.1963    5.2039 C.3       14 UNK         0.0286 
      9 C9        -51.9099  -28.6124    6.5976 C.ar      14 UNK        -0.0844 
     10 C10       -50.9487  -28.9075    7.5677 C.ar      14 UNK        -0.0881 
     11 C11       -51.3226  -29.2638    8.8652 C.ar      14 UNK        -0.0643 
     12 C12       -52.6859  -29.3493    9.1775 C.ar      14 UNK        -0.0930 
     13 C13       -53.6583  -29.0534    8.2179 C.ar      14 UNK        -0.0827 
     14 C14       -53.2659  -28.6844    6.9280 C.ar      14 UNK        -0.1249 
     15 C15       -55.1313  -29.1297    8.5840 C.3       14 UNK         0.0141 
     16 S16       -55.6734  -27.6014    9.4066 S.3       14 UNK        -0.2313 
     17 C17       -57.4055  -28.0181    9.8092 C.3       14 UNK        -0.0915 
     18 CA        -57.6536  -28.3506   11.3065 C.3       13 UNK         0.0968 
     19 C         -57.0908  -29.7431   11.7146 C.2       13 UNK         0.5732 
     20 N         -57.6986  -30.8175   11.2290 N.am      13 UNK        -0.7310 
     21 O         -56.1060  -29.8659   12.4405 O.2       13 UNK        -0.5035 
     22 N         -57.2095  -27.2557   12.1793 N.am      13 UNK        -0.4233 
     23 C         -57.5878  -27.0877   13.4501 C.2       13 UNK         0.4989 
     24 O         -58.4141  -27.7990   14.0262 O.2       13 UNK        -0.4996 
     25 CA        -56.9218  -25.9301   14.2118 C.3       12 UNK         0.0216 
     26 CB        -57.9366  -25.1496   15.0664 C.3       12 UNK        -0.1964 
     27 N         -55.8560  -26.4378   15.0736 N.am      12 UNK        -0.4276 
     28 C         -54.6632  -26.8596   14.6383 C.2       12 UNK         0.5020 
     29 O         -54.2926  -26.7779   13.4656 O.2       12 UNK        -0.5489 
     30 CA        -53.7110  -27.4098   15.7083 C.3       11 UNK         0.0294 
     31 CB        -52.7957  -28.5194   15.1606 C.3       11 UNK        -0.2019 
     32 N         -52.8875  -26.3137   16.2055 N.am      11 UNK        -0.4493 
     33 C         -53.2121  -25.4982   17.2162 C.2       11 UNK         0.4932 
     34 O         -54.2406  -25.6230   17.8842 O.2       11 UNK        -0.5029 
     35 CA        -52.2285  -24.3472   17.5150 C.3       10 UNK         0.0280 
     36 CB        -52.4100  -23.7427   18.9235 C.3       10 UNK        -0.1976 
     37 N         -50.8283  -24.7127   17.2672 N.am      10 UNK        -0.4242 
     38 C         -50.1053  -25.6602   17.8861 C.2       10 UNK         0.5072 
     39 O         -50.5103  -26.3114   18.8504 O.2       10 UNK        -0.5224 
     40 CA        -48.6994  -25.9677   17.3294 C.3       9 UNK         0.0343 
     41 CB        -48.6737  -27.3700   16.6980 C.3       9 UNK        -0.2003 
     42 N         -48.2225  -24.9963   16.3404 N.am      9 UNK        -0.4272 
     43 C         -47.7870  -23.7618   16.6281 C.2       9 UNK         0.4988 
     44 O         -47.6748  -23.3251   17.7739 O.2       9 UNK        -0.5108 
     45 CA        -47.4510  -22.8470   15.4365 C.3       8 UNK         0.0248 
     46 CB        -46.0059  -23.0793   14.9677 C.3       8 UNK        -0.2001 
     47 N         -48.3724  -23.0046   14.3049 N.am      8 UNK        -0.4140 
     48 C         -49.6870  -22.7368   14.3504 C.2       8 UNK         0.5028 
     49 O         -50.2604  -22.2930   15.3452 O.2       8 UNK        -0.5428 
     50 CA        -50.5184  -23.0767   13.1011 C.3       7 UNK         0.0264 
     51 CB        -50.3316  -22.0126   12.0090 C.3       7 UNK        -0.1988 
     52 N         -50.2193  -24.4090   12.5675 N.am      7 UNK        -0.4454 
     53 C         -50.4025  -25.5494   13.2503 C.2       7 UNK         0.5027 
     54 O         -50.8945  -25.5912   14.3773 O.2       7 UNK        -0.5083 
     55 CA        -49.8982  -26.8603   12.6184 C.3       6 UNK         0.0844 
     56 C56       -50.9624  -27.5200   11.7117 C.3       14 UNK        -0.0967 
     57 S57       -50.6983  -29.3239   11.6275 S.3       14 UNK        -0.2604 
     58 C58       -50.2243  -29.5678    9.8841 C.3       14 UNK         0.0134 
     59 N         -48.6127  -26.6768   11.9414 N.am      6 UNK        -0.4116 
     60 C         -47.4660  -26.3971   12.5761 C.2       5 UNK         0.5034 
     61 O         -47.3580  -26.3130   13.7996 O.2       5 UNK        -0.5045 
     62 CA        -46.2479  -26.1036   11.6898 C.3       5 UNK         0.0224 
     63 CB        -45.6272  -27.4041   11.1545 C.3       5 UNK        -0.1978 
     64 N         -46.5890  -25.2124   10.5780 N.am      5 UNK        -0.4737 
     65 C         -46.9064  -23.9180   10.7332 C.2       4 UNK         0.5027 
     66 O         -46.9183  -23.3466   11.8224 O.2       4 UNK        -0.5211 
     67 CA        -47.3095  -23.1302    9.4751 C.3       4 UNK         0.0297 
     68 CB        -46.0700  -22.5029    8.8186 C.3       4 UNK        -0.1993 
     69 N         -48.0329  -23.9302    8.4856 N.am      4 UNK        -0.4486 
     70 C         -49.2020  -24.5523    8.6953 C.2       3 UNK         0.4961 
     71 O         -49.8241  -24.5118    9.7563 O.2       3 UNK        -0.5105 
     72 CA        -49.7411  -25.4059    7.5361 C.3       3 UNK         0.0299 
     73 CB        -50.6219  -24.5512    6.6109 C.3       3 UNK        -0.1972 
     74 N         -48.6872  -26.0624    6.7510 N.am      3 UNK        -0.4305 
     75 C         -47.7760  -26.9161    7.2381 C.2       2 UNK         0.5006 
     76 O         -47.7244  -27.2416    8.4256 O.2       2 UNK        -0.5106 
     77 CA        -46.7497  -27.4825    6.2376 C.3       2 UNK         0.0296 
     78 CB        -45.7326  -28.4226    6.9120 C.3       2 UNK        -0.2002 
     79 N         -47.3710  -28.1930    5.1166 N.am      2 UNK        -0.4032 
     80 C         -47.9903  -27.6469    4.0640 C.2       1 UNK         0.5000 
     81 O         -48.1735  -26.4316    3.9591 O.2       1 UNK        -0.5238 
     82 H82       -47.3234  -32.9500    3.0370 H         1 UNK         0.0889 
     83 H83       -45.7880  -32.2015    3.4835 H         1 UNK         0.0889 
     84 H84       -46.4865  -31.9021    1.8907 H         1 UNK         0.0889 
     85 H85       -47.3742  -29.9208    1.7611 H         1 UNK         0.3028 
     86 H86       -48.2192  -28.0045    2.0236 H         1 UNK         0.0864 
     87 H87       -50.2870  -29.2869    1.9653 H         1 UNK         0.0720 
     88 H88       -50.4876  -27.7575    2.7496 H         1 UNK         0.0720 
     89 H89       -52.3025  -27.7648    4.6447 H         1 UNK         0.0814 
     90 H90       -50.7159  -27.4160    5.2883 H         1 UNK         0.0814 
     91 H91       -49.9007  -28.8588    7.3074 H         1 UNK         0.1469 
     92 H92       -53.0023  -29.6352   10.1708 H         1 UNK         0.1381 
     93 H93       -54.0156  -28.4508    6.1843 H         1 UNK         0.1206 
     94 H94       -55.7375  -29.2981    7.6925 H         1 UNK         0.0813 
     95 H95       -55.3036  -29.9825    9.2424 H         1 UNK         0.0813 
     96 H96       -57.7511  -28.8294    9.1663 H         1 UNK         0.0638 
     97 H97       -58.0143  -27.1562    9.5322 H         1 UNK         0.0638 
     98 H98       -58.7355  -28.4218   11.4358 H         1 UNK         0.0568 
     99 H99       -58.5073  -30.7378   10.6327 H         1 UNK         0.3450 
    100 H100      -57.3470  -31.7293   11.4755 H         1 UNK         0.3450 
    101 H101      -56.4545  -26.6909   11.8167 H         1 UNK         0.2987 
    102 H102      -56.4891  -25.2335   13.4900 H         1 UNK         0.0766 
    103 H103      -58.7493  -24.7642   14.4492 H         1 UNK         0.0798 
    104 H104      -57.4683  -24.2949   15.5549 H         1 UNK         0.0798 
    105 H105      -58.3841  -25.7737   15.8412 H         1 UNK         0.0798 
    106 H106      -56.0660  -26.5168   16.0592 H         1 UNK         0.3198 
    107 H107      -54.3005  -27.8364   16.5230 H         1 UNK         0.0843 
    108 H108      -52.1314  -28.1508   14.3801 H         1 UNK         0.0831 
    109 H109      -53.3829  -29.3320   14.7306 H         1 UNK         0.0831 
    110 H110      -52.1755  -28.9450   15.9495 H         1 UNK         0.0831 
    111 H111      -52.0729  -26.0777   15.6384 H         1 UNK         0.3133 
    112 H112      -52.4599  -23.5637   16.7921 H         1 UNK         0.0566 
    113 H113      -52.2657  -24.4869   19.7071 H         1 UNK         0.0814 
    114 H114      -53.4137  -23.3343   19.0464 H         1 UNK         0.0814 
    115 H115      -51.7065  -22.9288   19.0987 H         1 UNK         0.0814 
    116 H116      -50.4034  -24.2462   16.4745 H         1 UNK         0.3091 
    117 H117      -48.0078  -25.9629   18.1744 H         1 UNK         0.0702 
    118 H118      -47.6785  -27.6241   16.3326 H         1 UNK         0.0785 
    119 H119      -49.3681  -27.4457   15.8610 H         1 UNK         0.0785 
    120 H120      -48.9564  -28.1329   17.4246 H         1 UNK         0.0785 
    121 H121      -48.2133  -25.3022   15.3725 H         1 UNK         0.2998 
    122 H122      -47.5327  -21.8147   15.7830 H         1 UNK         0.0697 
    123 H123      -45.7235  -22.3700   14.1895 H         1 UNK         0.0825 
    124 H124      -45.8677  -24.0846   14.5683 H         1 UNK         0.0825 
    125 H125      -45.3018  -22.9541   15.7913 H         1 UNK         0.0825 
    126 H126      -47.9636  -23.3186   13.4274 H         1 UNK         0.3029 
    127 H127      -51.5703  -23.0755   13.3955 H         1 UNK         0.0897 
    128 H128      -49.2922  -21.9374   11.6922 H         1 UNK         0.0792 
    129 H129      -50.6321  -21.0285   12.3709 H         1 UNK         0.0792 
    130 H130      -50.9363  -22.2341   11.1292 H         1 UNK         0.0792 
    131 H131      -49.8776  -24.4563   11.6092 H         1 UNK         0.3086 
    132 H132      -49.7182  -27.5335   13.4596 H         1 UNK         0.0583 
    133 H133      -51.9700  -27.3670   12.1045 H         1 UNK         0.1020 
    134 H134      -50.9637  -27.0752   10.7146 H         1 UNK         0.1020 
    135 H135      -49.3447  -28.9551    9.6827 H         1 UNK         0.0694 
    136 H136      -49.9143  -30.6052    9.7538 H         1 UNK         0.0694 
    137 H137      -48.6146  -26.7035   10.9314 H         1 UNK         0.2989 
    138 H138      -45.5018  -25.6015   12.3102 H         1 UNK         0.1055 
    139 H139      -45.3143  -28.0502   11.9759 H         1 UNK         0.0806 
    140 H140      -44.7446  -27.2027   10.5473 H         1 UNK         0.0806 
    141 H141      -46.3299  -27.9735   10.5455 H         1 UNK         0.0806 
    142 H142      -46.6678  -25.6322    9.6603 H         1 UNK         0.3061 
    143 H143      -47.9723  -22.3220    9.7887 H         1 UNK         0.0734 
    144 H144      -45.3769  -23.2617    8.4532 H         1 UNK         0.0832 
    145 H145      -46.3442  -21.8636    7.9792 H         1 UNK         0.0832 
    146 H146      -45.5255  -21.8813    9.5311 H         1 UNK         0.0832 
    147 H147      -47.6028  -24.0295    7.5778 H         1 UNK         0.3156 
    148 H148      -50.3639  -26.1872    7.9747 H         1 UNK         0.0589 
    149 H149      -51.1061  -25.1550    5.8445 H         1 UNK         0.0808 
    150 H150      -50.0458  -23.7725    6.1096 H         1 UNK         0.0808 
    151 H151      -51.4144  -24.0579    7.1758 H         1 UNK         0.0808 
    152 H152      -48.6569  -25.8732    5.7523 H         1 UNK         0.3098 
    153 H153      -46.1960  -26.6312    5.8366 H         1 UNK         0.0720 
    154 H154      -45.2118  -27.9193    7.7279 H         1 UNK         0.0791 
    155 H155      -44.9742  -28.7597    6.2052 H         1 UNK         0.0791 
    156 H156      -46.2178  -29.3060    7.3295 H         1 UNK         0.0791 
    157 H157      -47.3608  -29.2119    5.1507 H         1 UNK         0.3028 
@<TRIPOS>BOND
     1    1    2 1    
     2    1   82 1    
     3    1   83 1    
     4    1   84 1    
     5    2    3 2    
     6    2    4 am   BACKBONE|DICT|INTERRES
     7    4    5 1    
     8    4   85 1    
     9    5    6 1    
    10    5   80 1    
    11    5   86 1    
    12    6    7 1    
    13    6   87 1    
    14    6   88 1    
    15    7    8 1    
    16    8    9 1    
    17    8   89 1    
    18    8   90 1    
    19    9   10 ar   
    20    9   14 ar   
    21   10   11 ar   
    22   10   91 1    
    23   11   12 ar   
    24   11   58 1    
    25   12   13 ar   
    26   12   92 1    
    27   13   14 ar   
    28   13   15 1    
    29   14   93 1    
    30   15   16 1    
    31   15   94 1    
    32   15   95 1    
    33   16   17 1    
    34   17   18 1    
    35   17   96 1    
    36   17   97 1    
    37   18   19 1    
    38   18   22 1    
    39   18   98 1    
    40   19   20 am   BACKBONE|DICT|INTERRES
    41   19   21 2    
    42   20   99 1    
    43   20  100 1    
    44   22   23 am   BACKBONE|DICT|INTERRES
    45   22  101 1    
    46   23   24 2    
    47   23   25 1    
    48   25   26 1    
    49   25   27 1    
    50   25  102 1    
    51   26  103 1    
    52   26  104 1    
    53   26  105 1    
    54   27   28 am   BACKBONE|DICT|INTERRES
    55   27  106 1    
    56   28   29 2    
    57   28   30 1    
    58   30   31 1    
    59   30   32 1    
    60   30  107 1    
    61   31  108 1    
    62   31  109 1    
    63   31  110 1    
    64   32   33 am   BACKBONE|DICT|INTERRES
    65   32  111 1    
    66   33   34 2    
    67   33   35 1    
    68   35   36 1    
    69   35   37 1    
    70   35  112 1    
    71   36  113 1    
    72   36  114 1    
    73   36  115 1    
    74   37   38 am   BACKBONE|DICT|INTERRES
    75   37  116 1    
    76   38   39 2    
    77   38   40 1    
    78   40   41 1    
    79   40   42 1    
    80   40  117 1    
    81   41  118 1    
    82   41  119 1    
    83   41  120 1    
    84   42   43 am   BACKBONE|DICT|INTERRES
    85   42  121 1    
    86   43   44 2    
    87   43   45 1    
    88   45   46 1    
    89   45   47 1    
    90   45  122 1    
    91   46  123 1    
    92   46  124 1    
    93   46  125 1    
    94   47   48 am   BACKBONE|DICT|INTERRES
    95   47  126 1    
    96   48   49 2    
    97   48   50 1    
    98   50   51 1    
    99   50   52 1    
   100   50  127 1    
   101   51  128 1    
   102   51  129 1    
   103   51  130 1    
   104   52   53 am   BACKBONE|DICT|INTERRES
   105   52  131 1    
   106   53   54 2    
   107   53   55 1    
   108   55   56 1    
   109   55   59 1    
   110   55  132 1    
   111   56   57 1    
   112   56  133 1    
   113   56  134 1    
   114   57   58 1    
   115   58  135 1    
   116   58  136 1    
   117   59   60 am   BACKBONE|DICT|INTERRES
   118   59  137 1    
   119   60   61 2    
   120   60   62 1    
   121   62   63 1    
   122   62   64 1    
   123   62  138 1    
   124   63  139 1    
   125   63  140 1    
   126   63  141 1    
   127   64   65 am   BACKBONE|DICT|INTERRES
   128   64  142 1    
   129   65   66 2    
   130   65   67 1    
   131   67   68 1    
   132   67   69 1    
   133   67  143 1    
   134   68  144 1    
   135   68  145 1    
   136   68  146 1    
   137   69   70 am   BACKBONE|DICT|INTERRES
   138   69  147 1    
   139   70   71 2    
   140   70   72 1    
   141   72   73 1    
   142   72   74 1    
   143   72  148 1    
   144   73  149 1    
   145   73  150 1    
   146   73  151 1    
   147   74   75 am   BACKBONE|DICT|INTERRES
   148   74  152 1    
   149   75   76 2    
   150   75   77 1    
   151   77   78 1    
   152   77   79 1    
   153   77  153 1    
   154   78  154 1    
   155   78  155 1    
   156   78  156 1    
   157   79   80 am   BACKBONE|DICT|INTERRES
   158   79  157 1    
   159   80   81 2    
@<TRIPOS>SUBSTRUCTURE
     1 UNK         1 GROUP             0       ****    0 ROOT    
