@<TRIPOS>MOLECULE
3R207
157   159    1
SMALL
USER_CHARGES


@<TRIPOS>ATOM
      1 CA        -47.2617  -28.9156   11.1125 C.3       0 UNK        -0.1975 
      2 C         -47.2244  -29.4179    9.6782 C.2       0 UNK         0.4852 
      3 O         -46.3190  -30.1663    9.3110 O.2       0 UNK        -0.5216 
      4 N         -48.1988  -29.0019    8.8608 N.am      1 UNK        -0.4461 
      5 CA        -48.3739  -29.3968    7.4560 C.3       1 UNK         0.0864 
      6 C6        -49.8750  -29.4285    7.0616 C.3       14 UNK        -0.0898 
      7 S7        -50.7999  -27.9200    7.5097 S.3       14 UNK        -0.2598 
      8 C8        -52.5068  -28.5190    7.2907 C.3       14 UNK         0.0286 
      9 C9        -53.5309  -27.5400    7.8472 C.ar      14 UNK        -0.0844 
     10 C10       -53.6123  -26.2418    7.3372 C.ar      14 UNK        -0.0881 
     11 C11       -54.5329  -25.3272    7.8575 C.ar      14 UNK        -0.0643 
     12 C12       -55.4003  -25.7304    8.8776 C.ar      14 UNK        -0.0930 
     13 C13       -55.3516  -27.0366    9.3746 C.ar      14 UNK        -0.0827 
     14 C14       -54.4106  -27.9343    8.8605 C.ar      14 UNK        -0.1249 
     15 C15       -56.3224  -27.4847   10.4570 C.3       14 UNK         0.0141 
     16 S16       -55.5199  -27.4924   12.0854 S.3       14 UNK        -0.2313 
     17 C17       -56.8772  -28.0170   13.1867 C.3       14 UNK        -0.0915 
     18 CA        -56.8313  -29.5079   13.6213 C.3       13 UNK         0.0968 
     19 C         -57.0895  -30.4783   12.4305 C.2       13 UNK         0.5732 
     20 N         -56.1468  -31.3330   12.0504 N.am      13 UNK        -0.7310 
     21 O         -58.1717  -30.4605   11.8489 O.2       13 UNK        -0.5035 
     22 N         -55.6499  -29.8314   14.4449 N.am      13 UNK        -0.4233 
     23 C         -55.5988  -30.8784   15.2848 C.2       13 UNK         0.4989 
     24 O         -56.5590  -31.6164   15.5103 O.2       13 UNK        -0.4996 
     25 CA        -54.2689  -31.1727   15.9949 C.3       12 UNK         0.0216 
     26 CB        -53.3256  -31.9507   15.0617 C.3       12 UNK        -0.1964 
     27 N         -53.6054  -29.9485   16.4404 N.am      12 UNK        -0.4276 
     28 C         -53.4851  -29.5476   17.7134 C.2       12 UNK         0.5020 
     29 O         -53.9165  -30.1847   18.6757 O.2       12 UNK        -0.5489 
     30 CA        -52.7492  -28.2170   17.9746 C.3       11 UNK         0.0294 
     31 CB        -51.2895  -28.4827   18.3771 C.3       11 UNK        -0.2019 
     32 N         -52.7664  -27.3010   16.8322 N.am      11 UNK        -0.4493 
     33 C         -53.8625  -26.6886   16.3631 C.2       11 UNK         0.4932 
     34 O         -54.9628  -26.7452   16.9125 O.2       11 UNK        -0.5029 
     35 CA        -53.7234  -25.8990   15.0482 C.3       10 UNK         0.0280 
     36 CB        -53.5207  -24.4064   15.3575 C.3       10 UNK        -0.1976 
     37 N         -52.6616  -26.3523   14.1369 N.am      10 UNK        -0.4242 
     38 C         -52.4321  -27.6087   13.7202 C.2       10 UNK         0.5072 
     39 O         -53.0926  -28.5824   14.0819 O.2       10 UNK        -0.5224 
     40 CA        -51.2523  -27.8434   12.7636 C.3       9 UNK         0.0343 
     41 CB        -51.7468  -27.9125   11.3112 C.3       9 UNK        -0.2003 
     42 N         -50.1888  -26.8435   12.8746 N.am      9 UNK        -0.4272 
     43 C         -49.4297  -26.6432   13.9624 C.2       9 UNK         0.4988 
     44 O         -49.5444  -27.2856   15.0070 O.2       9 UNK        -0.5108 
     45 CA        -48.3864  -25.5198   13.8781 C.3       8 UNK         0.0248 
     46 CB        -47.1174  -25.9898   13.1512 C.3       8 UNK        -0.2001 
     47 N         -48.9311  -24.3374   13.2102 N.am      8 UNK        -0.4140 
     48 C         -49.6422  -23.3875   13.8325 C.2       8 UNK         0.5028 
     49 O         -49.8325  -23.3584   15.0486 O.2       8 UNK        -0.5428 
     50 CA        -50.2624  -22.2882   12.9543 C.3       7 UNK         0.0264 
     51 CB        -49.3266  -21.0731   12.8577 C.3       7 UNK        -0.1988 
     52 N         -50.6103  -22.7472   11.6069 N.am      7 UNK        -0.4454 
     53 C         -51.6167  -23.5950   11.3391 C.2       7 UNK         0.5027 
     54 O         -52.3241  -24.1063   12.2052 O.2       7 UNK        -0.5083 
     55 CA        -51.8636  -23.9458    9.8582 C.3       6 UNK         0.0844 
     56 C56       -52.7836  -22.8705    9.2196 C.3       14 UNK        -0.0967 
     57 S57       -52.9974  -23.0481    7.4143 S.3       14 UNK        -0.2604 
     58 C58       -54.5987  -23.9099    7.3052 C.3       14 UNK         0.0134 
     59 N         -50.6254  -24.1409    9.1004 N.am      6 UNK        -0.4116 
     60 C         -49.5994  -24.9414    9.4172 C.2       5 UNK         0.5034 
     61 O         -49.5340  -25.6248   10.4399 O.2       5 UNK        -0.5045 
     62 CA        -48.4041  -24.9494    8.4542 C.3       5 UNK         0.0224 
     63 CB        -48.7042  -24.3554    7.0606 C.3       5 UNK        -0.1978 
     64 N         -47.2266  -24.2976    9.0345 N.am      5 UNK        -0.4737 
     65 C         -47.1434  -23.0783    9.5932 C.2       4 UNK         0.5027 
     66 O         -48.1089  -22.3401    9.7961 O.2       4 UNK        -0.5211 
     67 CA        -45.7345  -22.5906    9.9839 C.3       4 UNK         0.0297 
     68 CB        -45.4774  -22.8252   11.4800 C.3       4 UNK        -0.1993 
     69 N         -44.6695  -23.2359    9.2096 N.am      4 UNK        -0.4486 
     70 C         -44.4581  -23.0577    7.8985 C.2       3 UNK         0.4961 
     71 O         -45.0545  -22.2276    7.2118 O.2       3 UNK        -0.5105 
     72 CA        -43.4416  -23.9948    7.2216 C.3       3 UNK         0.0299 
     73 CB        -42.3196  -24.4878    8.1643 C.3       3 UNK        -0.1972 
     74 N         -44.1162  -25.1210    6.5621 N.am      3 UNK        -0.4305 
     75 C         -44.8796  -26.0607    7.1400 C.2       2 UNK         0.5006 
     76 O         -45.0975  -26.1297    8.3543 O.2       2 UNK        -0.5106 
     77 CA        -45.5106  -27.0971    6.2018 C.3       2 UNK         0.0296 
     78 CB        -44.4406  -28.0272    5.5965 C.3       2 UNK        -0.2002 
     79 N         -46.4801  -27.8826    6.9611 N.am      2 UNK        -0.4032 
     80 C         -47.4926  -28.6001    6.4603 C.2       1 UNK         0.5000 
     81 O         -47.7309  -28.6657    5.2524 O.2       1 UNK        -0.5238 
     82 H82       -48.1246  -28.2753   11.2947 H         1 UNK         0.0889 
     83 H83       -46.3584  -28.3469   11.3309 H         1 UNK         0.0889 
     84 H84       -47.3124  -29.7560   11.8043 H         1 UNK         0.0889 
     85 H85       -48.9159  -28.3820    9.2123 H         1 UNK         0.3028 
     86 H86       -48.0173  -30.4249    7.3614 H         1 UNK         0.0864 
     87 H87       -50.0108  -29.6297    5.9974 H         1 UNK         0.0720 
     88 H88       -50.3452  -30.2686    7.5751 H         1 UNK         0.0720 
     89 H89       -52.6111  -29.4901    7.7771 H         1 UNK         0.0814 
     90 H90       -52.6996  -28.6800    6.2292 H         1 UNK         0.0814 
     91 H91       -52.9400  -25.9347    6.5476 H         1 UNK         0.1469 
     92 H92       -56.1205  -25.0310    9.2795 H         1 UNK         0.1381 
     93 H93       -54.3656  -28.9403    9.2550 H         1 UNK         0.1206 
     94 H94       -57.1939  -26.8289   10.4852 H         1 UNK         0.0813 
     95 H95       -56.6930  -28.4839   10.2248 H         1 UNK         0.0813 
     96 H96       -57.8339  -27.7875   12.7140 H         1 UNK         0.0638 
     97 H97       -56.8368  -27.3853   14.0753 H         1 UNK         0.0638 
     98 H98       -57.6975  -29.6426   14.2720 H         1 UNK         0.0568 
     99 H99       -55.2530  -31.3452   12.5127 H         1 UNK         0.3450 
    100 H100      -56.3298  -31.9599   11.2833 H         1 UNK         0.3450 
    101 H101      -54.8092  -29.2889   14.2632 H         1 UNK         0.2987 
    102 H102      -54.4907  -31.8126   16.8516 H         1 UNK         0.0766 
    103 H103      -53.0484  -31.3673   14.1827 H         1 UNK         0.0798 
    104 H104      -52.4071  -32.2322   15.5768 H         1 UNK         0.0798 
    105 H105      -53.7941  -32.8712   14.7103 H         1 UNK         0.0798 
    106 H106      -53.2611  -29.3396   15.6994 H         1 UNK         0.3198 
    107 H107      -53.2519  -27.7248   18.8101 H         1 UNK         0.0843 
    108 H108      -51.2369  -29.1482   19.2400 H         1 UNK         0.0831 
    109 H109      -50.7781  -27.5595   18.6502 H         1 UNK         0.0831 
    110 H110      -50.7269  -28.9515   17.5683 H         1 UNK         0.0831 
    111 H111      -51.9031  -27.1971   16.3155 H         1 UNK         0.3133 
    112 H112      -54.6680  -26.0064   14.5140 H         1 UNK         0.0566 
    113 H113      -54.2689  -24.0445   16.0644 H         1 UNK         0.0814 
    114 H114      -53.6143  -23.7969   14.4593 H         1 UNK         0.0814 
    115 H115      -52.5390  -24.2149   15.7932 H         1 UNK         0.0814 
    116 H116      -52.1240  -25.6161   13.6941 H         1 UNK         0.3091 
    117 H117      -50.8180  -28.8120   13.0192 H         1 UNK         0.0702 
    118 H118      -52.1914  -26.9698   10.9916 H         1 UNK         0.0785 
    119 H119      -52.5094  -28.6837   11.1949 H         1 UNK         0.0785 
    120 H120      -50.9366  -28.1520   10.6234 H         1 UNK         0.0785 
    121 H121      -50.0006  -26.2960   12.0366 H         1 UNK         0.2998 
    122 H122      -48.1031  -25.2615   14.9009 H         1 UNK         0.0697 
    123 H123      -47.2708  -26.0790   12.0754 H         1 UNK         0.0825 
    124 H124      -46.7868  -26.9607   13.5230 H         1 UNK         0.0825 
    125 H125      -46.2977  -25.2926   13.3175 H         1 UNK         0.0825 
    126 H126      -48.8713  -24.3116   12.2008 H         1 UNK         0.3029 
    127 H127      -51.1833  -21.9659   13.4460 H         1 UNK         0.0897 
    128 H128      -49.7989  -20.2515   12.3190 H         1 UNK         0.0792 
    129 H129      -49.0650  -20.7014   13.8494 H         1 UNK         0.0792 
    130 H130      -48.3966  -21.3174   12.3448 H         1 UNK         0.0792 
    131 H131      -50.0232  -22.4221   10.8453 H         1 UNK         0.3086 
    132 H132      -52.3917  -24.9005    9.8341 H         1 UNK         0.0583 
    133 H133      -53.7638  -22.8800    9.7010 H         1 UNK         0.1020 
    134 H134      -52.3794  -21.8705    9.3908 H         1 UNK         0.1020 
    135 H135      -55.3592  -23.3202    7.8193 H         1 UNK         0.0694 
    136 H136      -54.9010  -23.9561    6.2582 H         1 UNK         0.0694 
    137 H137      -50.5645  -23.6142    8.2417 H         1 UNK         0.2989 
    138 H138      -48.1457  -25.9990    8.3159 H         1 UNK         0.1055 
    139 H139      -49.5661  -24.8410    6.5999 H         1 UNK         0.0806 
    140 H140      -47.8599  -24.5047    6.3872 H         1 UNK         0.0806 
    141 H141      -48.9010  -23.2833    7.1008 H         1 UNK         0.0806 
    142 H142      -46.3653  -24.8327    8.9568 H         1 UNK         0.3061 
    143 H143      -45.6967  -21.5163    9.7911 H         1 UNK         0.0734 
    144 H144      -46.2741  -22.4012   12.0918 H         1 UNK         0.0832 
    145 H145      -45.4164  -23.8880   11.7112 H         1 UNK         0.0832 
    146 H146      -44.5445  -22.3598   11.7984 H         1 UNK         0.0832 
    147 H147      -44.1501  -23.9688    9.6717 H         1 UNK         0.3156 
    148 H148      -42.9663  -23.4120    6.4309 H         1 UNK         0.0589 
    149 H149      -42.6838  -25.1559    8.9450 H         1 UNK         0.0808 
    150 H150      -41.5551  -25.0284    7.6062 H         1 UNK         0.0808 
    151 H151      -41.8231  -23.6487    8.6537 H         1 UNK         0.0808 
    152 H152      -44.0275  -25.1402    5.5553 H         1 UNK         0.3098 
    153 H153      -46.0315  -26.5618    5.4052 H         1 UNK         0.0720 
    154 H154      -44.8845  -28.7582    4.9204 H         1 UNK         0.0791 
    155 H155      -43.9019  -28.5747    6.3711 H         1 UNK         0.0791 
    156 H156      -43.7042  -27.4668    5.0196 H         1 UNK         0.0791 
    157 H157      -46.3403  -27.8531    7.9635 H         1 UNK         0.3028 
@<TRIPOS>BOND
     1    1    2 1    
     2    1   82 1    
     3    1   83 1    
     4    1   84 1    
     5    2    3 2    
     6    2    4 am   BACKBONE|DICT|INTERRES
     7    4    5 1    
     8    4   85 1    
     9    5    6 1    
    10    5   80 1    
    11    5   86 1    
    12    6    7 1    
    13    6   87 1    
    14    6   88 1    
    15    7    8 1    
    16    8    9 1    
    17    8   89 1    
    18    8   90 1    
    19    9   10 ar   
    20    9   14 ar   
    21   10   11 ar   
    22   10   91 1    
    23   11   12 ar   
    24   11   58 1    
    25   12   13 ar   
    26   12   92 1    
    27   13   14 ar   
    28   13   15 1    
    29   14   93 1    
    30   15   16 1    
    31   15   94 1    
    32   15   95 1    
    33   16   17 1    
    34   17   18 1    
    35   17   96 1    
    36   17   97 1    
    37   18   19 1    
    38   18   22 1    
    39   18   98 1    
    40   19   20 am   BACKBONE|DICT|INTERRES
    41   19   21 2    
    42   20   99 1    
    43   20  100 1    
    44   22   23 am   BACKBONE|DICT|INTERRES
    45   22  101 1    
    46   23   24 2    
    47   23   25 1    
    48   25   26 1    
    49   25   27 1    
    50   25  102 1    
    51   26  103 1    
    52   26  104 1    
    53   26  105 1    
    54   27   28 am   BACKBONE|DICT|INTERRES
    55   27  106 1    
    56   28   29 2    
    57   28   30 1    
    58   30   31 1    
    59   30   32 1    
    60   30  107 1    
    61   31  108 1    
    62   31  109 1    
    63   31  110 1    
    64   32   33 am   BACKBONE|DICT|INTERRES
    65   32  111 1    
    66   33   34 2    
    67   33   35 1    
    68   35   36 1    
    69   35   37 1    
    70   35  112 1    
    71   36  113 1    
    72   36  114 1    
    73   36  115 1    
    74   37   38 am   BACKBONE|DICT|INTERRES
    75   37  116 1    
    76   38   39 2    
    77   38   40 1    
    78   40   41 1    
    79   40   42 1    
    80   40  117 1    
    81   41  118 1    
    82   41  119 1    
    83   41  120 1    
    84   42   43 am   BACKBONE|DICT|INTERRES
    85   42  121 1    
    86   43   44 2    
    87   43   45 1    
    88   45   46 1    
    89   45   47 1    
    90   45  122 1    
    91   46  123 1    
    92   46  124 1    
    93   46  125 1    
    94   47   48 am   BACKBONE|DICT|INTERRES
    95   47  126 1    
    96   48   49 2    
    97   48   50 1    
    98   50   51 1    
    99   50   52 1    
   100   50  127 1    
   101   51  128 1    
   102   51  129 1    
   103   51  130 1    
   104   52   53 am   BACKBONE|DICT|INTERRES
   105   52  131 1    
   106   53   54 2    
   107   53   55 1    
   108   55   56 1    
   109   55   59 1    
   110   55  132 1    
   111   56   57 1    
   112   56  133 1    
   113   56  134 1    
   114   57   58 1    
   115   58  135 1    
   116   58  136 1    
   117   59   60 am   BACKBONE|DICT|INTERRES
   118   59  137 1    
   119   60   61 2    
   120   60   62 1    
   121   62   63 1    
   122   62   64 1    
   123   62  138 1    
   124   63  139 1    
   125   63  140 1    
   126   63  141 1    
   127   64   65 am   BACKBONE|DICT|INTERRES
   128   64  142 1    
   129   65   66 2    
   130   65   67 1    
   131   67   68 1    
   132   67   69 1    
   133   67  143 1    
   134   68  144 1    
   135   68  145 1    
   136   68  146 1    
   137   69   70 am   BACKBONE|DICT|INTERRES
   138   69  147 1    
   139   70   71 2    
   140   70   72 1    
   141   72   73 1    
   142   72   74 1    
   143   72  148 1    
   144   73  149 1    
   145   73  150 1    
   146   73  151 1    
   147   74   75 am   BACKBONE|DICT|INTERRES
   148   74  152 1    
   149   75   76 2    
   150   75   77 1    
   151   77   78 1    
   152   77   79 1    
   153   77  153 1    
   154   78  154 1    
   155   78  155 1    
   156   78  156 1    
   157   79   80 am   BACKBONE|DICT|INTERRES
   158   79  157 1    
   159   80   81 2    
@<TRIPOS>SUBSTRUCTURE
     1 UNK         1 GROUP             0       ****    0 ROOT    
