@<TRIPOS>MOLECULE
3R207
157   159    1
SMALL
USER_CHARGES


@<TRIPOS>ATOM
      1 CA        -47.6976  -32.3619    4.3434 C.3       0 UNK        -0.1975 
      2 C         -47.7678  -30.9543    3.7700 C.2       0 UNK         0.4852 
      3 O         -46.8590  -30.5397    3.0500 O.2       0 UNK        -0.5216 
      4 N         -48.8382  -30.2138    4.0889 N.am      1 UNK        -0.4461 
      5 CA        -49.0718  -28.8354    3.6365 C.3       1 UNK         0.0864 
      6 C6        -50.5824  -28.4736    3.6660 C.3       14 UNK        -0.0898 
      7 S7        -51.3099  -28.3553    5.3399 S.3       14 UNK        -0.2598 
      8 C8        -52.1378  -29.9699    5.4988 C.3       14 UNK         0.0286 
      9 C9        -52.6260  -30.2265    6.9192 C.ar      14 UNK        -0.0844 
     10 C10       -51.7472  -30.1165    8.0013 C.ar      14 UNK        -0.0881 
     11 C11       -52.1776  -30.3682    9.3100 C.ar      14 UNK        -0.0643 
     12 C12       -53.5003  -30.7746    9.5207 C.ar      14 UNK        -0.0930 
     13 C13       -54.3850  -30.9120    8.4448 C.ar      14 UNK        -0.0827 
     14 C14       -53.9455  -30.6224    7.1499 C.ar      14 UNK        -0.1249 
     15 C15       -55.8035  -31.4196    8.6619 C.3       14 UNK         0.0141 
     16 S16       -56.9851  -30.0603    8.9198 S.3       14 UNK        -0.2313 
     17 C17       -56.7596  -29.7030   10.6935 C.3       14 UNK        -0.0915 
     18 CA        -55.9047  -28.4361   10.9522 C.3       13 UNK         0.0968 
     19 C         -56.7098  -27.1327   10.6848 C.2       13 UNK         0.5732 
     20 N         -56.5164  -26.5012    9.5349 N.am      13 UNK        -0.7310 
     21 O         -57.5326  -26.7149   11.4977 O.2       13 UNK        -0.5035 
     22 N         -55.3381  -28.4822   12.3065 N.am      13 UNK        -0.4233 
     23 C         -54.4443  -27.6152   12.7926 C.2       13 UNK         0.4989 
     24 O         -53.9267  -26.7125   12.1306 O.2       13 UNK        -0.4996 
     25 CA        -54.0319  -27.8256   14.2586 C.3       12 UNK         0.0216 
     26 CB        -52.8518  -28.8077   14.3587 C.3       12 UNK        -0.1964 
     27 N         -53.6616  -26.5517   14.8749 N.am      12 UNK        -0.4276 
     28 C         -54.5496  -25.6308   15.2712 C.2       12 UNK         0.5020 
     29 O         -55.7690  -25.8185   15.2701 O.2       12 UNK        -0.5489 
     30 CA        -53.9797  -24.2788   15.7432 C.3       11 UNK         0.0294 
     31 CB        -55.0693  -23.2994   16.2314 C.3       11 UNK        -0.2019 
     32 N         -52.9180  -24.4120   16.7481 N.am      11 UNK        -0.4493 
     33 C         -53.0214  -24.9947   17.9532 C.2       11 UNK         0.4932 
     34 O         -54.0481  -25.5330   18.3722 O.2       11 UNK        -0.5029 
     35 CA        -51.7714  -24.9369   18.8545 C.3       10 UNK         0.0280 
     36 CB        -51.8984  -25.8160   20.1176 C.3       10 UNK        -0.1976 
     37 N         -50.5211  -25.2356   18.1496 N.am      10 UNK        -0.4242 
     38 C         -50.1954  -26.3516   17.4823 C.2       10 UNK         0.5072 
     39 O         -50.9557  -27.3105   17.3367 O.2       10 UNK        -0.5224 
     40 CA        -48.7644  -26.4043   16.9024 C.3       9 UNK         0.0343 
     41 CB        -48.5031  -27.6925   16.0995 C.3       9 UNK        -0.2003 
     42 N         -48.4459  -25.2471   16.0598 N.am      9 UNK        -0.4272 
     43 C         -48.1938  -24.0020   16.4871 C.2       9 UNK         0.4988 
     44 O         -48.1564  -23.6875   17.6778 O.2       9 UNK        -0.5108 
     45 CA        -48.0040  -22.9126   15.4169 C.3       8 UNK         0.0248 
     46 CB        -46.5406  -22.8576   14.9515 C.3       8 UNK        -0.2001 
     47 N         -48.8909  -23.0714   14.2596 N.am      8 UNK        -0.4140 
     48 C         -50.2318  -23.0352   14.3166 C.2       8 UNK         0.5028 
     49 O         -50.8729  -22.8334   15.3498 O.2       8 UNK        -0.5428 
     50 CA        -50.9889  -23.3187   13.0076 C.3       7 UNK         0.0264 
     51 CB        -50.9432  -22.1033   12.0685 C.3       7 UNK        -0.1988 
     52 N         -50.4971  -24.5143   12.3190 N.am      7 UNK        -0.4454 
     53 C         -50.5158  -25.7508   12.8407 C.2       7 UNK         0.5027 
     54 O         -51.0181  -26.0141   13.9340 O.2       7 UNK        -0.5083 
     55 CA        -49.7893  -26.8668   12.0586 C.3       6 UNK         0.0844 
     56 C56       -50.6876  -27.5133   10.9772 C.3       14 UNK        -0.0967 
     57 S57       -49.9031  -29.0222   10.3141 S.3       14 UNK        -0.2604 
     58 C58       -51.2146  -30.2834   10.4949 C.3       14 UNK         0.0134 
     59 N         -48.5105  -26.4010   11.5115 N.am      6 UNK        -0.4116 
     60 C         -47.4681  -25.9995   12.2516 C.2       5 UNK         0.5034 
     61 O         -47.4456  -26.0288   13.4802 O.2       5 UNK        -0.5045 
     62 CA        -46.2681  -25.4120   11.4976 C.3       5 UNK         0.0224 
     63 CB        -45.3538  -26.5241   10.9595 C.3       5 UNK        -0.1978 
     64 N         -46.6993  -24.5344   10.4077 N.am      5 UNK        -0.4737 
     65 C         -47.2481  -23.3259   10.5974 C.2       4 UNK         0.5027 
     66 O         -47.4018  -22.8147   11.7065 O.2       4 UNK        -0.5211 
     67 CA        -47.7395  -22.5764    9.3469 C.3       4 UNK         0.0297 
     68 CB        -46.5885  -21.7852    8.7065 C.3       4 UNK        -0.1993 
     69 N         -48.3433  -23.4623    8.3481 N.am      4 UNK        -0.4486 
     70 C         -49.4775  -24.1522    8.5349 C.2       3 UNK         0.4961 
     71 O         -50.1568  -24.0888    9.5572 O.2       3 UNK        -0.5105 
     72 CA        -49.9026  -25.1148    7.4152 C.3       3 UNK         0.0299 
     73 CB        -50.7473  -24.3839    6.3606 C.3       3 UNK        -0.1972 
     74 N         -48.7854  -25.7991    6.7591 N.am      3 UNK        -0.4305 
     75 C         -47.8755  -26.5703    7.3696 C.2       2 UNK         0.5006 
     76 O         -47.8145  -26.7134    8.5919 O.2       2 UNK        -0.5106 
     77 CA        -46.8872  -27.3130    6.4500 C.3       2 UNK         0.0296 
     78 CB        -45.8643  -28.1542    7.2362 C.3       2 UNK        -0.2002 
     79 N         -47.6059  -28.1857    5.5197 N.am      2 UNK        -0.4032 
     80 C         -48.2155  -27.7916    4.3913 C.2       1 UNK         0.5000 
     81 O         -48.1616  -26.6342    3.9686 O.2       1 UNK        -0.5238 
     82 H82       -46.8031  -32.4736    4.9556 H         1 UNK         0.0889 
     83 H83       -47.6516  -33.0930    3.5365 H         1 UNK         0.0889 
     84 H84       -48.5637  -32.5951    4.9625 H         1 UNK         0.0889 
     85 H85       -49.5517  -30.6038    4.6865 H         1 UNK         0.3028 
     86 H86       -48.7548  -28.7782    2.5926 H         1 UNK         0.0864 
     87 H87       -51.1495  -29.1942    3.0745 H         1 UNK         0.0720 
     88 H88       -50.7397  -27.5128    3.1721 H         1 UNK         0.0720 
     89 H89       -51.4527  -30.7698    5.2187 H         1 UNK         0.0814 
     90 H90       -52.9670  -30.0080    4.7904 H         1 UNK         0.0814 
     91 H91       -50.7204  -29.8348    7.8154 H         1 UNK         0.1469 
     92 H92       -53.8375  -31.0041   10.5221 H         1 UNK         0.1381 
     93 H93       -54.6285  -30.7300    6.3180 H         1 UNK         0.1206 
     94 H94       -56.1230  -31.9898    7.7882 H         1 UNK         0.0813 
     95 H95       -55.8394  -32.1196    9.4978 H         1 UNK         0.0813 
     96 H96       -56.2970  -30.5733   11.1608 H         1 UNK         0.0638 
     97 H97       -57.7429  -29.6135   11.1595 H         1 UNK         0.0638 
     98 H98       -55.0523  -28.4527   10.2700 H         1 UNK         0.0568 
     99 H99       -55.8613  -26.8532    8.8549 H         1 UNK         0.3450 
    100 H100      -57.0408  -25.6630    9.3411 H         1 UNK         0.3450 
    101 H101      -55.7283  -29.1774   12.9247 H         1 UNK         0.2987 
    102 H102      -54.8763  -28.2451   14.8099 H         1 UNK         0.0766 
    103 H103      -52.5287  -28.9335   15.3926 H         1 UNK         0.0798 
    104 H104      -51.9905  -28.4720   13.7819 H         1 UNK         0.0798 
    105 H105      -53.1293  -29.7930   13.9825 H         1 UNK         0.0798 
    106 H106      -52.6761  -26.3015   14.8205 H         1 UNK         0.3198 
    107 H107      -53.5181  -23.8269   14.8678 H         1 UNK         0.0843 
    108 H108      -54.6409  -22.3366   16.5100 H         1 UNK         0.0831 
    109 H109      -55.6096  -23.6896   17.0945 H         1 UNK         0.0831 
    110 H110      -55.8038  -23.1114   15.4473 H         1 UNK         0.0831 
    111 H111      -52.0290  -23.9940   16.4829 H         1 UNK         0.3133 
    112 H112      -51.6889  -23.9007   19.1852 H         1 UNK         0.0566 
    113 H113      -51.0178  -25.7273   20.7537 H         1 UNK         0.0814 
    114 H114      -52.7598  -25.5191   20.7172 H         1 UNK         0.0814 
    115 H115      -52.0253  -26.8693   19.8649 H         1 UNK         0.0814 
    116 H116      -49.8090  -24.5098   18.1805 H         1 UNK         0.3091 
    117 H117      -48.0794  -26.4031   17.7525 H         1 UNK         0.0702 
    118 H118      -47.4761  -27.7332   15.7362 H         1 UNK         0.0785 
    119 H119      -49.1668  -27.7665   15.2374 H         1 UNK         0.0785 
    120 H120      -48.6642  -28.5789   16.7141 H         1 UNK         0.0785 
    121 H121      -48.4045  -25.4257   15.0604 H         1 UNK         0.2998 
    122 H122      -48.2466  -21.9544   15.8807 H         1 UNK         0.0697 
    123 H123      -46.3775  -22.0383   14.2510 H         1 UNK         0.0825 
    124 H124      -45.8678  -22.7013   15.7957 H         1 UNK         0.0825 
    125 H125      -46.2378  -23.7823   14.4601 H         1 UNK         0.0825 
    126 H126      -48.4425  -23.1985   13.3564 H         1 UNK         0.3029 
    127 H127      -52.0338  -23.5021   13.2553 H         1 UNK         0.0897 
    128 H128      -51.5480  -22.2695   11.1768 H         1 UNK         0.0792 
    129 H129      -51.3343  -21.2136   12.5637 H         1 UNK         0.0792 
    130 H130      -49.9278  -21.8764   11.7450 H         1 UNK         0.0792 
    131 H131      -50.1420  -24.3818   11.3736 H         1 UNK         0.3086 
    132 H132      -49.5533  -27.6426   12.7902 H         1 UNK         0.0583 
    133 H133      -51.6638  -27.7694   11.3885 H         1 UNK         0.1020 
    134 H134      -50.8764  -26.8180   10.1578 H         1 UNK         0.1020 
    135 H135      -50.7329  -31.2561   10.6014 H         1 UNK         0.0694 
    136 H136      -51.7589  -30.1108   11.4247 H         1 UNK         0.0694 
    137 H137      -48.4188  -26.3957   10.5002 H         1 UNK         0.2989 
    138 H138      -45.6902  -24.8144   12.2063 H         1 UNK         0.1055 
    139 H139      -44.9552  -27.1244   11.7785 H         1 UNK         0.0806 
    140 H140      -44.5032  -26.1131   10.4157 H         1 UNK         0.0806 
    141 H141      -45.8843  -27.2038   10.2928 H         1 UNK         0.0806 
    142 H142      -46.6881  -24.9259    9.4755 H         1 UNK         0.3061 
    143 H143      -48.5036  -21.8652    9.6676 H         1 UNK         0.0734 
    144 H144      -46.9387  -21.1815    7.8690 H         1 UNK         0.0832 
    145 H145      -46.1374  -21.1029    9.4285 H         1 UNK         0.0832 
    146 H146      -45.7976  -22.4418    8.3416 H         1 UNK         0.0832 
    147 H147      -47.8497  -23.5802    7.4753 H         1 UNK         0.3156 
    148 H148      -50.5259  -25.8880    7.8690 H         1 UNK         0.0589 
    149 H149      -50.1690  -23.6239    5.8336 H         1 UNK         0.0808 
    150 H150      -51.1432  -25.0791    5.6197 H         1 UNK         0.0808 
    151 H151      -51.6005  -23.8847    6.8221 H         1 UNK         0.0808 
    152 H152      -48.7564  -25.7647    5.7454 H         1 UNK         0.3098 
    153 H153      -46.3359  -26.5605    5.8824 H         1 UNK         0.0720 
    154 H154      -46.3507  -28.9073    7.8579 H         1 UNK         0.0791 
    155 H155      -45.2661  -27.5232    7.8946 H         1 UNK         0.0791 
    156 H156      -45.1730  -28.6663    6.5666 H         1 UNK         0.0791 
    157 H157      -47.7349  -29.1431    5.8112 H         1 UNK         0.3028 
@<TRIPOS>BOND
     1    1    2 1    
     2    1   82 1    
     3    1   83 1    
     4    1   84 1    
     5    2    3 2    
     6    2    4 am   BACKBONE|DICT|INTERRES
     7    4    5 1    
     8    4   85 1    
     9    5    6 1    
    10    5   80 1    
    11    5   86 1    
    12    6    7 1    
    13    6   87 1    
    14    6   88 1    
    15    7    8 1    
    16    8    9 1    
    17    8   89 1    
    18    8   90 1    
    19    9   10 ar   
    20    9   14 ar   
    21   10   11 ar   
    22   10   91 1    
    23   11   12 ar   
    24   11   58 1    
    25   12   13 ar   
    26   12   92 1    
    27   13   14 ar   
    28   13   15 1    
    29   14   93 1    
    30   15   16 1    
    31   15   94 1    
    32   15   95 1    
    33   16   17 1    
    34   17   18 1    
    35   17   96 1    
    36   17   97 1    
    37   18   19 1    
    38   18   22 1    
    39   18   98 1    
    40   19   20 am   BACKBONE|DICT|INTERRES
    41   19   21 2    
    42   20   99 1    
    43   20  100 1    
    44   22   23 am   BACKBONE|DICT|INTERRES
    45   22  101 1    
    46   23   24 2    
    47   23   25 1    
    48   25   26 1    
    49   25   27 1    
    50   25  102 1    
    51   26  103 1    
    52   26  104 1    
    53   26  105 1    
    54   27   28 am   BACKBONE|DICT|INTERRES
    55   27  106 1    
    56   28   29 2    
    57   28   30 1    
    58   30   31 1    
    59   30   32 1    
    60   30  107 1    
    61   31  108 1    
    62   31  109 1    
    63   31  110 1    
    64   32   33 am   BACKBONE|DICT|INTERRES
    65   32  111 1    
    66   33   34 2    
    67   33   35 1    
    68   35   36 1    
    69   35   37 1    
    70   35  112 1    
    71   36  113 1    
    72   36  114 1    
    73   36  115 1    
    74   37   38 am   BACKBONE|DICT|INTERRES
    75   37  116 1    
    76   38   39 2    
    77   38   40 1    
    78   40   41 1    
    79   40   42 1    
    80   40  117 1    
    81   41  118 1    
    82   41  119 1    
    83   41  120 1    
    84   42   43 am   BACKBONE|DICT|INTERRES
    85   42  121 1    
    86   43   44 2    
    87   43   45 1    
    88   45   46 1    
    89   45   47 1    
    90   45  122 1    
    91   46  123 1    
    92   46  124 1    
    93   46  125 1    
    94   47   48 am   BACKBONE|DICT|INTERRES
    95   47  126 1    
    96   48   49 2    
    97   48   50 1    
    98   50   51 1    
    99   50   52 1    
   100   50  127 1    
   101   51  128 1    
   102   51  129 1    
   103   51  130 1    
   104   52   53 am   BACKBONE|DICT|INTERRES
   105   52  131 1    
   106   53   54 2    
   107   53   55 1    
   108   55   56 1    
   109   55   59 1    
   110   55  132 1    
   111   56   57 1    
   112   56  133 1    
   113   56  134 1    
   114   57   58 1    
   115   58  135 1    
   116   58  136 1    
   117   59   60 am   BACKBONE|DICT|INTERRES
   118   59  137 1    
   119   60   61 2    
   120   60   62 1    
   121   62   63 1    
   122   62   64 1    
   123   62  138 1    
   124   63  139 1    
   125   63  140 1    
   126   63  141 1    
   127   64   65 am   BACKBONE|DICT|INTERRES
   128   64  142 1    
   129   65   66 2    
   130   65   67 1    
   131   67   68 1    
   132   67   69 1    
   133   67  143 1    
   134   68  144 1    
   135   68  145 1    
   136   68  146 1    
   137   69   70 am   BACKBONE|DICT|INTERRES
   138   69  147 1    
   139   70   71 2    
   140   70   72 1    
   141   72   73 1    
   142   72   74 1    
   143   72  148 1    
   144   73  149 1    
   145   73  150 1    
   146   73  151 1    
   147   74   75 am   BACKBONE|DICT|INTERRES
   148   74  152 1    
   149   75   76 2    
   150   75   77 1    
   151   77   78 1    
   152   77   79 1    
   153   77  153 1    
   154   78  154 1    
   155   78  155 1    
   156   78  156 1    
   157   79   80 am   BACKBONE|DICT|INTERRES
   158   79  157 1    
   159   80   81 2    
@<TRIPOS>SUBSTRUCTURE
     1 UNK         1 GROUP             0       ****    0 ROOT    
