@<TRIPOS>MOLECULE
3R207
157   159    1
SMALL
USER_CHARGES


@<TRIPOS>ATOM
      1 CA        -45.4801  -27.6888    5.9194 C.3       0 UNK        -0.1975 
      2 C         -46.2970  -27.6874    7.2021 C.2       0 UNK         0.4852 
      3 O         -46.5641  -26.6187    7.7530 O.2       0 UNK        -0.5216 
      4 N         -46.6932  -28.8735    7.6809 N.am      1 UNK        -0.4461 
      5 CA        -47.5082  -29.0988    8.8816 C.3       1 UNK         0.0864 
      6 C6        -48.0461  -30.5543    8.9407 C.3       14 UNK        -0.0898 
      7 S7        -48.8992  -31.0704    7.4108 S.3       14 UNK        -0.2598 
      8 C8        -50.3997  -31.8711    8.0555 C.3       14 UNK         0.0286 
      9 C9        -51.5087  -30.8673    8.3301 C.ar      14 UNK        -0.0844 
     10 C10       -52.2137  -30.3030    7.2616 C.ar      14 UNK        -0.0881 
     11 C11       -53.2685  -29.4166    7.4945 C.ar      14 UNK        -0.0643 
     12 C12       -53.6246  -29.1083    8.8098 C.ar      14 UNK        -0.0930 
     13 C13       -52.9137  -29.6471    9.8849 C.ar      14 UNK        -0.0827 
     14 C14       -51.8545  -30.5269    9.6419 C.ar      14 UNK        -0.1249 
     15 C15       -53.3001  -29.2620   11.3020 C.3       14 UNK         0.0141 
     16 S16       -52.6749  -27.6012   11.6896 S.3       14 UNK        -0.2313 
     17 C17       -53.6307  -27.1921   13.1777 C.3       14 UNK        -0.0915 
     18 CA        -54.8016  -26.2010   12.9549 C.3       13 UNK         0.0968 
     19 C         -55.9015  -26.7905   12.0265 C.2       13 UNK         0.5732 
     20 N         -55.8969  -26.4294   10.7493 N.am      13 UNK        -0.7310 
     21 O         -56.7275  -27.5980   12.4473 O.2       13 UNK        -0.5035 
     22 N         -55.3077  -25.7514   14.2607 N.am      13 UNK        -0.4233 
     23 C         -56.3114  -24.8880   14.4690 C.2       13 UNK         0.4989 
     24 O         -56.8948  -24.2935   13.5613 O.2       13 UNK        -0.4996 
     25 CA        -56.7143  -24.5837   15.9297 C.3       12 UNK         0.0216 
     26 CB        -58.2460  -24.6161   16.1225 C.3       12 UNK        -0.1964 
     27 N         -56.0339  -25.3933   16.9541 N.am      12 UNK        -0.4276 
     28 C         -56.1502  -26.7099   17.1805 C.2       12 UNK         0.5020 
     29 O         -56.8782  -27.4689   16.5384 O.2       12 UNK        -0.5489 
     30 CA        -55.2652  -27.2848   18.3021 C.3       11 UNK         0.0294 
     31 CB        -56.1242  -27.9072   19.4157 C.3       11 UNK        -0.2019 
     32 N         -54.3252  -28.2876   17.7920 N.am      11 UNK        -0.4493 
     33 C         -53.3878  -28.0504   16.8656 C.2       11 UNK         0.4932 
     34 O         -53.1900  -26.9381   16.3665 O.2       11 UNK        -0.5029 
     35 CA        -52.5369  -29.2485   16.4183 C.3       10 UNK         0.0280 
     36 CB        -53.3940  -30.3613   15.7794 C.3       10 UNK        -0.1976 
     37 N         -51.5357  -28.7667   15.4710 N.am      10 UNK        -0.4242 
     38 C         -50.4030  -29.3811   15.1150 C.2       10 UNK         0.5072 
     39 O         -50.0716  -30.4937   15.5274 O.2       10 UNK        -0.5224 
     40 CA        -49.4723  -28.6391   14.1349 C.3       9 UNK         0.0343 
     41 CB        -49.5093  -29.2944   12.7452 C.3       9 UNK        -0.2003 
     42 N         -49.7543  -27.2029   14.0030 N.am      9 UNK        -0.4272 
     43 C         -49.4347  -26.2873   14.9285 C.2       9 UNK         0.4988 
     44 O         -48.9327  -26.5803   16.0142 O.2       9 UNK        -0.5108 
     45 CA        -49.7123  -24.7994   14.6331 C.3       8 UNK         0.0248 
     46 CB        -48.3971  -24.0051   14.4868 C.3       8 UNK        -0.2001 
     47 N         -50.6304  -24.5085   13.5215 N.am      8 UNK        -0.4140 
     48 C         -50.4439  -24.6767   12.2048 C.2       8 UNK         0.5028 
     49 O         -49.4502  -25.2062   11.6983 O.2       8 UNK        -0.5428 
     50 CA        -51.5757  -24.1495   11.3142 C.3       7 UNK         0.0264 
     51 CB        -51.5249  -22.6191   11.1595 C.3       7 UNK        -0.1988 
     52 N         -51.5112  -24.7827   10.0035 N.am      7 UNK        -0.4454 
     53 C         -52.5569  -25.0634    9.2179 C.2       7 UNK         0.5027 
     54 O         -53.7193  -24.7709    9.5139 O.2       7 UNK        -0.5083 
     55 CA        -52.2547  -25.7952    7.8863 C.3       6 UNK         0.0844 
     56 C56       -53.5460  -26.1199    7.0889 C.3       14 UNK        -0.0967 
     57 S57       -53.2336  -27.2814    5.7153 S.3       14 UNK        -0.2604 
     58 C58       -54.0286  -28.8039    6.3265 C.3       14 UNK         0.0134 
     59 N         -51.3028  -25.0414    7.0594 N.am      6 UNK        -0.4116 
     60 C         -49.9893  -24.9217    7.2829 C.2       5 UNK         0.5034 
     61 O         -49.4009  -25.4780    8.2160 O.2       5 UNK        -0.5045 
     62 CA        -49.2192  -23.9793    6.3448 C.3       5 UNK         0.0224 
     63 CB        -49.6562  -22.5172    6.5866 C.3       5 UNK        -0.1978 
     64 N         -47.7997  -24.1439    6.6353 N.am      5 UNK        -0.4737 
     65 C         -46.7458  -23.5454    6.0698 C.2       4 UNK         0.5027 
     66 O         -46.8127  -22.8100    5.0837 O.2       4 UNK        -0.5211 
     67 CA        -45.3934  -23.8130    6.7622 C.3       4 UNK         0.0297 
     68 CB        -44.2695  -22.8470    6.3286 C.3       4 UNK        -0.1993 
     69 N         -45.5628  -23.8661    8.2243 N.am      4 UNK        -0.4486 
     70 C         -45.8892  -22.8474    9.0361 C.2       3 UNK         0.4961 
     71 O         -45.8553  -21.6650    8.6929 O.2       3 UNK        -0.5105 
     72 CA        -46.3954  -23.1779   10.4568 C.3       3 UNK         0.0299 
     73 CB        -47.7813  -22.5508   10.6780 C.3       3 UNK        -0.1972 
     74 N         -46.4862  -24.6084   10.7735 N.am      3 UNK        -0.4305 
     75 C         -45.4422  -25.3820   11.1047 C.2       2 UNK         0.5006 
     76 O         -44.2761  -24.9883   11.1200 O.2       2 UNK        -0.5106 
     77 CA        -45.7447  -26.8436   11.4505 C.3       2 UNK         0.0296 
     78 CB        -46.3644  -26.9759   12.8505 C.3       2 UNK        -0.2002 
     79 N         -46.6109  -27.4308   10.4317 N.am      2 UNK        -0.4032 
     80 C         -46.7086  -28.7338   10.1536 C.2       1 UNK         0.5000 
     81 O         -46.1620  -29.6177   10.8179 O.2       1 UNK        -0.5238 
     82 H82       -44.4785  -27.3062    6.1130 H         1 UNK         0.0889 
     83 H83       -45.9535  -27.0493    5.1750 H         1 UNK         0.0889 
     84 H84       -45.3871  -28.6890    5.4967 H         1 UNK         0.0889 
     85 H85       -46.4385  -29.7137    7.1818 H         1 UNK         0.3028 
     86 H86       -48.3714  -28.4300    8.8292 H         1 UNK         0.0864 
     87 H87       -47.2337  -31.2641    9.1083 H         1 UNK         0.0720 
     88 H88       -48.7244  -30.6614    9.7891 H         1 UNK         0.0720 
     89 H89       -50.7517  -32.5935    7.3177 H         1 UNK         0.0814 
     90 H90       -50.1597  -32.4493    8.9493 H         1 UNK         0.0814 
     91 H91       -51.9399  -30.5557    6.2462 H         1 UNK         0.1469 
     92 H92       -54.4465  -28.4340    9.0050 H         1 UNK         0.1381 
     93 H93       -51.3076  -30.9530   10.4717 H         1 UNK         0.1206 
     94 H94       -52.9085  -29.9787   12.0254 H         1 UNK         0.0813 
     95 H95       -54.3862  -29.2848   11.3993 H         1 UNK         0.0813 
     96 H96       -53.9841  -28.1055   13.6552 H         1 UNK         0.0638 
     97 H97       -52.9119  -26.7425   13.8609 H         1 UNK         0.0638 
     98 H98       -54.4118  -25.3081   12.4682 H         1 UNK         0.0568 
     99 H99       -56.6031  -26.7997   10.1346 H         1 UNK         0.3450 
    100 H100      -55.1985  -25.7867   10.3898 H         1 UNK         0.3450 
    101 H101      -54.8812  -26.1844   15.0689 H         1 UNK         0.2987 
    102 H102      -56.3900  -23.5575   16.1091 H         1 UNK         0.0766 
    103 H103      -58.7390  -23.8924   15.4722 H         1 UNK         0.0798 
    104 H104      -58.5233  -24.3680   17.1470 H         1 UNK         0.0798 
    105 H105      -58.6642  -25.5956   15.8887 H         1 UNK         0.0798 
    106 H106      -55.3719  -24.8823   17.5235 H         1 UNK         0.3198 
    107 H107      -54.6774  -26.4762   18.7424 H         1 UNK         0.0843 
    108 H108      -56.7121  -28.7501   19.0495 H         1 UNK         0.0831 
    109 H109      -56.8241  -27.1757   19.8220 H         1 UNK         0.0831 
    110 H110      -55.5093  -28.2599   20.2439 H         1 UNK         0.0831 
    111 H111      -54.4419  -29.2302   18.1349 H         1 UNK         0.3133 
    112 H112      -52.0245  -29.6419   17.2985 H         1 UNK         0.0566 
    113 H113      -53.9569  -30.0013   14.9190 H         1 UNK         0.0814 
    114 H114      -54.1142  -30.7663   16.4907 H         1 UNK         0.0814 
    115 H115      -52.7787  -31.1967   15.4452 H         1 UNK         0.0814 
    116 H116      -51.7024  -27.8223   15.1477 H         1 UNK         0.3091 
    117 H117      -48.4559  -28.7426   14.5206 H         1 UNK         0.0702 
    118 H118      -48.9182  -28.7319   12.0245 H         1 UNK         0.0785 
    119 H119      -50.5233  -29.3695   12.3585 H         1 UNK         0.0785 
    120 H120      -49.1031  -30.3059   12.7821 H         1 UNK         0.0785 
    121 H121      -50.1114  -26.8801   13.1129 H         1 UNK         0.2998 
    122 H122      -50.2170  -24.4201   15.5231 H         1 UNK         0.0697 
    123 H123      -47.8231  -24.3164   13.6147 H         1 UNK         0.0825 
    124 H124      -47.7567  -24.1437   15.3588 H         1 UNK         0.0825 
    125 H125      -48.5887  -22.9361   14.3951 H         1 UNK         0.0825 
    126 H126      -51.5001  -24.0824   13.8104 H         1 UNK         0.3029 
    127 H127      -52.5155  -24.4202   11.7925 H         1 UNK         0.0897 
    128 H128      -50.6456  -22.2947   10.6054 H         1 UNK         0.0792 
    129 H129      -51.5047  -22.1198   12.1289 H         1 UNK         0.0792 
    130 H130      -52.4022  -22.2510   10.6271 H         1 UNK         0.0792 
    131 H131      -50.5854  -25.1001    9.7205 H         1 UNK         0.3086 
    132 H132      -51.7879  -26.7433    8.1643 H         1 UNK         0.0583 
    133 H133      -54.3165  -26.5394    7.7360 H         1 UNK         0.1020 
    134 H134      -53.9820  -25.2064    6.6804 H         1 UNK         0.1020 
    135 H135      -55.0611  -28.5919    6.6091 H         1 UNK         0.0694 
    136 H136      -54.0824  -29.5227    5.5075 H         1 UNK         0.0694 
    137 H137      -51.7064  -24.5416    6.2813 H         1 UNK         0.2989 
    138 H138      -49.4071  -24.2703    5.3095 H         1 UNK         0.1055 
    139 H139      -49.4479  -22.2016    7.6100 H         1 UNK         0.0806 
    140 H140      -50.7250  -22.3847    6.4157 H         1 UNK         0.0806 
    141 H141      -49.1456  -21.8262    5.9164 H         1 UNK         0.0806 
    142 H142      -47.6279  -24.8101    7.3856 H         1 UNK         0.3061 
    143 H143      -45.0859  -24.8120    6.4545 H         1 UNK         0.0734 
    144 H144      -44.5432  -21.8027    6.4793 H         1 UNK         0.0832 
    145 H145      -43.3475  -23.0373    6.8776 H         1 UNK         0.0832 
    146 H146      -44.0471  -22.9675    5.2678 H         1 UNK         0.0832 
    147 H147      -45.6530  -24.8033    8.5963 H         1 UNK         0.3156 
    148 H148      -45.7003  -22.7126   11.1586 H         1 UNK         0.0589 
    149 H149      -47.7700  -21.4755   10.4956 H         1 UNK         0.0808 
    150 H150      -48.5187  -22.9904   10.0054 H         1 UNK         0.0808 
    151 H151      -48.1257  -22.6954   11.7014 H         1 UNK         0.0808 
    152 H152      -47.4252  -24.9885   10.8480 H         1 UNK         0.3098 
    153 H153      -44.7925  -27.3788   11.4431 H         1 UNK         0.0720 
    154 H154      -47.3572  -26.5329   12.8782 H         1 UNK         0.0791 
    155 H155      -45.7557  -26.4733   13.6032 H         1 UNK         0.0791 
    156 H156      -46.4548  -28.0201   13.1487 H         1 UNK         0.0791 
    157 H157      -46.9862  -26.7933    9.7359 H         1 UNK         0.3028 
@<TRIPOS>BOND
     1    1    2 1    
     2    1   82 1    
     3    1   83 1    
     4    1   84 1    
     5    2    3 2    
     6    2    4 am   BACKBONE|DICT|INTERRES
     7    4    5 1    
     8    4   85 1    
     9    5    6 1    
    10    5   80 1    
    11    5   86 1    
    12    6    7 1    
    13    6   87 1    
    14    6   88 1    
    15    7    8 1    
    16    8    9 1    
    17    8   89 1    
    18    8   90 1    
    19    9   10 ar   
    20    9   14 ar   
    21   10   11 ar   
    22   10   91 1    
    23   11   12 ar   
    24   11   58 1    
    25   12   13 ar   
    26   12   92 1    
    27   13   14 ar   
    28   13   15 1    
    29   14   93 1    
    30   15   16 1    
    31   15   94 1    
    32   15   95 1    
    33   16   17 1    
    34   17   18 1    
    35   17   96 1    
    36   17   97 1    
    37   18   19 1    
    38   18   22 1    
    39   18   98 1    
    40   19   20 am   BACKBONE|DICT|INTERRES
    41   19   21 2    
    42   20   99 1    
    43   20  100 1    
    44   22   23 am   BACKBONE|DICT|INTERRES
    45   22  101 1    
    46   23   24 2    
    47   23   25 1    
    48   25   26 1    
    49   25   27 1    
    50   25  102 1    
    51   26  103 1    
    52   26  104 1    
    53   26  105 1    
    54   27   28 am   BACKBONE|DICT|INTERRES
    55   27  106 1    
    56   28   29 2    
    57   28   30 1    
    58   30   31 1    
    59   30   32 1    
    60   30  107 1    
    61   31  108 1    
    62   31  109 1    
    63   31  110 1    
    64   32   33 am   BACKBONE|DICT|INTERRES
    65   32  111 1    
    66   33   34 2    
    67   33   35 1    
    68   35   36 1    
    69   35   37 1    
    70   35  112 1    
    71   36  113 1    
    72   36  114 1    
    73   36  115 1    
    74   37   38 am   BACKBONE|DICT|INTERRES
    75   37  116 1    
    76   38   39 2    
    77   38   40 1    
    78   40   41 1    
    79   40   42 1    
    80   40  117 1    
    81   41  118 1    
    82   41  119 1    
    83   41  120 1    
    84   42   43 am   BACKBONE|DICT|INTERRES
    85   42  121 1    
    86   43   44 2    
    87   43   45 1    
    88   45   46 1    
    89   45   47 1    
    90   45  122 1    
    91   46  123 1    
    92   46  124 1    
    93   46  125 1    
    94   47   48 am   BACKBONE|DICT|INTERRES
    95   47  126 1    
    96   48   49 2    
    97   48   50 1    
    98   50   51 1    
    99   50   52 1    
   100   50  127 1    
   101   51  128 1    
   102   51  129 1    
   103   51  130 1    
   104   52   53 am   BACKBONE|DICT|INTERRES
   105   52  131 1    
   106   53   54 2    
   107   53   55 1    
   108   55   56 1    
   109   55   59 1    
   110   55  132 1    
   111   56   57 1    
   112   56  133 1    
   113   56  134 1    
   114   57   58 1    
   115   58  135 1    
   116   58  136 1    
   117   59   60 am   BACKBONE|DICT|INTERRES
   118   59  137 1    
   119   60   61 2    
   120   60   62 1    
   121   62   63 1    
   122   62   64 1    
   123   62  138 1    
   124   63  139 1    
   125   63  140 1    
   126   63  141 1    
   127   64   65 am   BACKBONE|DICT|INTERRES
   128   64  142 1    
   129   65   66 2    
   130   65   67 1    
   131   67   68 1    
   132   67   69 1    
   133   67  143 1    
   134   68  144 1    
   135   68  145 1    
   136   68  146 1    
   137   69   70 am   BACKBONE|DICT|INTERRES
   138   69  147 1    
   139   70   71 2    
   140   70   72 1    
   141   72   73 1    
   142   72   74 1    
   143   72  148 1    
   144   73  149 1    
   145   73  150 1    
   146   73  151 1    
   147   74   75 am   BACKBONE|DICT|INTERRES
   148   74  152 1    
   149   75   76 2    
   150   75   77 1    
   151   77   78 1    
   152   77   79 1    
   153   77  153 1    
   154   78  154 1    
   155   78  155 1    
   156   78  156 1    
   157   79   80 am   BACKBONE|DICT|INTERRES
   158   79  157 1    
   159   80   81 2    
@<TRIPOS>SUBSTRUCTURE
     1 UNK         1 GROUP             0       ****    0 ROOT    
