@<TRIPOS>MOLECULE
3R207
157   159    1
SMALL
USER_CHARGES


@<TRIPOS>ATOM
      1 CA        -45.4578  -28.8842    4.5309 C.3       0 UNK        -0.1975 
      2 C         -46.8909  -28.5548    4.1408 C.2       0 UNK         0.4852 
      3 O         -47.1362  -28.1527    3.0030 O.2       0 UNK        -0.5216 
      4 N         -47.8385  -28.7311    5.0724 N.am      1 UNK        -0.4461 
      5 CA        -49.2762  -28.5223    4.8570 C.3       1 UNK         0.0864 
      6 C6        -50.1263  -29.0760    6.0242 C.3       14 UNK        -0.0898 
      7 S7        -49.9159  -30.8613    6.3383 S.3       14 UNK        -0.2598 
      8 C8        -51.5394  -31.2927    7.0607 C.3       14 UNK         0.0286 
      9 C9        -51.7564  -30.6176    8.4097 C.ar      14 UNK        -0.0844 
     10 C10       -52.2508  -29.3117    8.4659 C.ar      14 UNK        -0.0881 
     11 C11       -52.3527  -28.6405    9.6836 C.ar      14 UNK        -0.0643 
     12 C12       -52.0218  -29.3090   10.8649 C.ar      14 UNK        -0.0930 
     13 C13       -51.5751  -30.6341   10.8333 C.ar      14 UNK        -0.0827 
     14 C14       -51.4373  -31.2807    9.5994 C.ar      14 UNK        -0.1249 
     15 C15       -51.1840  -31.3489   12.1219 C.3       14 UNK         0.0141 
     16 S16       -52.6274  -31.9399   13.0653 S.3       14 UNK        -0.2313 
     17 C17       -53.2019  -30.4166   13.8927 C.3       14 UNK        -0.0915 
     18 CA        -54.4978  -29.8581   13.2440 C.3       13 UNK         0.0968 
     19 C         -55.7705  -30.5177   13.8419 C.2       13 UNK         0.5732 
     20 N         -56.3067  -31.5432   13.1946 N.am      13 UNK        -0.7310 
     21 O         -56.2480  -30.1318   14.9072 O.2       13 UNK        -0.5035 
     22 N         -54.5418  -28.3925   13.3250 N.am      13 UNK        -0.4233 
     23 C         -55.3799  -27.6212   12.6188 C.2       13 UNK         0.4989 
     24 O         -56.1586  -28.0511   11.7660 O.2       13 UNK        -0.4996 
     25 CA        -55.3121  -26.1125   12.9132 C.3       12 UNK         0.0216 
     26 CB        -56.4162  -25.2911   12.2141 C.3       12 UNK        -0.1964 
     27 N         -55.2685  -25.8487   14.3529 N.am      12 UNK        -0.4276 
     28 C         -56.2202  -26.0760   15.2704 C.2       12 UNK         0.5020 
     29 O         -57.3553  -26.4800   15.0169 O.2       12 UNK        -0.5489 
     30 CA        -55.8259  -25.8106   16.7336 C.3       11 UNK         0.0294 
     31 CB        -55.3019  -27.1023   17.3831 C.3       11 UNK        -0.2019 
     32 N         -54.8072  -24.7622   16.8462 N.am      11 UNK        -0.4493 
     33 C         -55.0672  -23.4475   16.7903 C.2       11 UNK         0.4932 
     34 O         -56.2024  -22.9727   16.7491 O.2       11 UNK        -0.5029 
     35 CA        -53.8526  -22.5020   16.7560 C.3       10 UNK         0.0280 
     36 CB        -53.3593  -22.2021   18.1807 C.3       10 UNK        -0.1976 
     37 N         -52.7461  -23.0325   15.9542 N.am      10 UNK        -0.4242 
     38 C         -52.7718  -23.1828   14.6210 C.2       10 UNK         0.5072 
     39 O         -53.7035  -22.8136   13.9070 O.2       10 UNK        -0.5224 
     40 CA        -51.5726  -23.8976   13.9719 C.3       9 UNK         0.0343 
     41 CB        -50.5556  -22.8800   13.4309 C.3       9 UNK        -0.2003 
     42 N         -50.8876  -24.8355   14.8665 N.am      9 UNK        -0.4272 
     43 C         -51.4171  -25.9605   15.3653 C.2       9 UNK         0.4988 
     44 O         -52.5749  -26.3221   15.1427 O.2       9 UNK        -0.5108 
     45 CA        -50.4859  -26.8184   16.2423 C.3       8 UNK         0.0248 
     46 CB        -51.1839  -28.0758   16.7921 C.3       8 UNK        -0.2001 
     47 N         -49.3078  -27.2252   15.4781 N.am      8 UNK        -0.4140 
     48 C         -48.2275  -26.4726   15.2386 C.2       8 UNK         0.5028 
     49 O         -48.0508  -25.3591   15.7345 O.2       8 UNK        -0.5428 
     50 CA        -47.2226  -27.0151   14.2079 C.3       7 UNK         0.0264 
     51 CB        -46.7236  -28.4336   14.5539 C.3       7 UNK        -0.1988 
     52 N         -47.7425  -26.9375   12.8355 N.am      7 UNK        -0.4454 
     53 C         -48.8187  -27.5614   12.3224 C.2       7 UNK         0.5027 
     54 O         -49.4939  -28.3786   12.9486 O.2       7 UNK        -0.5083 
     55 CA        -49.2548  -27.2003   10.8856 C.3       6 UNK         0.0844 
     56 C56       -50.4411  -26.2041   10.9449 C.3       14 UNK        -0.0967 
     57 S57       -51.3473  -26.0871    9.3677 S.3       14 UNK        -0.2604 
     58 C58       -52.7698  -27.1785    9.7019 C.3       14 UNK         0.0134 
     59 N         -48.1470  -26.7023   10.0671 N.am      6 UNK        -0.4116 
     60 C         -47.0828  -27.4382    9.7082 C.2       5 UNK         0.5034 
     61 O         -47.0035  -28.6543    9.8820 O.2       5 UNK        -0.5045 
     62 CA        -45.8777  -26.7025    9.0928 C.3       5 UNK         0.0224 
     63 CB        -45.7359  -27.0415    7.6023 C.3       5 UNK        -0.1978 
     64 N         -45.9111  -25.2465    9.2762 N.am      5 UNK        -0.4737 
     65 C         -45.8013  -24.6342   10.4663 C.2       4 UNK         0.5027 
     66 O         -45.6545  -25.2419   11.5271 O.2       4 UNK        -0.5211 
     67 CA        -45.9203  -23.1006   10.5030 C.3       4 UNK         0.0297 
     68 CB        -44.5266  -22.4601   10.5984 C.3       4 UNK        -0.1993 
     69 N         -46.6413  -22.5185    9.3679 N.am      4 UNK        -0.4486 
     70 C         -47.9188  -22.7615    9.0439 C.2       3 UNK         0.4961 
     71 O         -48.6413  -23.5435    9.6641 O.2       3 UNK        -0.5105 
     72 CA        -48.4858  -22.0188    7.8156 C.3       3 UNK         0.0299 
     73 CB        -47.4900  -21.0388    7.1519 C.3       3 UNK        -0.1972 
     74 N         -49.0323  -22.9291    6.8027 N.am      3 UNK        -0.4305 
     75 C         -48.4101  -23.9680    6.2275 C.2       2 UNK         0.5006 
     76 O         -47.2740  -24.3526    6.5167 O.2       2 UNK        -0.5106 
     77 CA        -49.1720  -24.6641    5.0963 C.3       2 UNK         0.0296 
     78 CB        -48.7804  -24.0679    3.7311 C.3       2 UNK        -0.2002 
     79 N         -48.8798  -26.0942    5.1270 N.am      2 UNK        -0.4032 
     80 C         -49.6671  -27.0471    4.6105 C.2       1 UNK         0.5000 
     81 O         -50.6979  -26.8052    3.9786 O.2       1 UNK        -0.5238 
     82 H82       -44.8906  -27.9672    4.6886 H         1 UNK         0.0889 
     83 H83       -45.4121  -29.4805    5.4418 H         1 UNK         0.0889 
     84 H84       -44.9732  -29.4519    3.7370 H         1 UNK         0.0889 
     85 H85       -47.5872  -29.1038    5.9770 H         1 UNK         0.3028 
     86 H86       -49.5493  -29.0720    3.9534 H         1 UNK         0.0864 
     87 H87       -51.1803  -28.9053    5.8004 H         1 UNK         0.0720 
     88 H88       -49.9097  -28.5375    6.9497 H         1 UNK         0.0720 
     89 H89       -52.3360  -31.0184    6.3675 H         1 UNK         0.0814 
     90 H90       -51.5972  -32.3764    7.1732 H         1 UNK         0.0814 
     91 H91       -52.5135  -28.7903    7.5573 H         1 UNK         0.1469 
     92 H92       -52.0828  -28.7849   11.8067 H         1 UNK         0.1381 
     93 H93       -51.0595  -32.2933    9.5621 H         1 UNK         0.1206 
     94 H94       -50.5532  -32.2086   11.8916 H         1 UNK         0.0813 
     95 H95       -50.5742  -30.6981   12.7477 H         1 UNK         0.0813 
     96 H96       -53.3430  -30.6231   14.9555 H         1 UNK         0.0638 
     97 H97       -52.3978  -29.6812   13.8548 H         1 UNK         0.0638 
     98 H98       -54.4736  -30.0929   12.1776 H         1 UNK         0.0568 
     99 H99       -57.1235  -31.9923   13.5775 H         1 UNK         0.3450 
    100 H100      -55.9032  -31.8818   12.3353 H         1 UNK         0.3450 
    101 H101      -53.9607  -27.9601   14.0302 H         1 UNK         0.2987 
    102 H102      -54.3551  -25.7674   12.5197 H         1 UNK         0.0766 
    103 H103      -56.3255  -24.2302   12.4480 H         1 UNK         0.0798 
    104 H104      -56.3476  -25.3915   11.1303 H         1 UNK         0.0798 
    105 H105      -57.4149  -25.6164   12.5063 H         1 UNK         0.0798 
    106 H106      -54.3486  -25.6102   14.7092 H         1 UNK         0.3198 
    107 H107      -56.7227  -25.4957   17.2721 H         1 UNK         0.0843 
    108 H108      -55.0440  -26.9465   18.4306 H         1 UNK         0.0831 
    109 H109      -54.4195  -27.4856   16.8702 H         1 UNK         0.0831 
    110 H110      -56.0590  -27.8873   17.3485 H         1 UNK         0.0831 
    111 H111      -53.8444  -25.0656   16.8727 H         1 UNK         0.3133 
    112 H112      -54.1757  -21.5617   16.3038 H         1 UNK         0.0566 
    113 H113      -53.0008  -23.1002   18.6854 H         1 UNK         0.0814 
    114 H114      -54.1622  -21.7852   18.7905 H         1 UNK         0.0814 
    115 H115      -52.5486  -21.4731   18.1750 H         1 UNK         0.0814 
    116 H116      -51.9239  -23.3408   16.4523 H         1 UNK         0.3091 
    117 H117      -51.9604  -24.4712   13.1276 H         1 UNK         0.0702 
    118 H118      -50.1194  -22.2807   14.2310 H         1 UNK         0.0785 
    119 H119      -51.0283  -22.1925   12.7279 H         1 UNK         0.0785 
    120 H120      -49.7412  -23.3728   12.8993 H         1 UNK         0.0785 
    121 H121      -49.9211  -24.6317   15.0997 H         1 UNK         0.2998 
    122 H122      -50.1721  -26.2074   17.0911 H         1 UNK         0.0697 
    123 H123      -51.5432  -28.7230   15.9916 H         1 UNK         0.0825 
    124 H124      -52.0425  -27.8081   17.4086 H         1 UNK         0.0825 
    125 H125      -50.5096  -28.6612   17.4173 H         1 UNK         0.0825 
    126 H126      -49.4185  -28.0431   14.8859 H         1 UNK         0.3029 
    127 H127      -46.3564  -26.3515   14.2372 H         1 UNK         0.0897 
    128 H128      -45.9397  -28.7500   13.8657 H         1 UNK         0.0792 
    129 H129      -46.3012  -28.4615   15.5591 H         1 UNK         0.0792 
    130 H130      -47.5165  -29.1806   14.5154 H         1 UNK         0.0792 
    131 H131      -47.2328  -26.2930   12.2378 H         1 UNK         0.3086 
    132 H132      -49.5977  -28.1278   10.4246 H         1 UNK         0.0583 
    133 H133      -51.1513  -26.4798   11.7272 H         1 UNK         0.1020 
    134 H134      -50.0890  -25.2070   11.2137 H         1 UNK         0.1020 
    135 H135      -53.2248  -26.9164   10.6566 H         1 UNK         0.0694 
    136 H136      -53.5348  -27.0046    8.9437 H         1 UNK         0.0694 
    137 H137      -48.1542  -25.7112    9.8552 H         1 UNK         0.2989 
    138 H138      -44.9875  -27.0733    9.6063 H         1 UNK         0.1055 
    139 H139      -44.9052  -26.5047    7.1440 H         1 UNK         0.0806 
    140 H140      -46.6417  -26.8030    7.0481 H         1 UNK         0.0806 
    141 H141      -45.5453  -28.1069    7.4717 H         1 UNK         0.0806 
    142 H142      -46.0893  -24.6862    8.4503 H         1 UNK         0.3061 
    143 H143      -46.4766  -22.8450   11.4074 H         1 UNK         0.0734 
    144 H144      -43.9744  -22.8530   11.4536 H         1 UNK         0.0832 
    145 H145      -43.9292  -22.6580    9.7074 H         1 UNK         0.0832 
    146 H146      -44.5921  -21.3797   10.7283 H         1 UNK         0.0832 
    147 H147      -46.1221  -21.8786    8.7843 H         1 UNK         0.3156 
    148 H148      -49.3271  -21.4314    8.1860 H         1 UNK         0.0589 
    149 H149      -46.6189  -21.5516    6.7414 H         1 UNK         0.0808 
    150 H150      -47.9647  -20.4999    6.3317 H         1 UNK         0.0808 
    151 H151      -47.1386  -20.2852    7.8582 H         1 UNK         0.0808 
    152 H152      -49.9783  -22.7259    6.5114 H         1 UNK         0.3098 
    153 H153      -50.2423  -24.5196    5.2603 H         1 UNK         0.0720 
    154 H154      -49.3524  -24.5181    2.9197 H         1 UNK         0.0791 
    155 H155      -48.9699  -22.9941    3.7026 H         1 UNK         0.0791 
    156 H156      -47.7215  -24.2197    3.5176 H         1 UNK         0.0791 
    157 H157      -48.0474  -26.3492    5.6405 H         1 UNK         0.3028 
@<TRIPOS>BOND
     1    1    2 1    
     2    1   82 1    
     3    1   83 1    
     4    1   84 1    
     5    2    3 2    
     6    2    4 am   BACKBONE|DICT|INTERRES
     7    4    5 1    
     8    4   85 1    
     9    5    6 1    
    10    5   80 1    
    11    5   86 1    
    12    6    7 1    
    13    6   87 1    
    14    6   88 1    
    15    7    8 1    
    16    8    9 1    
    17    8   89 1    
    18    8   90 1    
    19    9   10 ar   
    20    9   14 ar   
    21   10   11 ar   
    22   10   91 1    
    23   11   12 ar   
    24   11   58 1    
    25   12   13 ar   
    26   12   92 1    
    27   13   14 ar   
    28   13   15 1    
    29   14   93 1    
    30   15   16 1    
    31   15   94 1    
    32   15   95 1    
    33   16   17 1    
    34   17   18 1    
    35   17   96 1    
    36   17   97 1    
    37   18   19 1    
    38   18   22 1    
    39   18   98 1    
    40   19   20 am   BACKBONE|DICT|INTERRES
    41   19   21 2    
    42   20   99 1    
    43   20  100 1    
    44   22   23 am   BACKBONE|DICT|INTERRES
    45   22  101 1    
    46   23   24 2    
    47   23   25 1    
    48   25   26 1    
    49   25   27 1    
    50   25  102 1    
    51   26  103 1    
    52   26  104 1    
    53   26  105 1    
    54   27   28 am   BACKBONE|DICT|INTERRES
    55   27  106 1    
    56   28   29 2    
    57   28   30 1    
    58   30   31 1    
    59   30   32 1    
    60   30  107 1    
    61   31  108 1    
    62   31  109 1    
    63   31  110 1    
    64   32   33 am   BACKBONE|DICT|INTERRES
    65   32  111 1    
    66   33   34 2    
    67   33   35 1    
    68   35   36 1    
    69   35   37 1    
    70   35  112 1    
    71   36  113 1    
    72   36  114 1    
    73   36  115 1    
    74   37   38 am   BACKBONE|DICT|INTERRES
    75   37  116 1    
    76   38   39 2    
    77   38   40 1    
    78   40   41 1    
    79   40   42 1    
    80   40  117 1    
    81   41  118 1    
    82   41  119 1    
    83   41  120 1    
    84   42   43 am   BACKBONE|DICT|INTERRES
    85   42  121 1    
    86   43   44 2    
    87   43   45 1    
    88   45   46 1    
    89   45   47 1    
    90   45  122 1    
    91   46  123 1    
    92   46  124 1    
    93   46  125 1    
    94   47   48 am   BACKBONE|DICT|INTERRES
    95   47  126 1    
    96   48   49 2    
    97   48   50 1    
    98   50   51 1    
    99   50   52 1    
   100   50  127 1    
   101   51  128 1    
   102   51  129 1    
   103   51  130 1    
   104   52   53 am   BACKBONE|DICT|INTERRES
   105   52  131 1    
   106   53   54 2    
   107   53   55 1    
   108   55   56 1    
   109   55   59 1    
   110   55  132 1    
   111   56   57 1    
   112   56  133 1    
   113   56  134 1    
   114   57   58 1    
   115   58  135 1    
   116   58  136 1    
   117   59   60 am   BACKBONE|DICT|INTERRES
   118   59  137 1    
   119   60   61 2    
   120   60   62 1    
   121   62   63 1    
   122   62   64 1    
   123   62  138 1    
   124   63  139 1    
   125   63  140 1    
   126   63  141 1    
   127   64   65 am   BACKBONE|DICT|INTERRES
   128   64  142 1    
   129   65   66 2    
   130   65   67 1    
   131   67   68 1    
   132   67   69 1    
   133   67  143 1    
   134   68  144 1    
   135   68  145 1    
   136   68  146 1    
   137   69   70 am   BACKBONE|DICT|INTERRES
   138   69  147 1    
   139   70   71 2    
   140   70   72 1    
   141   72   73 1    
   142   72   74 1    
   143   72  148 1    
   144   73  149 1    
   145   73  150 1    
   146   73  151 1    
   147   74   75 am   BACKBONE|DICT|INTERRES
   148   74  152 1    
   149   75   76 2    
   150   75   77 1    
   151   77   78 1    
   152   77   79 1    
   153   77  153 1    
   154   78  154 1    
   155   78  155 1    
   156   78  156 1    
   157   79   80 am   BACKBONE|DICT|INTERRES
   158   79  157 1    
   159   80   81 2    
@<TRIPOS>SUBSTRUCTURE
     1 UNK         1 GROUP             0       ****    0 ROOT    
