@<TRIPOS>MOLECULE
3R207
157   159    1
SMALL
USER_CHARGES


@<TRIPOS>ATOM
      1 CA        -51.4106  -29.9519    1.2202 C.3       0 UNK        -0.1975 
      2 C         -51.1141  -29.3078    2.5668 C.2       0 UNK         0.4852 
      3 O         -51.7340  -28.3006    2.9122 O.2       0 UNK        -0.5216 
      4 N         -50.1782  -29.8857    3.3314 N.am      1 UNK        -0.4461 
      5 CA        -49.7140  -29.3638    4.6205 C.3       1 UNK         0.0864 
      6 C6        -49.0630  -30.4871    5.4695 C.3       14 UNK        -0.0898 
      7 S7        -49.0871  -30.1106    7.2528 S.3       14 UNK        -0.2598 
      8 C8        -50.7615  -30.6595    7.7035 C.3       14 UNK         0.0286 
      9 C9        -51.2870  -29.8663    8.8887 C.ar      14 UNK        -0.0844 
     10 C10       -51.8875  -28.6205    8.6840 C.ar      14 UNK        -0.0881 
     11 C11       -52.3734  -27.8795    9.7645 C.ar      14 UNK        -0.0643 
     12 C12       -52.2477  -28.3922   11.0572 C.ar      14 UNK        -0.0930 
     13 C13       -51.6753  -29.6509   11.2753 C.ar      14 UNK        -0.0827 
     14 C14       -51.1863  -30.3776   10.1855 C.ar      14 UNK        -0.1249 
     15 C15       -51.5772  -30.2366   12.6797 C.3       14 UNK         0.0141 
     16 S16       -53.0755  -29.9739   13.6913 S.3       14 UNK        -0.2313 
     17 C17       -54.3152  -31.0163   12.8478 C.3       14 UNK        -0.0915 
     18 CA        -55.0831  -30.2964   11.7045 C.3       13 UNK         0.0968 
     19 C         -56.1824  -31.2204   11.1146 C.2       13 UNK         0.5732 
     20 N         -55.8252  -32.0902   10.1793 N.am      13 UNK        -0.7310 
     21 O         -57.3414  -31.1870   11.5257 O.2       13 UNK        -0.5035 
     22 N         -55.6018  -28.9849   12.1209 N.am      13 UNK        -0.4233 
     23 C         -56.0546  -28.0430   11.2836 C.2       13 UNK         0.4989 
     24 O         -56.0760  -28.1717   10.0588 O.2       13 UNK        -0.4996 
     25 CA        -56.5769  -26.7276   11.8936 C.3       12 UNK         0.0216 
     26 CB        -58.0993  -26.6159   11.7015 C.3       12 UNK        -0.1964 
     27 N         -56.2662  -26.5535   13.3165 N.am      12 UNK        -0.4276 
     28 C         -55.0756  -26.1835   13.8046 C.2       12 UNK         0.5020 
     29 O         -54.0780  -25.9689   13.1124 O.2       12 UNK        -0.5489 
     30 CA        -54.9951  -26.0432   15.3288 C.3       11 UNK         0.0294 
     31 CB        -54.9649  -27.4232   16.0139 C.3       11 UNK        -0.2019 
     32 N         -53.7933  -25.2966   15.6851 N.am      11 UNK        -0.4493 
     33 C         -53.6082  -24.6183   16.8242 C.2       11 UNK         0.4932 
     34 O         -54.4783  -24.4771   17.6859 O.2       11 UNK        -0.5029 
     35 CA        -52.1989  -24.0332   17.0395 C.3       10 UNK         0.0280 
     36 CB        -51.9791  -23.4534   18.4529 C.3       10 UNK        -0.1976 
     37 N         -51.1597  -25.0100   16.6956 N.am      10 UNK        -0.4242 
     38 C         -50.9484  -26.2104   17.2584 C.2       10 UNK         0.5072 
     39 O         -51.5334  -26.6220   18.2613 O.2       10 UNK        -0.5224 
     40 CA        -49.9266  -27.1290   16.5689 C.3       9 UNK         0.0343 
     41 CB        -50.6346  -28.0466   15.5632 C.3       9 UNK        -0.2003 
     42 N         -48.8570  -26.3992   15.8858 N.am      9 UNK        -0.4272 
     43 C         -47.8473  -25.7896   16.5227 C.2       9 UNK         0.4988 
     44 O         -47.6931  -25.8108   17.7447 O.2       9 UNK        -0.5108 
     45 CA        -46.8387  -25.0231   15.6533 C.3       8 UNK         0.0248 
     46 CB        -45.8383  -25.9932   15.0044 C.3       8 UNK        -0.2001 
     47 N         -47.4802  -24.1991   14.6251 N.am      8 UNK        -0.4140 
     48 C         -48.2575  -23.1364   14.8842 C.2       8 UNK         0.5028 
     49 O         -48.4917  -22.7172   16.0181 O.2       8 UNK        -0.5428 
     50 CA        -48.8954  -22.4208   13.6824 C.3       7 UNK         0.0264 
     51 CB        -47.8875  -21.4684   13.0194 C.3       7 UNK        -0.1988 
     52 N         -49.4327  -23.3405   12.6792 N.am      7 UNK        -0.4454 
     53 C         -50.4453  -24.1971   12.8823 C.2       7 UNK         0.5027 
     54 O         -51.0583  -24.2978   13.9447 O.2       7 UNK        -0.5083 
     55 CA        -50.8037  -25.1245   11.7064 C.3       6 UNK         0.0844 
     56 C56       -51.6598  -24.3664   10.6590 C.3       14 UNK        -0.0967 
     57 S57       -51.8994  -25.2396    9.0740 S.3       14 UNK        -0.2604 
     58 C58       -53.0742  -26.5505    9.5236 C.3       14 UNK         0.0134 
     59 N         -49.6081  -25.7519   11.1416 N.am      6 UNK        -0.4116 
     60 C         -48.7720  -26.5586   11.8108 C.2       5 UNK         0.5034 
     61 O         -48.9178  -26.8948   12.9867 O.2       5 UNK        -0.5045 
     62 CA        -47.5196  -27.0110   11.0499 C.3       5 UNK         0.0224 
     63 CB        -47.8478  -28.1861   10.1160 C.3       5 UNK        -0.1978 
     64 N         -46.9264  -25.9068   10.2892 N.am      5 UNK        -0.4737 
     65 C         -46.3271  -24.8492   10.8588 C.2       4 UNK         0.5027 
     66 O         -46.1775  -24.7236   12.0727 O.2       4 UNK        -0.5211 
     67 CA        -45.8509  -23.7189    9.9313 C.3       4 UNK         0.0297 
     68 CB        -44.4421  -24.0195    9.3965 C.3       4 UNK        -0.1993 
     69 N         -46.7584  -23.4746    8.8102 N.am      4 UNK        -0.4486 
     70 C         -48.0358  -23.0842    8.9250 C.2       3 UNK         0.4961 
     71 O         -48.5791  -22.8219    9.9977 O.2       3 UNK        -0.5105 
     72 CA        -48.8577  -23.0137    7.6259 C.3       3 UNK         0.0299 
     73 CB        -48.8498  -21.5834    7.0646 C.3       3 UNK        -0.1972 
     74 N         -48.4122  -23.9522    6.5869 N.am      3 UNK        -0.4305 
     75 C         -48.3987  -25.2857    6.7195 C.2       2 UNK         0.5006 
     76 O         -48.7198  -25.8802    7.7510 O.2       2 UNK        -0.5106 
     77 CA        -47.8897  -26.0922    5.5237 C.3       2 UNK         0.0296 
     78 CB        -46.3828  -26.3791    5.6656 C.3       2 UNK        -0.2002 
     79 N         -48.6451  -27.3379    5.4833 N.am      2 UNK        -0.4032 
     80 C         -48.7801  -28.1468    4.4281 C.2       1 UNK         0.5000 
     81 O         -48.2042  -27.9676    3.3500 O.2       1 UNK        -0.5238 
     82 H82       -51.2100  -29.2456    0.4150 H         1 UNK         0.0889 
     83 H83       -52.4594  -30.2424    1.1659 H         1 UNK         0.0889 
     84 H84       -50.8035  -30.8409    1.0504 H         1 UNK         0.0889 
     85 H85       -49.6767  -30.6875    2.9770 H         1 UNK         0.3028 
     86 H86       -50.6000  -29.0053    5.1497 H         1 UNK         0.0864 
     87 H87       -48.0334  -30.6728    5.1572 H         1 UNK         0.0720 
     88 H88       -49.5909  -31.4316    5.3252 H         1 UNK         0.0720 
     89 H89       -50.7425  -31.7268    7.9292 H         1 UNK         0.0814 
     90 H90       -51.4413  -30.5382    6.8590 H         1 UNK         0.0814 
     91 H91       -51.9781  -28.2233    7.6824 H         1 UNK         0.1469 
     92 H92       -52.6344  -27.8281   11.8940 H         1 UNK         0.1381 
     93 H93       -50.7288  -31.3446   10.3441 H         1 UNK         0.1206 
     94 H94       -51.3653  -31.3061   12.6409 H         1 UNK         0.0813 
     95 H95       -50.7270  -29.7729   13.1784 H         1 UNK         0.0813 
     96 H96       -55.0157  -31.3609   13.6108 H         1 UNK         0.0638 
     97 H97       -53.8187  -31.9111   12.4682 H         1 UNK         0.0638 
     98 H98       -54.3763  -30.1084   10.8962 H         1 UNK         0.0568 
     99 H99       -56.5215  -32.7098    9.7957 H         1 UNK         0.3450 
    100 H100      -54.8760  -32.1333    9.8432 H         1 UNK         0.3450 
    101 H101      -55.6185  -28.8084   13.1126 H         1 UNK         0.2987 
    102 H102      -56.1058  -25.9121   11.3402 H         1 UNK         0.0766 
    103 H103      -58.4764  -25.6573   12.0585 H         1 UNK         0.0798 
    104 H104      -58.6326  -27.4071   12.2302 H         1 UNK         0.0798 
    105 H105      -58.3675  -26.6927   10.6467 H         1 UNK         0.0798 
    106 H106      -57.0268  -26.7105   13.9631 H         1 UNK         0.3198 
    107 H107      -55.8735  -25.4863   15.6627 H         1 UNK         0.0843 
    108 H108      -54.0774  -27.9895   15.7304 H         1 UNK         0.0831 
    109 H109      -55.8366  -28.0228   15.7502 H         1 UNK         0.0831 
    110 H110      -54.9601  -27.3263   17.0998 H         1 UNK         0.0831 
    111 H111      -53.0670  -25.3032   14.9757 H         1 UNK         0.3133 
    112 H112      -52.0934  -23.2129   16.3282 H         1 UNK         0.0566 
    113 H113      -50.9729  -23.0481   18.5607 H         1 UNK         0.0814 
    114 H114      -52.6794  -22.6417   18.6531 H         1 UNK         0.0814 
    115 H115      -52.1240  -24.2047   19.2297 H         1 UNK         0.0814 
    116 H116      -50.6735  -24.8081   15.8273 H         1 UNK         0.3091 
    117 H117      -49.4760  -27.7585   17.3393 H         1 UNK         0.0702 
    118 H118      -49.9351  -28.7619   15.1320 H         1 UNK         0.0785 
    119 H119      -51.0867  -27.4821   14.7458 H         1 UNK         0.0785 
    120 H120      -51.4290  -28.6182   16.0450 H         1 UNK         0.0785 
    121 H121      -48.8873  -26.3844   14.8691 H         1 UNK         0.2998 
    122 H122      -46.2792  -24.3539   16.3104 H         1 UNK         0.0697 
    123 H123      -46.3250  -26.6558   14.2877 H         1 UNK         0.0825 
    124 H124      -45.3562  -26.6201   15.7557 H         1 UNK         0.0825 
    125 H125      -45.0495  -25.4548   14.4789 H         1 UNK         0.0825 
    126 H126      -47.2783  -24.4408   13.6582 H         1 UNK         0.3029 
    127 H127      -49.7292  -21.8249   14.0599 H         1 UNK         0.0897 
    128 H128      -48.3520  -20.8970   12.2153 H         1 UNK         0.0792 
    129 H129      -47.4930  -20.7521   13.7413 H         1 UNK         0.0792 
    130 H130      -47.0396  -22.0089   12.5973 H         1 UNK         0.0792 
    131 H131      -49.0178  -23.2922   11.7501 H         1 UNK         0.3086 
    132 H132      -51.4146  -25.9278   12.1176 H         1 UNK         0.0583 
    133 H133      -52.6387  -24.1297   11.0810 H         1 UNK         0.1020 
    134 H134      -51.2045  -23.4050   10.4136 H         1 UNK         0.1020 
    135 H135      -53.6537  -26.2506   10.3974 H         1 UNK         0.0694 
    136 H136      -53.7932  -26.6712    8.7121 H         1 UNK         0.0694 
    137 H137      -49.4154  -25.5517   10.1690 H         1 UNK         0.2989 
    138 H138      -46.7863  -27.3517   11.7844 H         1 UNK         0.1055 
    139 H139      -48.2196  -29.0405   10.6834 H         1 UNK         0.0806 
    140 H140      -46.9692  -28.5192    9.5639 H         1 UNK         0.0806 
    141 H141      -48.6215  -27.9270    9.3926 H         1 UNK         0.0806 
    142 H142      -47.0902  -25.9022    9.2902 H         1 UNK         0.3061 
    143 H143      -45.8040  -22.8030   10.5242 H         1 UNK         0.0734 
    144 H144      -44.0540  -23.1879    8.8080 H         1 UNK         0.0832 
    145 H145      -43.7428  -24.1867   10.2171 H         1 UNK         0.0832 
    146 H146      -44.4277  -24.9123    8.7699 H         1 UNK         0.0832 
    147 H147      -46.4015  -23.6583    7.8844 H         1 UNK         0.3156 
    148 H148      -49.8871  -23.2720    7.8809 H         1 UNK         0.0589 
    149 H149      -47.8492  -21.2726    6.7611 H         1 UNK         0.0808 
    150 H150      -49.1995  -20.8700    7.8124 H         1 UNK         0.0808 
    151 H151      -49.5084  -21.4914    6.2008 H         1 UNK         0.0808 
    152 H152      -48.1192  -23.5476    5.7086 H         1 UNK         0.3098 
    153 H153      -48.0770  -25.5311    4.6057 H         1 UNK         0.0720 
    154 H154      -45.8094  -25.4531    5.7207 H         1 UNK         0.0791 
    155 H155      -46.0021  -26.9424    4.8136 H         1 UNK         0.0791 
    156 H156      -46.1672  -26.9536    6.5678 H         1 UNK         0.0791 
    157 H157      -49.1222  -27.5555    6.3512 H         1 UNK         0.3028 
@<TRIPOS>BOND
     1    1    2 1    
     2    1   82 1    
     3    1   83 1    
     4    1   84 1    
     5    2    3 2    
     6    2    4 am   BACKBONE|DICT|INTERRES
     7    4    5 1    
     8    4   85 1    
     9    5    6 1    
    10    5   80 1    
    11    5   86 1    
    12    6    7 1    
    13    6   87 1    
    14    6   88 1    
    15    7    8 1    
    16    8    9 1    
    17    8   89 1    
    18    8   90 1    
    19    9   10 ar   
    20    9   14 ar   
    21   10   11 ar   
    22   10   91 1    
    23   11   12 ar   
    24   11   58 1    
    25   12   13 ar   
    26   12   92 1    
    27   13   14 ar   
    28   13   15 1    
    29   14   93 1    
    30   15   16 1    
    31   15   94 1    
    32   15   95 1    
    33   16   17 1    
    34   17   18 1    
    35   17   96 1    
    36   17   97 1    
    37   18   19 1    
    38   18   22 1    
    39   18   98 1    
    40   19   20 am   BACKBONE|DICT|INTERRES
    41   19   21 2    
    42   20   99 1    
    43   20  100 1    
    44   22   23 am   BACKBONE|DICT|INTERRES
    45   22  101 1    
    46   23   24 2    
    47   23   25 1    
    48   25   26 1    
    49   25   27 1    
    50   25  102 1    
    51   26  103 1    
    52   26  104 1    
    53   26  105 1    
    54   27   28 am   BACKBONE|DICT|INTERRES
    55   27  106 1    
    56   28   29 2    
    57   28   30 1    
    58   30   31 1    
    59   30   32 1    
    60   30  107 1    
    61   31  108 1    
    62   31  109 1    
    63   31  110 1    
    64   32   33 am   BACKBONE|DICT|INTERRES
    65   32  111 1    
    66   33   34 2    
    67   33   35 1    
    68   35   36 1    
    69   35   37 1    
    70   35  112 1    
    71   36  113 1    
    72   36  114 1    
    73   36  115 1    
    74   37   38 am   BACKBONE|DICT|INTERRES
    75   37  116 1    
    76   38   39 2    
    77   38   40 1    
    78   40   41 1    
    79   40   42 1    
    80   40  117 1    
    81   41  118 1    
    82   41  119 1    
    83   41  120 1    
    84   42   43 am   BACKBONE|DICT|INTERRES
    85   42  121 1    
    86   43   44 2    
    87   43   45 1    
    88   45   46 1    
    89   45   47 1    
    90   45  122 1    
    91   46  123 1    
    92   46  124 1    
    93   46  125 1    
    94   47   48 am   BACKBONE|DICT|INTERRES
    95   47  126 1    
    96   48   49 2    
    97   48   50 1    
    98   50   51 1    
    99   50   52 1    
   100   50  127 1    
   101   51  128 1    
   102   51  129 1    
   103   51  130 1    
   104   52   53 am   BACKBONE|DICT|INTERRES
   105   52  131 1    
   106   53   54 2    
   107   53   55 1    
   108   55   56 1    
   109   55   59 1    
   110   55  132 1    
   111   56   57 1    
   112   56  133 1    
   113   56  134 1    
   114   57   58 1    
   115   58  135 1    
   116   58  136 1    
   117   59   60 am   BACKBONE|DICT|INTERRES
   118   59  137 1    
   119   60   61 2    
   120   60   62 1    
   121   62   63 1    
   122   62   64 1    
   123   62  138 1    
   124   63  139 1    
   125   63  140 1    
   126   63  141 1    
   127   64   65 am   BACKBONE|DICT|INTERRES
   128   64  142 1    
   129   65   66 2    
   130   65   67 1    
   131   67   68 1    
   132   67   69 1    
   133   67  143 1    
   134   68  144 1    
   135   68  145 1    
   136   68  146 1    
   137   69   70 am   BACKBONE|DICT|INTERRES
   138   69  147 1    
   139   70   71 2    
   140   70   72 1    
   141   72   73 1    
   142   72   74 1    
   143   72  148 1    
   144   73  149 1    
   145   73  150 1    
   146   73  151 1    
   147   74   75 am   BACKBONE|DICT|INTERRES
   148   74  152 1    
   149   75   76 2    
   150   75   77 1    
   151   77   78 1    
   152   77   79 1    
   153   77  153 1    
   154   78  154 1    
   155   78  155 1    
   156   78  156 1    
   157   79   80 am   BACKBONE|DICT|INTERRES
   158   79  157 1    
   159   80   81 2    
@<TRIPOS>SUBSTRUCTURE
     1 UNK         1 GROUP             0       ****    0 ROOT    
