@<TRIPOS>MOLECULE
3R207
157   159    1
SMALL
USER_CHARGES


@<TRIPOS>ATOM
      1 CA        -51.4141  -27.0202   10.7052 C.3       0 UNK        -0.1975 
      2 C         -50.7045  -28.1751   10.0220 C.2       0 UNK         0.4852 
      3 O         -50.3973  -29.1814   10.6604 O.2       0 UNK        -0.5216 
      4 N         -50.4217  -28.0164    8.7256 N.am      1 UNK        -0.4461 
      5 CA        -49.6261  -28.9447    7.9171 C.3       1 UNK         0.0864 
      6 C6        -49.8066  -28.6682    6.4069 C.3       14 UNK        -0.0898 
      7 S7        -51.4928  -29.0599    5.8325 S.3       14 UNK        -0.2598 
      8 C8        -52.2234  -27.4104    5.5397 C.3       14 UNK         0.0286 
      9 C9        -53.0436  -26.8342    6.6968 C.ar      14 UNK        -0.0844 
     10 C10       -53.2036  -25.4463    6.7776 C.ar      14 UNK        -0.0881 
     11 C11       -54.0380  -24.8701    7.7423 C.ar      14 UNK        -0.0643 
     12 C12       -54.7100  -25.7005    8.6433 C.ar      14 UNK        -0.0930 
     13 C13       -54.5710  -27.0902    8.5751 C.ar      14 UNK        -0.0827 
     14 C14       -53.7315  -27.6503    7.6067 C.ar      14 UNK        -0.1249 
     15 C15       -55.3998  -27.9780    9.4950 C.3       14 UNK         0.0141 
     16 S16       -54.8388  -27.8926   11.2238 S.3       14 UNK        -0.2313 
     17 C17       -53.9872  -29.4933   11.4532 C.3       14 UNK        -0.0915 
     18 CA        -54.8159  -30.4839   12.3139 C.3       13 UNK         0.0968 
     19 C         -54.1232  -31.8767   12.4035 C.2       13 UNK         0.5732 
     20 N         -53.7942  -32.3958   13.5823 N.am      13 UNK        -0.7310 
     21 O         -53.8903  -32.5093   11.3763 O.2       13 UNK        -0.5035 
     22 N         -55.1605  -29.8973   13.6172 N.am      13 UNK        -0.4233 
     23 C         -56.1804  -30.2807   14.3926 C.2       13 UNK         0.4989 
     24 O         -57.0001  -31.1436   14.0724 O.2       13 UNK        -0.4996 
     25 CA        -56.2853  -29.5765   15.7593 C.3       12 UNK         0.0216 
     26 CB        -57.1999  -30.3230   16.7542 C.3       12 UNK        -0.1964 
     27 N         -54.9745  -29.2954   16.3635 N.am      12 UNK        -0.4276 
     28 C         -54.0309  -30.1851   16.7159 C.2       12 UNK         0.5020 
     29 O         -54.1452  -31.3975   16.5276 O.2       12 UNK        -0.5489 
     30 CA        -52.7260  -29.6532   17.3488 C.3       11 UNK         0.0294 
     31 CB        -51.4923  -30.2768   16.6711 C.3       11 UNK        -0.2019 
     32 N         -52.6056  -28.1931   17.2971 N.am      11 UNK        -0.4493 
     33 C         -53.1727  -27.3366   18.1615 C.2       11 UNK         0.4932 
     34 O         -53.7890  -27.6946   19.1648 O.2       11 UNK        -0.5029 
     35 CA        -53.0839  -25.8289   17.8376 C.3       10 UNK         0.0280 
     36 CB        -51.9647  -25.1704   18.6598 C.3       10 UNK        -0.1976 
     37 N         -52.8715  -25.5344   16.4161 N.am      10 UNK        -0.4242 
     38 C         -53.6769  -25.9147   15.4132 C.2       10 UNK         0.5072 
     39 O         -54.7729  -26.4486   15.5897 O.2       10 UNK        -0.5224 
     40 CA        -53.1461  -25.7593   13.9746 C.3       9 UNK         0.0343 
     41 CB        -53.8760  -24.6223   13.2439 C.3       9 UNK        -0.2003 
     42 N         -51.6868  -25.5959   13.8459 N.am      9 UNK        -0.4272 
     43 C         -50.7775  -26.4880   14.2788 C.2       9 UNK         0.4988 
     44 O         -51.0938  -27.5087   14.8906 O.2       9 UNK        -0.5108 
     45 CA        -49.2800  -26.2274   14.0184 C.3       8 UNK         0.0248 
     46 CB        -48.5855  -27.4743   13.4432 C.3       8 UNK        -0.2001 
     47 N         -49.0114  -25.0808   13.1456 N.am      8 UNK        -0.4140 
     48 C         -48.8550  -23.8195   13.5692 C.2       8 UNK         0.5028 
     49 O         -48.9146  -23.4834   14.7524 O.2       8 UNK        -0.5428 
     50 CA        -48.6077  -22.7422   12.4933 C.3       7 UNK         0.0264 
     51 CB        -47.0991  -22.5518   12.2762 C.3       7 UNK        -0.1988 
     52 N         -49.2501  -22.9813   11.1923 N.am      7 UNK        -0.4454 
     53 C         -50.5564  -23.2228   10.9980 C.2       7 UNK         0.5027 
     54 O         -51.3557  -23.3437   11.9247 O.2       7 UNK        -0.5083 
     55 CA        -51.0824  -23.3507    9.5507 C.3       6 UNK         0.0844 
     56 C56       -52.1870  -22.2978    9.2870 C.3       14 UNK        -0.0967 
     57 S57       -52.8262  -22.3333    7.5775 S.3       14 UNK        -0.2604 
     58 C58       -54.3170  -23.3688    7.7452 C.3       14 UNK         0.0134 
     59 N         -50.0335  -23.3103    8.5289 N.am      6 UNK        -0.4116 
     60 C         -49.1635  -24.2885    8.2588 C.2       5 UNK         0.5034 
     61 O         -49.0669  -25.3209    8.9228 O.2       5 UNK        -0.5045 
     62 CA        -48.2524  -24.0939    7.0351 C.3       5 UNK         0.0224 
     63 CB        -48.7546  -23.0243    6.0379 C.3       5 UNK        -0.1978 
     64 N         -46.8593  -23.8336    7.4094 N.am      5 UNK        -0.4737 
     65 C         -46.3801  -22.8353    8.1675 C.2       4 UNK         0.5027 
     66 O         -47.0977  -22.0016    8.7221 O.2       4 UNK        -0.5211 
     67 CA        -44.8466  -22.7602    8.3375 C.3       4 UNK         0.0297 
     68 CB        -44.4313  -22.0912    9.6607 C.3       4 UNK        -0.1993 
     69 N         -44.2310  -24.0869    8.2650 N.am      4 UNK        -0.4486 
     70 C         -43.6475  -24.6312    7.1877 C.2       3 UNK         0.4961 
     71 O         -43.4480  -24.0291    6.1331 O.2       3 UNK        -0.5105 
     72 CA        -43.2729  -26.1246    7.2939 C.3       3 UNK         0.0299 
     73 CB        -41.8105  -26.2838    7.7392 C.3       3 UNK        -0.1972 
     74 N         -44.1492  -26.8676    8.2108 N.am      3 UNK        -0.4305 
     75 C         -45.4668  -27.0339    8.0244 C.2       2 UNK         0.5006 
     76 O         -46.0548  -26.6942    6.9944 O.2       2 UNK        -0.5106 
     77 CA        -46.2553  -27.5757    9.2276 C.3       2 UNK         0.0296 
     78 CB        -46.2209  -26.5642   10.3892 C.3       2 UNK        -0.2002 
     79 N         -47.6536  -27.8122    8.8744 N.am      2 UNK        -0.4032 
     80 C         -48.1270  -28.9234    8.2943 C.2       1 UNK         0.5000 
     81 O         -47.4336  -29.9146    8.0552 O.2       1 UNK        -0.5238 
     82 H82       -51.8887  -27.3523   11.6247 H         1 UNK         0.0889 
     83 H83       -52.1831  -26.5935   10.0631 H         1 UNK         0.0889 
     84 H84       -50.6991  -26.2406   10.9576 H         1 UNK         0.0889 
     85 H85       -50.7102  -27.1672    8.2612 H         1 UNK         0.3028 
     86 H86       -49.9822  -29.9564    8.1242 H         1 UNK         0.0864 
     87 H87       -49.5474  -27.6355    6.1669 H         1 UNK         0.0720 
     88 H88       -49.1267  -29.2903    5.8211 H         1 UNK         0.0720 
     89 H89       -52.8895  -27.4944    4.6801 H         1 UNK         0.0814 
     90 H90       -51.4408  -26.7117    5.2408 H         1 UNK         0.0814 
     91 H91       -52.7138  -24.8090    6.0539 H         1 UNK         0.1469 
     92 H92       -55.3800  -25.2706    9.3755 H         1 UNK         0.1381 
     93 H93       -53.6519  -28.7261    7.5382 H         1 UNK         0.1206 
     94 H94       -56.4389  -27.6481    9.4565 H         1 UNK         0.0813 
     95 H95       -55.4061  -29.0109    9.1444 H         1 UNK         0.0813 
     96 H96       -53.7496  -29.9200   10.4772 H         1 UNK         0.0638 
     97 H97       -53.0285  -29.3059   11.9377 H         1 UNK         0.0638 
     98 H98       -55.7522  -30.6624   11.7820 H         1 UNK         0.0568 
     99 H99       -54.0036  -31.9159   14.4489 H         1 UNK         0.3450 
    100 H100      -53.3530  -33.3008   13.6091 H         1 UNK         0.3450 
    101 H101      -54.5401  -29.1792   13.9575 H         1 UNK         0.2987 
    102 H102      -56.7405  -28.6050   15.5606 H         1 UNK         0.0766 
    103 H103      -56.8382  -31.3312   16.9590 H         1 UNK         0.0798 
    104 H104      -57.2692  -29.7922   17.7037 H         1 UNK         0.0798 
    105 H105      -58.2132  -30.4152   16.3615 H         1 UNK         0.0798 
    106 H106      -54.7674  -28.3088   16.4825 H         1 UNK         0.3198 
    107 H107      -52.7291  -29.9676   18.3946 H         1 UNK         0.0843 
    108 H108      -51.4814  -31.3604   16.7957 H         1 UNK         0.0831 
    109 H109      -50.5657  -29.8945   17.0994 H         1 UNK         0.0831 
    110 H110      -51.4753  -30.0741   15.5995 H         1 UNK         0.0831 
    111 H111      -52.1044  -27.8222   16.4922 H         1 UNK         0.3133 
    112 H112      -54.0349  -25.3772   18.1269 H         1 UNK         0.0566 
    113 H113      -51.9446  -24.0905   18.5120 H         1 UNK         0.0814 
    114 H114      -52.1091  -25.3462   19.7269 H         1 UNK         0.0814 
    115 H115      -50.9831  -25.5655   18.3947 H         1 UNK         0.0814 
    116 H116      -51.9918  -25.1046   16.1694 H         1 UNK         0.3091 
    117 H117      -53.3987  -26.6911   13.4677 H         1 UNK         0.0702 
    118 H118      -53.6660  -24.6447   12.1743 H         1 UNK         0.0785 
    119 H119      -53.5855  -23.6437   13.6272 H         1 UNK         0.0785 
    120 H120      -54.9576  -24.7121   13.3551 H         1 UNK         0.0785 
    121 H121      -51.3747  -24.7714   13.3414 H         1 UNK         0.2998 
    122 H122      -48.8356  -26.0388   14.9979 H         1 UNK         0.0697 
    123 H123      -48.9224  -27.6992   12.4321 H         1 UNK         0.0825 
    124 H124      -48.7800  -28.3577   14.0531 H         1 UNK         0.0825 
    125 H125      -47.5040  -27.3433   13.4204 H         1 UNK         0.0825 
    126 H126      -48.9534  -25.2588   12.1538 H         1 UNK         0.3029 
    127 H127      -49.0170  -21.8073   12.8817 H         1 UNK         0.0897 
    128 H128      -46.8975  -21.7160   11.6056 H         1 UNK         0.0792 
    129 H129      -46.5901  -22.3394   13.2175 H         1 UNK         0.0792 
    130 H130      -46.6410  -23.4453   11.8508 H         1 UNK         0.0792 
    131 H131      -48.6647  -22.8714   10.3737 H         1 UNK         0.3086 
    132 H132      -51.5539  -24.3322    9.4827 H         1 UNK         0.0583 
    133 H133      -53.0174  -22.4309    9.9836 H         1 UNK         0.1020 
    134 H134      -51.8037  -21.2922    9.4721 H         1 UNK         0.1020 
    135 H135      -54.8642  -23.0720    8.6412 H         1 UNK         0.0694 
    136 H136      -54.9763  -23.1506    6.9042 H         1 UNK         0.0694 
    137 H137      -50.0251  -22.4901    7.9404 H         1 UNK         0.2989 
    138 H138      -48.2554  -25.0522    6.5127 H         1 UNK         0.1055 
    139 H139      -48.1502  -23.0272    5.1307 H         1 UNK         0.0806 
    140 H140      -48.7143  -22.0158    6.4512 H         1 UNK         0.0806 
    141 H141      -49.7840  -23.2193    5.7325 H         1 UNK         0.0806 
    142 H142      -46.1997  -24.5188    7.0599 H         1 UNK         0.3061 
    143 H143      -44.4769  -22.1360    7.5214 H         1 UNK         0.0734 
    144 H144      -44.8601  -21.0923    9.7530 H         1 UNK         0.0832 
    145 H145      -44.7545  -22.6699   10.5252 H         1 UNK         0.0832 
    146 H146      -43.3486  -21.9801    9.7215 H         1 UNK         0.0832 
    147 H147      -44.3457  -24.6724    9.0789 H         1 UNK         0.3156 
    148 H148      -43.3781  -26.5635    6.2994 H         1 UNK         0.0589 
    149 H149      -41.6431  -25.8764    8.7371 H         1 UNK         0.0808 
    150 H150      -41.5094  -27.3317    7.7481 H         1 UNK         0.0808 
    151 H151      -41.1373  -25.7617    7.0576 H         1 UNK         0.0808 
    152 H152      -43.7331  -27.1922    9.0725 H         1 UNK         0.3098 
    153 H153      -45.7983  -28.5122    9.5543 H         1 UNK         0.0720 
    154 H154      -46.8306  -26.9080   11.2220 H         1 UNK         0.0791 
    155 H155      -46.5965  -25.5854   10.0877 H         1 UNK         0.0791 
    156 H156      -45.2100  -26.4262   10.7737 H         1 UNK         0.0791 
    157 H157      -48.2758  -27.0125    8.9629 H         1 UNK         0.3028 
@<TRIPOS>BOND
     1    1    2 1    
     2    1   82 1    
     3    1   83 1    
     4    1   84 1    
     5    2    3 2    
     6    2    4 am   BACKBONE|DICT|INTERRES
     7    4    5 1    
     8    4   85 1    
     9    5    6 1    
    10    5   80 1    
    11    5   86 1    
    12    6    7 1    
    13    6   87 1    
    14    6   88 1    
    15    7    8 1    
    16    8    9 1    
    17    8   89 1    
    18    8   90 1    
    19    9   10 ar   
    20    9   14 ar   
    21   10   11 ar   
    22   10   91 1    
    23   11   12 ar   
    24   11   58 1    
    25   12   13 ar   
    26   12   92 1    
    27   13   14 ar   
    28   13   15 1    
    29   14   93 1    
    30   15   16 1    
    31   15   94 1    
    32   15   95 1    
    33   16   17 1    
    34   17   18 1    
    35   17   96 1    
    36   17   97 1    
    37   18   19 1    
    38   18   22 1    
    39   18   98 1    
    40   19   20 am   BACKBONE|DICT|INTERRES
    41   19   21 2    
    42   20   99 1    
    43   20  100 1    
    44   22   23 am   BACKBONE|DICT|INTERRES
    45   22  101 1    
    46   23   24 2    
    47   23   25 1    
    48   25   26 1    
    49   25   27 1    
    50   25  102 1    
    51   26  103 1    
    52   26  104 1    
    53   26  105 1    
    54   27   28 am   BACKBONE|DICT|INTERRES
    55   27  106 1    
    56   28   29 2    
    57   28   30 1    
    58   30   31 1    
    59   30   32 1    
    60   30  107 1    
    61   31  108 1    
    62   31  109 1    
    63   31  110 1    
    64   32   33 am   BACKBONE|DICT|INTERRES
    65   32  111 1    
    66   33   34 2    
    67   33   35 1    
    68   35   36 1    
    69   35   37 1    
    70   35  112 1    
    71   36  113 1    
    72   36  114 1    
    73   36  115 1    
    74   37   38 am   BACKBONE|DICT|INTERRES
    75   37  116 1    
    76   38   39 2    
    77   38   40 1    
    78   40   41 1    
    79   40   42 1    
    80   40  117 1    
    81   41  118 1    
    82   41  119 1    
    83   41  120 1    
    84   42   43 am   BACKBONE|DICT|INTERRES
    85   42  121 1    
    86   43   44 2    
    87   43   45 1    
    88   45   46 1    
    89   45   47 1    
    90   45  122 1    
    91   46  123 1    
    92   46  124 1    
    93   46  125 1    
    94   47   48 am   BACKBONE|DICT|INTERRES
    95   47  126 1    
    96   48   49 2    
    97   48   50 1    
    98   50   51 1    
    99   50   52 1    
   100   50  127 1    
   101   51  128 1    
   102   51  129 1    
   103   51  130 1    
   104   52   53 am   BACKBONE|DICT|INTERRES
   105   52  131 1    
   106   53   54 2    
   107   53   55 1    
   108   55   56 1    
   109   55   59 1    
   110   55  132 1    
   111   56   57 1    
   112   56  133 1    
   113   56  134 1    
   114   57   58 1    
   115   58  135 1    
   116   58  136 1    
   117   59   60 am   BACKBONE|DICT|INTERRES
   118   59  137 1    
   119   60   61 2    
   120   60   62 1    
   121   62   63 1    
   122   62   64 1    
   123   62  138 1    
   124   63  139 1    
   125   63  140 1    
   126   63  141 1    
   127   64   65 am   BACKBONE|DICT|INTERRES
   128   64  142 1    
   129   65   66 2    
   130   65   67 1    
   131   67   68 1    
   132   67   69 1    
   133   67  143 1    
   134   68  144 1    
   135   68  145 1    
   136   68  146 1    
   137   69   70 am   BACKBONE|DICT|INTERRES
   138   69  147 1    
   139   70   71 2    
   140   70   72 1    
   141   72   73 1    
   142   72   74 1    
   143   72  148 1    
   144   73  149 1    
   145   73  150 1    
   146   73  151 1    
   147   74   75 am   BACKBONE|DICT|INTERRES
   148   74  152 1    
   149   75   76 2    
   150   75   77 1    
   151   77   78 1    
   152   77   79 1    
   153   77  153 1    
   154   78  154 1    
   155   78  155 1    
   156   78  156 1    
   157   79   80 am   BACKBONE|DICT|INTERRES
   158   79  157 1    
   159   80   81 2    
@<TRIPOS>SUBSTRUCTURE
     1 UNK         1 GROUP             0       ****    0 ROOT    
