@<TRIPOS>MOLECULE
3R207
157   159    1
SMALL
USER_CHARGES


@<TRIPOS>ATOM
      1 CA        -50.5988  -30.2600   10.6243 C.3       0 UNK        -0.1975 
      2 C         -49.6959  -29.9418    9.4417 C.2       0 UNK         0.4852 
      3 O         -49.4137  -30.8343    8.6416 O.2       0 UNK        -0.5216 
      4 N         -49.2533  -28.6845    9.3258 N.am      1 UNK        -0.4461 
      5 CA        -48.4313  -28.1747    8.2212 C.3       1 UNK         0.0864 
      6 C6        -49.2612  -27.2735    7.2628 C.3       14 UNK        -0.0898 
      7 S7        -49.3705  -27.8982    5.5565 S.3       14 UNK        -0.2598 
      8 C8        -50.7131  -29.1288    5.6700 C.3       14 UNK         0.0286 
      9 C9        -52.0119  -28.5920    6.2656 C.ar      14 UNK        -0.0844 
     10 C10       -52.6187  -27.4368    5.7592 C.ar      14 UNK        -0.0881 
     11 C11       -53.8230  -26.9722    6.2989 C.ar      14 UNK        -0.0643 
     12 C12       -54.4303  -27.6811    7.3400 C.ar      14 UNK        -0.0930 
     13 C13       -53.8400  -28.8407    7.8468 C.ar      14 UNK        -0.0827 
     14 C14       -52.6285  -29.2855    7.3115 C.ar      14 UNK        -0.1249 
     15 C15       -54.5400  -29.6475    8.9284 C.3       14 UNK         0.0141 
     16 S16       -54.2679  -28.9684   10.5936 S.3       14 UNK        -0.2313 
     17 C17       -55.0588  -30.3051   11.5554 C.3       14 UNK        -0.0915 
     18 CA        -54.8243  -30.2545   13.0870 C.3       13 UNK         0.0968 
     19 C         -53.3222  -30.3699   13.4718 C.2       13 UNK         0.5732 
     20 N         -52.7377  -29.4082   14.1728 N.am      13 UNK        -0.7310 
     21 O         -52.6777  -31.3612   13.1390 O.2       13 UNK        -0.5035 
     22 N         -55.5529  -29.1441   13.7193 N.am      13 UNK        -0.4233 
     23 C         -55.9759  -29.1447   14.9892 C.2       13 UNK         0.4989 
     24 O         -55.7847  -30.0768   15.7727 O.2       13 UNK        -0.4996 
     25 CA        -56.7348  -27.8899   15.4617 C.3       12 UNK         0.0216 
     26 CB        -57.4174  -28.0905   16.8285 C.3       12 UNK        -0.1964 
     27 N         -55.8526  -26.7262   15.5441 N.am      12 UNK        -0.4276 
     28 C         -55.4119  -26.0105   14.5022 C.2       12 UNK         0.5020 
     29 O         -55.7237  -26.2521   13.3359 O.2       12 UNK        -0.5489 
     30 CA        -54.4639  -24.8366   14.8081 C.3       11 UNK         0.0294 
     31 CB        -55.2357  -23.5077   14.8009 C.3       11 UNK        -0.2019 
     32 N         -53.7396  -24.9696   16.0793 N.am      11 UNK        -0.4493 
     33 C         -52.7872  -25.8789   16.3223 C.2       11 UNK         0.4932 
     34 O         -52.4000  -26.7077   15.4919 O.2       11 UNK        -0.5029 
     35 CA        -52.1835  -25.8742   17.7330 C.3       10 UNK         0.0280 
     36 CB        -53.1660  -26.4674   18.7582 C.3       10 UNK        -0.1976 
     37 N         -50.9686  -26.6791   17.7054 N.am      10 UNK        -0.4242 
     38 C         -49.8276  -26.4380   18.3612 C.2       10 UNK         0.5072 
     39 O         -49.6883  -25.5391   19.1918 O.2       10 UNK        -0.5224 
     40 CA        -48.6293  -27.3515   18.0241 C.3       9 UNK         0.0343 
     41 CB        -48.4691  -28.4454   19.0925 C.3       9 UNK        -0.2003 
     42 N         -48.7433  -27.9813   16.7022 N.am      9 UNK        -0.4272 
     43 C         -48.6537  -27.3199   15.5390 C.2       9 UNK         0.4988 
     44 O         -48.3167  -26.1381   15.4553 O.2       9 UNK        -0.5108 
     45 CA        -49.0731  -28.0646   14.2620 C.3       8 UNK         0.0248 
     46 CB        -49.4255  -29.5525   14.4720 C.3       8 UNK        -0.2001 
     47 N         -50.2262  -27.3404   13.7323 N.am      8 UNK        -0.4140 
     48 C         -50.3060  -26.7967   12.5161 C.2       8 UNK         0.5028 
     49 O         -49.5232  -27.0373   11.5899 O.2       8 UNK        -0.5428 
     50 CA        -51.4357  -25.7784   12.3243 C.3       7 UNK         0.0264 
     51 CB        -51.1032  -24.4710   13.0741 C.3       7 UNK        -0.1988 
     52 N         -51.5782  -25.4959   10.9043 N.am      7 UNK        -0.4454 
     53 C         -52.6108  -24.9069   10.2967 C.2       7 UNK         0.5027 
     54 O         -53.6260  -24.5304   10.8848 O.2       7 UNK        -0.5083 
     55 CA        -52.4574  -24.6680    8.7771 C.3       6 UNK         0.0844 
     56 C56       -53.8002  -24.2875    8.1006 C.3       14 UNK        -0.0967 
     57 S57       -53.6420  -24.1947    6.2824 S.3       14 UNK        -0.2604 
     58 C58       -54.4832  -25.7176    5.7442 C.3       14 UNK         0.0134 
     59 N         -51.4165  -23.6748    8.4788 N.am      6 UNK        -0.4116 
     60 C         -50.0970  -23.8506    8.6109 C.2       5 UNK         0.5034 
     61 O         -49.5830  -24.8580    9.0999 O.2       5 UNK        -0.5045 
     62 CA        -49.1945  -22.7105    8.1242 C.3       5 UNK         0.0224 
     63 CB        -48.8026  -21.7940    9.2942 C.3       5 UNK        -0.1978 
     64 N         -47.9881  -23.2920    7.5361 N.am      5 UNK        -0.4737 
     65 C         -47.8596  -23.6099    6.2399 C.2       4 UNK         0.5027 
     66 O         -48.6918  -23.2958    5.3878 O.2       4 UNK        -0.5211 
     67 CA        -46.6351  -24.4482    5.8110 C.3       4 UNK         0.0297 
     68 CB        -46.0540  -23.9934    4.4552 C.3       4 UNK        -0.1993 
     69 N         -45.5886  -24.5610    6.8339 N.am      4 UNK        -0.4486 
     70 C         -44.8052  -23.5843    7.3203 C.2       3 UNK         0.4961 
     71 O         -44.8022  -22.4291    6.8926 O.2       3 UNK        -0.5105 
     72 CA        -43.8841  -23.9630    8.5021 C.3       3 UNK         0.0299 
     73 CB        -43.5226  -22.7482    9.3836 C.3       3 UNK        -0.1972 
     74 N         -44.4107  -25.0607    9.3273 N.am      3 UNK        -0.4305 
     75 C         -45.5897  -25.0903    9.9673 C.2       2 UNK         0.5006 
     76 O         -46.3884  -24.1537    9.9898 O.2       2 UNK        -0.5106 
     77 CA        -45.9566  -26.4167   10.6505 C.3       2 UNK         0.0296 
     78 CB        -46.2353  -26.2061   12.1472 C.3       2 UNK        -0.2002 
     79 N         -47.1118  -27.0598   10.0148 N.am      2 UNK        -0.4032 
     80 C         -47.1591  -27.4623    8.7319 C.2       1 UNK         0.5000 
     81 O         -46.2194  -27.3083    7.9465 O.2       1 UNK        -0.5238 
     82 H82       -50.1003  -30.9489   11.3051 H         1 UNK         0.0889 
     83 H83       -51.5178  -30.7327   10.2785 H         1 UNK         0.0889 
     84 H84       -50.8786  -29.3679   11.1822 H         1 UNK         0.0889 
     85 H85       -49.4841  -28.0135   10.0568 H         1 UNK         0.3028 
     86 H86       -48.0456  -29.0235    7.6530 H         1 UNK         0.0864 
     87 H87       -50.2656  -27.0992    7.6496 H         1 UNK         0.0720 
     88 H88       -48.8262  -26.2791    7.1711 H         1 UNK         0.0720 
     89 H89       -50.9209  -29.5103    4.6696 H         1 UNK         0.0814 
     90 H90       -50.3475  -29.9787    6.2473 H         1 UNK         0.0814 
     91 H91       -52.1510  -26.8955    4.9480 H         1 UNK         0.1469 
     92 H92       -55.3704  -27.3391    7.7510 H         1 UNK         0.1381 
     93 H93       -52.1758  -30.1892    7.6960 H         1 UNK         0.1206 
     94 H94       -54.1931  -30.6816    8.8990 H         1 UNK         0.0813 
     95 H95       -55.6117  -29.6808    8.7264 H         1 UNK         0.0813 
     96 H96       -56.1296  -30.2874   11.3465 H         1 UNK         0.0638 
     97 H97       -54.7015  -31.2619   11.1702 H         1 UNK         0.0638 
     98 H98       -55.2707  -31.1713   13.4772 H         1 UNK         0.0568 
     99 H99       -51.7650  -29.5095   14.4009 H         1 UNK         0.3450 
    100 H100      -53.2427  -28.5877   14.4702 H         1 UNK         0.3450 
    101 H101      -55.6735  -28.3003   13.1682 H         1 UNK         0.2987 
    102 H102      -57.5178  -27.6866   14.7277 H         1 UNK         0.0766 
    103 H103      -58.0985  -28.9422   16.8031 H         1 UNK         0.0798 
    104 H104      -58.0059  -27.2170   17.1100 H         1 UNK         0.0798 
    105 H105      -56.6922  -28.2764   17.6219 H         1 UNK         0.0798 
    106 H106      -55.5262  -26.4701   16.4638 H         1 UNK         0.3198 
    107 H107      -53.7337  -24.8026   14.0002 H         1 UNK         0.0843 
    108 H108      -55.9831  -23.4677   15.5943 H         1 UNK         0.0831 
    109 H109      -55.7582  -23.3680   13.8532 H         1 UNK         0.0831 
    110 H110      -54.5645  -22.6576   14.9246 H         1 UNK         0.0831 
    111 H111      -53.9899  -24.3205   16.8124 H         1 UNK         0.3133 
    112 H112      -51.9414  -24.8437   18.0010 H         1 UNK         0.0566 
    113 H113      -53.4586  -27.4850   18.4947 H         1 UNK         0.0814 
    114 H114      -54.0763  -25.8711   18.8280 H         1 UNK         0.0814 
    115 H115      -52.7250  -26.4963   19.7548 H         1 UNK         0.0814 
    116 H116      -50.9802  -27.4081   17.0056 H         1 UNK         0.3091 
    117 H117      -47.7306  -26.7308   18.0315 H         1 UNK         0.0702 
    118 H118      -47.5868  -29.0577   18.9049 H         1 UNK         0.0785 
    119 H119      -49.3365  -29.1057   19.1294 H         1 UNK         0.0785 
    120 H120      -48.3516  -28.0067   20.0845 H         1 UNK         0.0785 
    121 H121      -48.9994  -28.9581   16.6854 H         1 UNK         0.2998 
    122 H122      -48.2363  -28.0084   13.5657 H         1 UNK         0.0697 
    123 H123      -50.2022  -29.7019   15.2215 H         1 UNK         0.0825 
    124 H124      -48.5480  -30.1173   14.7898 H         1 UNK         0.0825 
    125 H125      -49.7689  -30.0063   13.5428 H         1 UNK         0.0825 
    126 H126      -50.9287  -27.0616   14.4146 H         1 UNK         0.3029 
    127 H127      -52.3656  -26.2140   12.6957 H         1 UNK         0.0897 
    128 H128      -50.1672  -24.0376   12.7187 H         1 UNK         0.0792 
    129 H129      -50.9936  -24.6417   14.1453 H         1 UNK         0.0792 
    130 H130      -51.8832  -23.7207   12.9461 H         1 UNK         0.0792 
    131 H131      -50.7449  -25.6964   10.3526 H         1 UNK         0.3086 
    132 H132      -52.1369  -25.6207    8.3495 H         1 UNK         0.0583 
    133 H133      -54.5822  -25.0024    8.3614 H         1 UNK         0.1020 
    134 H134      -54.1520  -23.3205    8.4652 H         1 UNK         0.1020 
    135 H135      -55.5330  -25.6695    6.0380 H         1 UNK         0.0694 
    136 H136      -54.4749  -25.7575    4.6540 H         1 UNK         0.0694 
    137 H137      -51.7511  -22.8086    8.0838 H         1 UNK         0.2989 
    138 H138      -49.7260  -22.1165    7.3772 H         1 UNK         0.1055 
    139 H139      -48.3295  -22.3507   10.1041 H         1 UNK         0.0806 
    140 H140      -49.6797  -21.2981    9.7116 H         1 UNK         0.0806 
    141 H141      -48.1097  -21.0158    8.9739 H         1 UNK         0.0806 
    142 H142      -47.3043  -23.6381    8.2025 H         1 UNK         0.3061 
    143 H143      -47.0114  -25.4629    5.6731 H         1 UNK         0.0734 
    144 H144      -45.7356  -22.9510    4.4775 H         1 UNK         0.0832 
    145 H145      -45.1976  -24.6018    4.1650 H         1 UNK         0.0832 
    146 H146      -46.7971  -24.0851    3.6622 H         1 UNK         0.0832 
    147 H147      -45.5334  -25.4738    7.2778 H         1 UNK         0.3156 
    148 H148      -42.9602  -24.3336    8.0559 H         1 UNK         0.0589 
    149 H149      -42.8657  -23.0344   10.2048 H         1 UNK         0.0808 
    150 H150      -43.0006  -21.9848    8.8052 H         1 UNK         0.0808 
    151 H151      -44.4104  -22.2807    9.8110 H         1 UNK         0.0808 
    152 H152      -43.8444  -25.8984    9.3435 H         1 UNK         0.3098 
    153 H153      -45.1104  -27.1012   10.5635 H         1 UNK         0.0720 
    154 H154      -47.1562  -25.6447   12.3128 H         1 UNK         0.0791 
    155 H155      -45.4255  -25.6526   12.6243 H         1 UNK         0.0791 
    156 H156      -46.3195  -27.1593   12.6667 H         1 UNK         0.0791 
    157 H157      -47.9504  -27.1252   10.5861 H         1 UNK         0.3028 
@<TRIPOS>BOND
     1    1    2 1    
     2    1   82 1    
     3    1   83 1    
     4    1   84 1    
     5    2    3 2    
     6    2    4 am   BACKBONE|DICT|INTERRES
     7    4    5 1    
     8    4   85 1    
     9    5    6 1    
    10    5   80 1    
    11    5   86 1    
    12    6    7 1    
    13    6   87 1    
    14    6   88 1    
    15    7    8 1    
    16    8    9 1    
    17    8   89 1    
    18    8   90 1    
    19    9   10 ar   
    20    9   14 ar   
    21   10   11 ar   
    22   10   91 1    
    23   11   12 ar   
    24   11   58 1    
    25   12   13 ar   
    26   12   92 1    
    27   13   14 ar   
    28   13   15 1    
    29   14   93 1    
    30   15   16 1    
    31   15   94 1    
    32   15   95 1    
    33   16   17 1    
    34   17   18 1    
    35   17   96 1    
    36   17   97 1    
    37   18   19 1    
    38   18   22 1    
    39   18   98 1    
    40   19   20 am   BACKBONE|DICT|INTERRES
    41   19   21 2    
    42   20   99 1    
    43   20  100 1    
    44   22   23 am   BACKBONE|DICT|INTERRES
    45   22  101 1    
    46   23   24 2    
    47   23   25 1    
    48   25   26 1    
    49   25   27 1    
    50   25  102 1    
    51   26  103 1    
    52   26  104 1    
    53   26  105 1    
    54   27   28 am   BACKBONE|DICT|INTERRES
    55   27  106 1    
    56   28   29 2    
    57   28   30 1    
    58   30   31 1    
    59   30   32 1    
    60   30  107 1    
    61   31  108 1    
    62   31  109 1    
    63   31  110 1    
    64   32   33 am   BACKBONE|DICT|INTERRES
    65   32  111 1    
    66   33   34 2    
    67   33   35 1    
    68   35   36 1    
    69   35   37 1    
    70   35  112 1    
    71   36  113 1    
    72   36  114 1    
    73   36  115 1    
    74   37   38 am   BACKBONE|DICT|INTERRES
    75   37  116 1    
    76   38   39 2    
    77   38   40 1    
    78   40   41 1    
    79   40   42 1    
    80   40  117 1    
    81   41  118 1    
    82   41  119 1    
    83   41  120 1    
    84   42   43 am   BACKBONE|DICT|INTERRES
    85   42  121 1    
    86   43   44 2    
    87   43   45 1    
    88   45   46 1    
    89   45   47 1    
    90   45  122 1    
    91   46  123 1    
    92   46  124 1    
    93   46  125 1    
    94   47   48 am   BACKBONE|DICT|INTERRES
    95   47  126 1    
    96   48   49 2    
    97   48   50 1    
    98   50   51 1    
    99   50   52 1    
   100   50  127 1    
   101   51  128 1    
   102   51  129 1    
   103   51  130 1    
   104   52   53 am   BACKBONE|DICT|INTERRES
   105   52  131 1    
   106   53   54 2    
   107   53   55 1    
   108   55   56 1    
   109   55   59 1    
   110   55  132 1    
   111   56   57 1    
   112   56  133 1    
   113   56  134 1    
   114   57   58 1    
   115   58  135 1    
   116   58  136 1    
   117   59   60 am   BACKBONE|DICT|INTERRES
   118   59  137 1    
   119   60   61 2    
   120   60   62 1    
   121   62   63 1    
   122   62   64 1    
   123   62  138 1    
   124   63  139 1    
   125   63  140 1    
   126   63  141 1    
   127   64   65 am   BACKBONE|DICT|INTERRES
   128   64  142 1    
   129   65   66 2    
   130   65   67 1    
   131   67   68 1    
   132   67   69 1    
   133   67  143 1    
   134   68  144 1    
   135   68  145 1    
   136   68  146 1    
   137   69   70 am   BACKBONE|DICT|INTERRES
   138   69  147 1    
   139   70   71 2    
   140   70   72 1    
   141   72   73 1    
   142   72   74 1    
   143   72  148 1    
   144   73  149 1    
   145   73  150 1    
   146   73  151 1    
   147   74   75 am   BACKBONE|DICT|INTERRES
   148   74  152 1    
   149   75   76 2    
   150   75   77 1    
   151   77   78 1    
   152   77   79 1    
   153   77  153 1    
   154   78  154 1    
   155   78  155 1    
   156   78  156 1    
   157   79   80 am   BACKBONE|DICT|INTERRES
   158   79  157 1    
   159   80   81 2    
@<TRIPOS>SUBSTRUCTURE
     1 UNK         1 GROUP             0       ****    0 ROOT    
