@<TRIPOS>MOLECULE
3R207
157   159    1
SMALL
USER_CHARGES


@<TRIPOS>ATOM
      1 CA        -47.5066  -28.3930   10.9886 C.3       0 UNK        -0.1975 
      2 C         -47.6888  -28.6146    9.4961 C.2       0 UNK         0.4852 
      3 O         -47.1077  -29.5465    8.9385 O.2       0 UNK        -0.5216 
      4 N         -48.5081  -27.7779    8.8501 N.am      1 UNK        -0.4461 
      5 CA        -48.8843  -27.9156    7.4418 C.3       1 UNK         0.0864 
      6 C6        -50.2781  -27.3082    7.1472 C.3       14 UNK        -0.0898 
      7 S7        -51.5750  -28.0219    8.2042 S.3       14 UNK        -0.2598 
      8 C8        -53.0727  -27.4037    7.3802 C.3       14 UNK         0.0286 
      9 C9        -54.1607  -27.1463    8.4075 C.ar      14 UNK        -0.0844 
     10 C10       -54.4882  -25.8401    8.7751 C.ar      14 UNK        -0.0881 
     11 C11       -55.4478  -25.6037    9.7616 C.ar      14 UNK        -0.0643 
     12 C12       -56.0755  -26.6877   10.3837 C.ar      14 UNK        -0.0930 
     13 C13       -55.7640  -28.0035   10.0237 C.ar      14 UNK        -0.0827 
     14 C14       -54.8167  -28.2195    9.0141 C.ar      14 UNK        -0.1249 
     15 C15       -56.4800  -29.1415   10.7565 C.3       14 UNK         0.0141 
     16 S16       -55.9139  -30.8436   10.3927 S.3       14 UNK        -0.2313 
     17 C17       -54.2040  -30.8652   11.0375 C.3       14 UNK        -0.0915 
     18 CA        -54.1266  -31.4014   12.4894 C.3       13 UNK         0.0968 
     19 C         -52.6816  -31.8338   12.8704 C.2       13 UNK         0.5732 
     20 N         -52.0328  -31.2244   13.8565 N.am      13 UNK        -0.7310 
     21 O         -52.1443  -32.7619   12.2708 O.2       13 UNK        -0.5035 
     22 N         -54.7137  -30.4403   13.4317 N.am      13 UNK        -0.4233 
     23 C         -55.4558  -30.7612   14.4964 C.2       13 UNK         0.4989 
     24 O         -55.7785  -31.9148   14.7842 O.2       13 UNK        -0.4996 
     25 CA        -55.9183  -29.6092   15.4036 C.3       12 UNK         0.0216 
     26 CB        -55.4199  -29.8242   16.8439 C.3       12 UNK        -0.1964 
     27 N         -55.4329  -28.3052   14.9451 N.am      12 UNK        -0.4276 
     28 C         -56.1888  -27.3089   14.4629 C.2       12 UNK         0.5020 
     29 O         -57.3913  -27.4286   14.2233 O.2       12 UNK        -0.5489 
     30 CA        -55.4964  -25.9498   14.1982 C.3       11 UNK         0.0294 
     31 CB        -56.4114  -24.7566   14.5430 C.3       11 UNK        -0.2019 
     32 N         -54.1852  -25.8013   14.8465 N.am      11 UNK        -0.4493 
     33 C         -53.9038  -25.9056   16.1558 C.2       11 UNK         0.4932 
     34 O         -54.7613  -25.9592   17.0383 O.2       11 UNK        -0.5029 
     35 CA        -52.4156  -26.0409   16.5380 C.3       10 UNK         0.0280 
     36 CB        -52.2143  -26.9215   17.7890 C.3       10 UNK        -0.1976 
     37 N         -51.5579  -26.5182   15.4445 N.am      10 UNK        -0.4242 
     38 C         -51.6552  -27.6601   14.7398 C.2       10 UNK         0.5072 
     39 O         -52.5366  -28.5042   14.9236 O.2       10 UNK        -0.5224 
     40 CA        -50.6395  -27.8866   13.5997 C.3       9 UNK         0.0343 
     41 CB        -51.3529  -27.9550   12.2380 C.3       9 UNK        -0.2003 
     42 N         -49.6050  -26.8518   13.5402 N.am      9 UNK        -0.4272 
     43 C         -48.5341  -26.7956   14.3450 C.2       9 UNK         0.4988 
     44 O         -48.2363  -27.6770   15.1508 O.2       9 UNK        -0.5108 
     45 CA        -47.6691  -25.5255   14.2680 C.3       8 UNK         0.0248 
     46 CB        -46.4515  -25.7475   13.3672 C.3       8 UNK        -0.2001 
     47 N         -48.4094  -24.3478   13.8034 N.am      8 UNK        -0.4140 
     48 C         -49.3422  -23.7242   14.5362 C.2       8 UNK         0.5028 
     49 O         -49.6622  -24.0711   15.6731 O.2       8 UNK        -0.5428 
     50 CA        -50.0806  -22.5541   13.8715 C.3       7 UNK         0.0264 
     51 CB        -49.1699  -21.3201   13.7622 C.3       7 UNK        -0.1988 
     52 N         -50.6181  -22.8874   12.5508 N.am      7 UNK        -0.4454 
     53 C         -51.5238  -23.8461   12.2970 C.2       7 UNK         0.5027 
     54 O         -51.9776  -24.6063   13.1533 O.2       7 UNK        -0.5083 
     55 CA        -52.0010  -23.9803   10.8341 C.3       6 UNK         0.0844 
     56 C56       -53.2241  -23.0655   10.5564 C.3       14 UNK        -0.0967 
     57 S57       -54.7404  -23.5308   11.4628 S.3       14 UNK        -0.2604 
     58 C58       -55.8165  -24.1794   10.1471 C.3       14 UNK         0.0134 
     59 N         -50.9319  -23.6957    9.8714 N.am      6 UNK        -0.4116 
     60 C         -49.7785  -24.3626    9.7204 C.2       5 UNK         0.5034 
     61 O         -49.4767  -25.3796   10.3518 O.2       5 UNK        -0.5045 
     62 CA        -48.8309  -23.7945    8.6429 C.3       5 UNK         0.0224 
     63 CB        -48.8446  -22.2487    8.5755 C.3       5 UNK        -0.1978 
     64 N         -47.4478  -24.2759    8.7321 N.am      5 UNK        -0.4737 
     65 C         -46.5640  -24.0532    9.7168 C.2       4 UNK         0.5027 
     66 O         -46.8493  -23.5099   10.7857 O.2       4 UNK        -0.5211 
     67 CA        -45.0990  -24.4652    9.4557 C.3       4 UNK         0.0297 
     68 CB        -44.7117  -25.7267   10.2384 C.3       4 UNK        -0.1993 
     69 N         -44.7880  -24.6974    8.0445 N.am      4 UNK        -0.4486 
     70 C         -44.6189  -23.7582    7.1081 C.2       3 UNK         0.4961 
     71 O         -44.7376  -22.5518    7.3232 O.2       3 UNK        -0.5105 
     72 CA        -44.2494  -24.2358    5.6885 C.3       3 UNK         0.0299 
     73 CB        -42.7228  -24.3853    5.5392 C.3       3 UNK        -0.1972 
     74 N         -44.9551  -25.4456    5.2340 N.am      3 UNK        -0.4305 
     75 C         -44.8855  -26.6984    5.7084 C.2       2 UNK         0.5006 
     76 O         -44.1615  -27.0502    6.6419 O.2       2 UNK        -0.5106 
     77 CA        -45.8412  -27.7202    5.0696 C.3       2 UNK         0.0296 
     78 CB        -45.0813  -28.9750    4.6068 C.3       2 UNK        -0.2002 
     79 N         -46.9161  -28.1150    5.9858 N.am      2 UNK        -0.4032 
     80 C         -47.8015  -27.2818    6.5517 C.2       1 UNK         0.5000 
     81 O         -47.7898  -26.0583    6.3966 O.2       1 UNK        -0.5238 
     82 H82       -48.0062  -27.4826   11.3132 H         1 UNK         0.0889 
     83 H83       -46.4500  -28.3199   11.2421 H         1 UNK         0.0889 
     84 H84       -47.9334  -29.2268   11.5454 H         1 UNK         0.0889 
     85 H85       -48.9377  -27.0049    9.3511 H         1 UNK         0.3028 
     86 H86       -48.9456  -28.9792    7.1992 H         1 UNK         0.0864 
     87 H87       -50.5490  -27.4761    6.1029 H         1 UNK         0.0720 
     88 H88       -50.2812  -26.2287    7.2987 H         1 UNK         0.0720 
     89 H89       -53.4135  -28.1347    6.6456 H         1 UNK         0.0814 
     90 H90       -52.8471  -26.4896    6.8289 H         1 UNK         0.0814 
     91 H91       -53.9895  -25.0082    8.2987 H         1 UNK         0.1469 
     92 H92       -56.8140  -26.5051   11.1529 H         1 UNK         0.1381 
     93 H93       -54.5524  -29.2210    8.7077 H         1 UNK         0.1206 
     94 H94       -56.4153  -28.9740   11.8313 H         1 UNK         0.0813 
     95 H95       -57.5407  -29.0871   10.5082 H         1 UNK         0.0813 
     96 H96       -53.6279  -31.4985   10.3604 H         1 UNK         0.0638 
     97 H97       -53.7597  -29.8722   10.9681 H         1 UNK         0.0638 
     98 H98       -54.7099  -32.3236   12.5218 H         1 UNK         0.0568 
     99 H99       -51.1075  -31.5405   14.0959 H         1 UNK         0.3450 
    100 H100      -52.4367  -30.4327   14.3423 H         1 UNK         0.3450 
    101 H101      -54.4693  -29.4724   13.2920 H         1 UNK         0.2987 
    102 H102      -57.0099  -29.6268   15.4117 H         1 UNK         0.0766 
    103 H103      -55.7550  -29.0218   17.5017 H         1 UNK         0.0798 
    104 H104      -54.3305  -29.8606   16.8910 H         1 UNK         0.0798 
    105 H105      -55.7976  -30.7603   17.2574 H         1 UNK         0.0798 
    106 H106      -54.4374  -28.1397   15.0754 H         1 UNK         0.3198 
    107 H107      -55.2992  -25.9217   13.1266 H         1 UNK         0.0843 
    108 H108      -56.7212  -24.7731   15.5882 H         1 UNK         0.0831 
    109 H109      -57.3164  -24.7695   13.9345 H         1 UNK         0.0831 
    110 H110      -55.9118  -23.8064   14.3554 H         1 UNK         0.0831 
    111 H111      -53.3984  -25.6693   14.2164 H         1 UNK         0.3133 
    112 H112      -52.0711  -25.0341   16.7772 H         1 UNK         0.0566 
    113 H113      -52.5964  -27.9315   17.6367 H         1 UNK         0.0814 
    114 H114      -51.1596  -26.9982   18.0535 H         1 UNK         0.0814 
    115 H115      -52.7328  -26.5040   18.6529 H         1 UNK         0.0814 
    116 H116      -50.8301  -25.8659   15.1772 H         1 UNK         0.3091 
    117 H117      -50.1602  -28.8510   13.7791 H         1 UNK         0.0702 
    118 H118      -52.0712  -28.7731   12.2153 H         1 UNK         0.0785 
    119 H119      -51.9007  -27.0397   12.0163 H         1 UNK         0.0785 
    120 H120      -50.6479  -28.1256   11.4242 H         1 UNK         0.0785 
    121 H121      -49.7703  -26.0871   12.8995 H         1 UNK         0.2998 
    122 H122      -47.3057  -25.3221   15.2778 H         1 UNK         0.0697 
    123 H123      -46.7515  -25.8572   12.3267 H         1 UNK         0.0825 
    124 H124      -45.9015  -26.6453   13.6532 H         1 UNK         0.0825 
    125 H125      -45.7600  -24.9069   13.4291 H         1 UNK         0.0825 
    126 H126      -48.2021  -24.0099   12.8714 H         1 UNK         0.3029 
    127 H127      -50.9267  -22.2967   14.5127 H         1 UNK         0.0897 
    128 H128      -48.3298  -21.4917   13.0875 H         1 UNK         0.0792 
    129 H129      -48.7568  -21.0528   14.7360 H         1 UNK         0.0792 
    130 H130      -49.7202  -20.4522   13.3981 H         1 UNK         0.0792 
    131 H131      -50.2956  -22.3222   11.7796 H         1 UNK         0.3086 
    132 H132      -52.3014  -25.0186   10.6787 H         1 UNK         0.0583 
    133 H133      -52.9909  -22.0286   10.8067 H         1 UNK         0.1020 
    134 H134      -53.4481  -23.0552    9.4895 H         1 UNK         0.1020 
    135 H135      -56.8482  -24.1510   10.5012 H         1 UNK         0.0694 
    136 H136      -55.7816  -23.5237    9.2758 H         1 UNK         0.0694 
    137 H137      -51.0796  -22.8893    9.2830 H         1 UNK         0.2989 
    138 H138      -49.2071  -24.1628    7.6881 H         1 UNK         0.1055 
    139 H139      -49.8115  -21.8624    8.2521 H         1 UNK         0.0806 
    140 H140      -48.1099  -21.8822    7.8578 H         1 UNK         0.0806 
    141 H141      -48.6116  -21.7974    9.5410 H         1 UNK         0.0806 
    142 H142      -47.1319  -24.7914    7.9174 H         1 UNK         0.3061 
    143 H143      -44.4669  -23.6454    9.8035 H         1 UNK         0.0734 
    144 H144      -43.7087  -26.0660    9.9782 H         1 UNK         0.0832 
    145 H145      -44.7033  -25.5302   11.3082 H         1 UNK         0.0832 
    146 H146      -45.4013  -26.5470   10.0442 H         1 UNK         0.0832 
    147 H147      -44.6297  -25.6606    7.7552 H         1 UNK         0.3156 
    148 H148      -44.5655  -23.4444    5.0068 H         1 UNK         0.0589 
    149 H149      -42.3192  -25.1512    6.2022 H         1 UNK         0.0808 
    150 H150      -42.4479  -24.6474    4.5175 H         1 UNK         0.0808 
    151 H151      -42.2158  -23.4502    5.7812 H         1 UNK         0.0808 
    152 H152      -45.6427  -25.2746    4.5125 H         1 UNK         0.3098 
    153 H153      -46.3063  -27.2669    4.1918 H         1 UNK         0.0720 
    154 H154      -45.7391  -29.6673    4.0808 H         1 UNK         0.0791 
    155 H155      -44.6333  -29.5092    5.4460 H         1 UNK         0.0791 
    156 H156      -44.2748  -28.7117    3.9209 H         1 UNK         0.0791 
    157 H157      -46.9568  -29.0936    6.2339 H         1 UNK         0.3028 
@<TRIPOS>BOND
     1    1    2 1    
     2    1   82 1    
     3    1   83 1    
     4    1   84 1    
     5    2    3 2    
     6    2    4 am   BACKBONE|DICT|INTERRES
     7    4    5 1    
     8    4   85 1    
     9    5    6 1    
    10    5   80 1    
    11    5   86 1    
    12    6    7 1    
    13    6   87 1    
    14    6   88 1    
    15    7    8 1    
    16    8    9 1    
    17    8   89 1    
    18    8   90 1    
    19    9   10 ar   
    20    9   14 ar   
    21   10   11 ar   
    22   10   91 1    
    23   11   12 ar   
    24   11   58 1    
    25   12   13 ar   
    26   12   92 1    
    27   13   14 ar   
    28   13   15 1    
    29   14   93 1    
    30   15   16 1    
    31   15   94 1    
    32   15   95 1    
    33   16   17 1    
    34   17   18 1    
    35   17   96 1    
    36   17   97 1    
    37   18   19 1    
    38   18   22 1    
    39   18   98 1    
    40   19   20 am   BACKBONE|DICT|INTERRES
    41   19   21 2    
    42   20   99 1    
    43   20  100 1    
    44   22   23 am   BACKBONE|DICT|INTERRES
    45   22  101 1    
    46   23   24 2    
    47   23   25 1    
    48   25   26 1    
    49   25   27 1    
    50   25  102 1    
    51   26  103 1    
    52   26  104 1    
    53   26  105 1    
    54   27   28 am   BACKBONE|DICT|INTERRES
    55   27  106 1    
    56   28   29 2    
    57   28   30 1    
    58   30   31 1    
    59   30   32 1    
    60   30  107 1    
    61   31  108 1    
    62   31  109 1    
    63   31  110 1    
    64   32   33 am   BACKBONE|DICT|INTERRES
    65   32  111 1    
    66   33   34 2    
    67   33   35 1    
    68   35   36 1    
    69   35   37 1    
    70   35  112 1    
    71   36  113 1    
    72   36  114 1    
    73   36  115 1    
    74   37   38 am   BACKBONE|DICT|INTERRES
    75   37  116 1    
    76   38   39 2    
    77   38   40 1    
    78   40   41 1    
    79   40   42 1    
    80   40  117 1    
    81   41  118 1    
    82   41  119 1    
    83   41  120 1    
    84   42   43 am   BACKBONE|DICT|INTERRES
    85   42  121 1    
    86   43   44 2    
    87   43   45 1    
    88   45   46 1    
    89   45   47 1    
    90   45  122 1    
    91   46  123 1    
    92   46  124 1    
    93   46  125 1    
    94   47   48 am   BACKBONE|DICT|INTERRES
    95   47  126 1    
    96   48   49 2    
    97   48   50 1    
    98   50   51 1    
    99   50   52 1    
   100   50  127 1    
   101   51  128 1    
   102   51  129 1    
   103   51  130 1    
   104   52   53 am   BACKBONE|DICT|INTERRES
   105   52  131 1    
   106   53   54 2    
   107   53   55 1    
   108   55   56 1    
   109   55   59 1    
   110   55  132 1    
   111   56   57 1    
   112   56  133 1    
   113   56  134 1    
   114   57   58 1    
   115   58  135 1    
   116   58  136 1    
   117   59   60 am   BACKBONE|DICT|INTERRES
   118   59  137 1    
   119   60   61 2    
   120   60   62 1    
   121   62   63 1    
   122   62   64 1    
   123   62  138 1    
   124   63  139 1    
   125   63  140 1    
   126   63  141 1    
   127   64   65 am   BACKBONE|DICT|INTERRES
   128   64  142 1    
   129   65   66 2    
   130   65   67 1    
   131   67   68 1    
   132   67   69 1    
   133   67  143 1    
   134   68  144 1    
   135   68  145 1    
   136   68  146 1    
   137   69   70 am   BACKBONE|DICT|INTERRES
   138   69  147 1    
   139   70   71 2    
   140   70   72 1    
   141   72   73 1    
   142   72   74 1    
   143   72  148 1    
   144   73  149 1    
   145   73  150 1    
   146   73  151 1    
   147   74   75 am   BACKBONE|DICT|INTERRES
   148   74  152 1    
   149   75   76 2    
   150   75   77 1    
   151   77   78 1    
   152   77   79 1    
   153   77  153 1    
   154   78  154 1    
   155   78  155 1    
   156   78  156 1    
   157   79   80 am   BACKBONE|DICT|INTERRES
   158   79  157 1    
   159   80   81 2    
@<TRIPOS>SUBSTRUCTURE
     1 UNK         1 GROUP             0       ****    0 ROOT    
