@<TRIPOS>MOLECULE
3R207
157   159    1
SMALL
USER_CHARGES


@<TRIPOS>ATOM
      1 CA        -47.6441  -28.6097    6.2587 C.3       0 UNK        -0.1975 
      2 C         -48.3819  -27.3538    5.8281 C.2       0 UNK         0.4852 
      3 O         -47.7542  -26.3768    5.4152 O.2       0 UNK        -0.5216 
      4 N         -49.7173  -27.3790    5.9261 N.am      1 UNK        -0.4461 
      5 CA        -50.6730  -26.3852    5.4189 C.3       1 UNK         0.0864 
      6 C6        -52.0750  -27.0294    5.2215 C.3       14 UNK        -0.0898 
      7 S7        -52.8740  -27.6314    6.7538 S.3       14 UNK        -0.2598 
      8 C8        -52.3733  -29.3819    6.8544 C.3       14 UNK         0.0286 
      9 C9        -51.8207  -29.7112    8.2366 C.ar      14 UNK        -0.0844 
     10 C10       -50.4691  -30.0281    8.4133 C.ar      14 UNK        -0.0881 
     11 C11       -49.9639  -30.3138    9.6869 C.ar      14 UNK        -0.0643 
     12 C12       -50.8250  -30.3005   10.7865 C.ar      14 UNK        -0.0930 
     13 C13       -52.1758  -29.9844   10.6238 C.ar      14 UNK        -0.0827 
     14 C14       -52.6685  -29.6943    9.3486 C.ar      14 UNK        -0.1249 
     15 C15       -53.0903  -29.9003   11.8329 C.3       14 UNK         0.0141 
     16 S16       -54.2430  -31.3028   11.9133 S.3       14 UNK        -0.2313 
     17 C17       -55.0469  -30.9843   13.5187 C.3       14 UNK        -0.0915 
     18 CA        -56.3535  -30.1601   13.3899 C.3       13 UNK         0.0968 
     19 C         -57.1193  -30.1176   14.7360 C.2       13 UNK         0.5732 
     20 N         -58.3020  -30.7137   14.8026 N.am      13 UNK        -0.7310 
     21 O         -56.6300  -29.5861   15.7308 O.2       13 UNK        -0.5035 
     22 N         -56.0865  -28.7947   12.9262 N.am      13 UNK        -0.4233 
     23 C         -56.9511  -28.0437   12.2341 C.2       13 UNK         0.4989 
     24 O         -58.0491  -28.4525   11.8504 O.2       13 UNK        -0.4996 
     25 CA        -56.5108  -26.6027   11.8939 C.3       12 UNK         0.0216 
     26 CB        -57.6969  -25.6832   11.5321 C.3       12 UNK        -0.1964 
     27 N         -55.6724  -25.9791   12.9246 N.am      12 UNK        -0.4276 
     28 C         -55.9803  -25.7750   14.2134 C.2       12 UNK         0.5020 
     29 O         -57.0629  -26.0613   14.7293 O.2       12 UNK        -0.5489 
     30 CA        -54.8675  -25.1485   15.0722 C.3       11 UNK         0.0294 
     31 CB        -55.4407  -24.1348   16.0788 C.3       11 UNK        -0.2019 
     32 N         -54.0353  -26.1142   15.7999 N.am      11 UNK        -0.4493 
     33 C         -53.5081  -27.2673   15.3600 C.2       11 UNK         0.4932 
     34 O         -53.7296  -27.7783   14.2619 O.2       11 UNK        -0.5029 
     35 CA        -52.4656  -27.8934   16.2944 C.3       10 UNK         0.0280 
     36 CB        -52.1547  -29.3637   15.9641 C.3       10 UNK        -0.1976 
     37 N         -51.2523  -27.0994   16.1358 N.am      10 UNK        -0.4242 
     38 C         -50.8042  -26.1977   17.0175 C.2       10 UNK         0.5072 
     39 O         -51.2613  -26.0561   18.1526 O.2       10 UNK        -0.5224 
     40 CA        -49.6965  -25.2518   16.5253 C.3       9 UNK         0.0343 
     41 CB        -48.3396  -25.9716   16.4707 C.3       9 UNK        -0.2003 
     42 N         -50.0003  -24.6695   15.2150 N.am      9 UNK        -0.4272 
     43 C         -51.0360  -23.8560   14.9521 C.2       9 UNK         0.4988 
     44 O         -51.8347  -23.4640   15.8025 O.2       9 UNK        -0.5108 
     45 CA        -51.2195  -23.4040   13.4962 C.3       8 UNK         0.0248 
     46 CB        -50.3237  -22.1929   13.1871 C.3       8 UNK        -0.2001 
     47 N         -50.9123  -24.4894   12.5657 N.am      8 UNK        -0.4140 
     48 C         -51.8188  -25.3207   12.0336 C.2       8 UNK         0.5028 
     49 O         -53.0349  -25.2117   12.1977 O.2       8 UNK        -0.5428 
     50 CA        -51.2920  -26.4656   11.1518 C.3       7 UNK         0.0264 
     51 CB        -51.4131  -26.0940    9.6689 C.3       7 UNK        -0.1988 
     52 N         -49.9071  -26.8539   11.4209 N.am      7 UNK        -0.4454 
     53 C         -49.4654  -27.4245   12.5493 C.2       7 UNK         0.5027 
     54 O         -50.1803  -27.6831   13.5178 O.2       7 UNK        -0.5083 
     55 CA        -47.9465  -27.6820   12.6381 C.3       6 UNK         0.0844 
     56 C56       -47.5594  -29.0734   12.0731 C.3       14 UNK        -0.0967 
     57 S57       -47.5031  -29.1594   10.2452 S.3       14 UNK        -0.2604 
     58 C58       -48.4903  -30.6444    9.8719 C.3       14 UNK         0.0134 
     59 N         -47.1283  -26.6010   12.0700 N.am      6 UNK        -0.4116 
     60 C         -47.2119  -25.2958   12.3597 C.2       5 UNK         0.5034 
     61 O         -48.0259  -24.8337   13.1596 O.2       5 UNK        -0.5045 
     62 CA        -46.2811  -24.3184   11.6184 C.3       5 UNK         0.0224 
     63 CB        -45.1501  -23.8298   12.5440 C.3       5 UNK        -0.1978 
     64 N         -45.7554  -24.7865   10.3247 N.am      5 UNK        -0.4737 
     65 C         -44.8792  -25.7728   10.0766 C.2       4 UNK         0.5027 
     66 O         -44.4171  -26.4993   10.9556 O.2       4 UNK        -0.5211 
     67 CA        -44.4752  -26.0360    8.6117 C.3       4 UNK         0.0297 
     68 CB        -44.8105  -27.4784    8.2063 C.3       4 UNK        -0.1993 
     69 N         -45.0991  -25.1185    7.6532 N.am      4 UNK        -0.4486 
     70 C         -44.6455  -23.8897    7.3757 C.2       3 UNK         0.4961 
     71 O         -43.6279  -23.4061    7.8722 O.2       3 UNK        -0.5105 
     72 CA        -45.4734  -23.0471    6.3895 C.3       3 UNK         0.0299 
     73 CB        -44.9568  -23.2474    4.9556 C.3       3 UNK        -0.1972 
     74 N         -46.9207  -23.2955    6.4182 N.am      3 UNK        -0.4305 
     75 C         -47.7208  -23.1385    7.4849 C.2       2 UNK         0.5006 
     76 O         -47.3150  -22.8943    8.6208 O.2       2 UNK        -0.5106 
     77 CA        -49.2260  -23.2900    7.2417 C.3       2 UNK         0.0296 
     78 CB        -49.7831  -22.0312    6.5446 C.3       2 UNK        -0.2002 
     79 N         -49.4911  -24.5036    6.4692 N.am      2 UNK        -0.4032 
     80 C         -50.6841  -25.0487    6.2087 C.2       1 UNK         0.5000 
     81 O         -51.7498  -24.5375    6.5575 O.2       1 UNK        -0.5238 
     82 H82       -47.7229  -28.7488    7.3348 H         1 UNK         0.0889 
     83 H83       -46.5893  -28.5472    5.9935 H         1 UNK         0.0889 
     84 H84       -48.0587  -29.4879    5.7644 H         1 UNK         0.0889 
     85 H85       -50.1553  -28.1808    6.3522 H         1 UNK         0.3028 
     86 H86       -50.3261  -26.1087    4.4207 H         1 UNK         0.0864 
     87 H87       -52.0077  -27.8540    4.5102 H         1 UNK         0.0720 
     88 H88       -52.7508  -26.3099    4.7557 H         1 UNK         0.0720 
     89 H89       -51.6457  -29.6212    6.0782 H         1 UNK         0.0814 
     90 H90       -53.2435  -30.0092    6.6557 H         1 UNK         0.0814 
     91 H91       -49.8060  -30.0591    7.5619 H         1 UNK         0.1469 
     92 H92       -50.4405  -30.5179   11.7730 H         1 UNK         0.1381 
     93 H93       -53.7122  -29.4398    9.2234 H         1 UNK         0.1206 
     94 H94       -53.6525  -28.9682   11.7843 H         1 UNK         0.0813 
     95 H95       -52.5028  -29.8560   12.7502 H         1 UNK         0.0813 
     96 H96       -54.3424  -30.4940   14.1905 H         1 UNK         0.0638 
     97 H97       -55.2593  -31.9578   13.9643 H         1 UNK         0.0638 
     98 H98       -56.9823  -30.6625   12.6517 H         1 UNK         0.0568 
     99 H99       -58.8046  -30.7072   15.6763 H         1 UNK         0.3450 
    100 H100      -58.7101  -31.1534   13.9924 H         1 UNK         0.3450 
    101 H101      -55.2379  -28.3659   13.2885 H         1 UNK         0.2987 
    102 H102      -55.8786  -26.6875   11.0088 H         1 UNK         0.0766 
    103 H103      -57.3566  -24.6813   11.2707 H         1 UNK         0.0798 
    104 H104      -58.4037  -25.5931   12.3576 H         1 UNK         0.0798 
    105 H105      -58.2468  -26.0704   10.6734 H         1 UNK         0.0798 
    106 H106      -54.7227  -25.7390   12.6318 H         1 UNK         0.3198 
    107 H107      -54.2020  -24.5944   14.4096 H         1 UNK         0.0843 
    108 H108      -56.0511  -24.6224   16.8399 H         1 UNK         0.0831 
    109 H109      -56.0714  -23.4001   15.5763 H         1 UNK         0.0831 
    110 H110      -54.6467  -23.5845   16.5843 H         1 UNK         0.0831 
    111 H111      -53.7363  -25.8073   16.7147 H         1 UNK         0.3133 
    112 H112      -52.8434  -27.8479   17.3179 H         1 UNK         0.0566 
    113 H113      -51.4041  -29.7679   16.6431 H         1 UNK         0.0814 
    114 H114      -53.0479  -29.9800   16.0656 H         1 UNK         0.0814 
    115 H115      -51.7788  -29.4830   14.9480 H         1 UNK         0.0814 
    116 H116      -50.8291  -27.1404   15.2100 H         1 UNK         0.3091 
    117 H117      -49.6167  -24.4297   17.2396 H         1 UNK         0.0702 
    118 H118      -47.5445  -25.2976   16.1510 H         1 UNK         0.0785 
    119 H119      -48.3586  -26.8169   15.7833 H         1 UNK         0.0785 
    120 H120      -48.0642  -26.3570   17.4532 H         1 UNK         0.0785 
    121 H121      -49.3464  -24.8763   14.4648 H         1 UNK         0.2998 
    122 H122      -52.2587  -23.0924   13.3702 H         1 UNK         0.0697 
    123 H123      -49.2650  -22.4245   13.3096 H         1 UNK         0.0825 
    124 H124      -50.5535  -21.3602   13.8532 H         1 UNK         0.0825 
    125 H125      -50.4729  -21.8413   12.1661 H         1 UNK         0.0825 
    126 H126      -49.9300  -24.6782   12.4074 H         1 UNK         0.3029 
    127 H127      -51.9245  -27.3308   11.3468 H         1 UNK         0.0897 
    128 H128      -52.4493  -25.8824    9.4013 H         1 UNK         0.0792 
    129 H129      -51.0751  -26.9091    9.0295 H         1 UNK         0.0792 
    130 H130      -50.8261  -25.2089    9.4240 H         1 UNK         0.0792 
    131 H131      -49.2391  -26.7021   10.6796 H         1 UNK         0.3086 
    132 H132      -47.7089  -27.6993   13.7027 H         1 UNK         0.0583 
    133 H133      -46.5643  -29.3370   12.4348 H         1 UNK         0.1020 
    134 H134      -48.2181  -29.8467   12.4721 H         1 UNK         0.1020 
    135 H135      -48.0994  -31.0963    8.9590 H         1 UNK         0.0694 
    136 H136      -48.3588  -31.3932   10.6543 H         1 UNK         0.0694 
    137 H137      -46.3860  -26.8861   11.4422 H         1 UNK         0.2989 
    138 H138      -46.8988  -23.4509   11.3786 H         1 UNK         0.1055 
    139 H139      -45.5572  -23.3736   13.4475 H         1 UNK         0.0806 
    140 H140      -44.5329  -23.0779   12.0523 H         1 UNK         0.0806 
    141 H141      -44.4989  -24.6449   12.8609 H         1 UNK         0.0806 
    142 H142      -46.1016  -24.2592    9.5284 H         1 UNK         0.3061 
    143 H143      -43.3907  -25.9191    8.5565 H         1 UNK         0.0734 
    144 H144      -44.4935  -27.6910    7.1853 H         1 UNK         0.0832 
    145 H145      -44.3103  -28.1982    8.8558 H         1 UNK         0.0832 
    146 H146      -45.8795  -27.6665    8.2787 H         1 UNK         0.0832 
    147 H147      -45.9336  -25.4383    7.1813 H         1 UNK         0.3156 
    148 H148      -45.3234  -21.9997    6.6596 H         1 UNK         0.0589 
    149 H149      -45.1243  -24.2671    4.6058 H         1 UNK         0.0808 
    150 H150      -45.4452  -22.5673    4.2574 H         1 UNK         0.0808 
    151 H151      -43.8847  -23.0538    4.8949 H         1 UNK         0.0808 
    152 H152      -47.3489  -23.4976    5.5260 H         1 UNK         0.3098 
    153 H153      -49.7097  -23.3934    8.2148 H         1 UNK         0.0720 
    154 H154      -50.8719  -22.0426    6.5017 H         1 UNK         0.0791 
    155 H155      -49.4105  -21.9339    5.5244 H         1 UNK         0.0791 
    156 H156      -49.4981  -21.1272    7.0847 H         1 UNK         0.0791 
    157 H157      -48.6793  -25.0341    6.1541 H         1 UNK         0.3028 
@<TRIPOS>BOND
     1    1    2 1    
     2    1   82 1    
     3    1   83 1    
     4    1   84 1    
     5    2    3 2    
     6    2    4 am   BACKBONE|DICT|INTERRES
     7    4    5 1    
     8    4   85 1    
     9    5    6 1    
    10    5   80 1    
    11    5   86 1    
    12    6    7 1    
    13    6   87 1    
    14    6   88 1    
    15    7    8 1    
    16    8    9 1    
    17    8   89 1    
    18    8   90 1    
    19    9   10 ar   
    20    9   14 ar   
    21   10   11 ar   
    22   10   91 1    
    23   11   12 ar   
    24   11   58 1    
    25   12   13 ar   
    26   12   92 1    
    27   13   14 ar   
    28   13   15 1    
    29   14   93 1    
    30   15   16 1    
    31   15   94 1    
    32   15   95 1    
    33   16   17 1    
    34   17   18 1    
    35   17   96 1    
    36   17   97 1    
    37   18   19 1    
    38   18   22 1    
    39   18   98 1    
    40   19   20 am   BACKBONE|DICT|INTERRES
    41   19   21 2    
    42   20   99 1    
    43   20  100 1    
    44   22   23 am   BACKBONE|DICT|INTERRES
    45   22  101 1    
    46   23   24 2    
    47   23   25 1    
    48   25   26 1    
    49   25   27 1    
    50   25  102 1    
    51   26  103 1    
    52   26  104 1    
    53   26  105 1    
    54   27   28 am   BACKBONE|DICT|INTERRES
    55   27  106 1    
    56   28   29 2    
    57   28   30 1    
    58   30   31 1    
    59   30   32 1    
    60   30  107 1    
    61   31  108 1    
    62   31  109 1    
    63   31  110 1    
    64   32   33 am   BACKBONE|DICT|INTERRES
    65   32  111 1    
    66   33   34 2    
    67   33   35 1    
    68   35   36 1    
    69   35   37 1    
    70   35  112 1    
    71   36  113 1    
    72   36  114 1    
    73   36  115 1    
    74   37   38 am   BACKBONE|DICT|INTERRES
    75   37  116 1    
    76   38   39 2    
    77   38   40 1    
    78   40   41 1    
    79   40   42 1    
    80   40  117 1    
    81   41  118 1    
    82   41  119 1    
    83   41  120 1    
    84   42   43 am   BACKBONE|DICT|INTERRES
    85   42  121 1    
    86   43   44 2    
    87   43   45 1    
    88   45   46 1    
    89   45   47 1    
    90   45  122 1    
    91   46  123 1    
    92   46  124 1    
    93   46  125 1    
    94   47   48 am   BACKBONE|DICT|INTERRES
    95   47  126 1    
    96   48   49 2    
    97   48   50 1    
    98   50   51 1    
    99   50   52 1    
   100   50  127 1    
   101   51  128 1    
   102   51  129 1    
   103   51  130 1    
   104   52   53 am   BACKBONE|DICT|INTERRES
   105   52  131 1    
   106   53   54 2    
   107   53   55 1    
   108   55   56 1    
   109   55   59 1    
   110   55  132 1    
   111   56   57 1    
   112   56  133 1    
   113   56  134 1    
   114   57   58 1    
   115   58  135 1    
   116   58  136 1    
   117   59   60 am   BACKBONE|DICT|INTERRES
   118   59  137 1    
   119   60   61 2    
   120   60   62 1    
   121   62   63 1    
   122   62   64 1    
   123   62  138 1    
   124   63  139 1    
   125   63  140 1    
   126   63  141 1    
   127   64   65 am   BACKBONE|DICT|INTERRES
   128   64  142 1    
   129   65   66 2    
   130   65   67 1    
   131   67   68 1    
   132   67   69 1    
   133   67  143 1    
   134   68  144 1    
   135   68  145 1    
   136   68  146 1    
   137   69   70 am   BACKBONE|DICT|INTERRES
   138   69  147 1    
   139   70   71 2    
   140   70   72 1    
   141   72   73 1    
   142   72   74 1    
   143   72  148 1    
   144   73  149 1    
   145   73  150 1    
   146   73  151 1    
   147   74   75 am   BACKBONE|DICT|INTERRES
   148   74  152 1    
   149   75   76 2    
   150   75   77 1    
   151   77   78 1    
   152   77   79 1    
   153   77  153 1    
   154   78  154 1    
   155   78  155 1    
   156   78  156 1    
   157   79   80 am   BACKBONE|DICT|INTERRES
   158   79  157 1    
   159   80   81 2    
@<TRIPOS>SUBSTRUCTURE
     1 UNK         1 GROUP             0       ****    0 ROOT    
