@<TRIPOS>MOLECULE
3R207
157   159    1
SMALL
USER_CHARGES


@<TRIPOS>ATOM
      1 CA        -55.0371  -23.8120   10.9631 C.3       0 UNK        -0.1975 
      2 C         -54.4628  -24.0173    9.5675 C.2       0 UNK         0.4852 
      3 O         -54.9826  -23.4354    8.6143 O.2       0 UNK        -0.5216 
      4 N         -53.4079  -24.8385    9.4577 N.am      1 UNK        -0.4461 
      5 CA        -52.6228  -25.1459    8.2488 C.3       1 UNK         0.0864 
      6 C6        -53.4440  -25.8078    7.1051 C.3       14 UNK        -0.0898 
      7 S7        -54.0156  -27.4748    7.5606 S.3       14 UNK        -0.2598 
      8 C8        -52.5424  -28.4627    7.1439 C.3       14 UNK         0.0286 
      9 C9        -52.2810  -29.5089    8.2129 C.ar      14 UNK        -0.0844 
     10 C10       -51.6711  -29.1440    9.4168 C.ar      14 UNK        -0.0881 
     11 C11       -51.4715  -30.0913   10.4235 C.ar      14 UNK        -0.0643 
     12 C12       -51.8679  -31.4151   10.2145 C.ar      14 UNK        -0.0930 
     13 C13       -52.4607  -31.7959    9.0071 C.ar      14 UNK        -0.0827 
     14 C14       -52.6612  -30.8375    8.0082 C.ar      14 UNK        -0.1249 
     15 C15       -52.8550  -33.2482    8.7742 C.3       14 UNK         0.0141 
     16 S16       -54.5968  -33.4428    8.2792 S.3       14 UNK        -0.2313 
     17 C17       -55.4969  -33.0614    9.8186 C.3       14 UNK        -0.0915 
     18 CA        -56.4814  -31.8642    9.6260 C.3       13 UNK         0.0968 
     19 C         -57.8563  -32.0527   10.3466 C.2       13 UNK         0.5732 
     20 N         -58.5400  -30.9891   10.7532 N.am      13 UNK        -0.7310 
     21 O         -58.3406  -33.1715   10.5026 O.2       13 UNK        -0.5035 
     22 N         -55.8371  -30.5545    9.8497 N.am      13 UNK        -0.4233 
     23 C         -55.4531  -30.0622   11.0357 C.2       13 UNK         0.4989 
     24 O         -55.5207  -30.6846   12.1001 O.2       13 UNK        -0.4996 
     25 CA        -54.9637  -28.6072   11.0447 C.3       12 UNK         0.0216 
     26 CB        -56.0769  -27.6337   10.6096 C.3       12 UNK        -0.1964 
     27 N         -54.5225  -28.2718   12.3945 N.am      12 UNK        -0.4276 
     28 C         -53.6530  -27.3163   12.7311 C.2       12 UNK         0.5020 
     29 O         -53.0796  -26.5857   11.9159 O.2       12 UNK        -0.5489 
     30 CA        -53.3804  -27.1808   14.2409 C.3       11 UNK         0.0294 
     31 CB        -52.5196  -28.3405   14.7649 C.3       11 UNK        -0.2019 
     32 N         -52.7268  -25.9092   14.5583 N.am      11 UNK        -0.4493 
     33 C         -53.3959  -24.7632   14.7484 C.2       11 UNK         0.4932 
     34 O         -54.6268  -24.6959   14.7529 O.2       11 UNK        -0.5029 
     35 CA        -52.5795  -23.4694   14.9346 C.3       10 UNK         0.0280 
     36 CB        -53.3068  -22.4196   15.8029 C.3       10 UNK        -0.1976 
     37 N         -51.1988  -23.6734   15.3885 N.am      10 UNK        -0.4242 
     38 C         -50.7712  -24.1063   16.5863 C.2       10 UNK         0.5072 
     39 O         -51.5285  -24.4308   17.5021 O.2       10 UNK        -0.5224 
     40 CA        -49.2451  -24.1859   16.8177 C.3       9 UNK         0.0343 
     41 CB        -48.8404  -25.5189   17.4740 C.3       9 UNK        -0.2003 
     42 N         -48.4821  -24.0169   15.5782 N.am      9 UNK        -0.4272 
     43 C         -47.9582  -22.8646   15.1332 C.2       9 UNK         0.4988 
     44 O         -47.9558  -21.8194   15.7838 O.2       9 UNK        -0.5108 
     45 CA        -47.3750  -22.8567   13.7033 C.3       8 UNK         0.0248 
     46 CB        -45.8437  -22.9802   13.7361 C.3       8 UNK        -0.2001 
     47 N         -47.9287  -23.9025   12.8366 N.am      8 UNK        -0.4140 
     48 C         -49.2199  -24.0058   12.4922 C.2       8 UNK         0.5028 
     49 O         -50.0689  -23.1651   12.7833 O.2       8 UNK        -0.5428 
     50 CA        -49.6576  -25.3027   11.7959 C.3       7 UNK         0.0264 
     51 CB        -49.5466  -25.1680   10.2766 C.3       7 UNK        -0.1988 
     52 N         -48.8990  -26.4703   12.2483 N.am      7 UNK        -0.4454 
     53 C         -48.9908  -27.0004   13.4759 C.2       7 UNK         0.5027 
     54 O         -49.7475  -26.5579   14.3404 O.2       7 UNK        -0.5083 
     55 CA        -48.0595  -28.1874   13.8075 C.3       6 UNK         0.0844 
     56 C56       -48.7168  -29.5632   13.5392 C.3       14 UNK        -0.0967 
     57 S57       -49.0628  -29.9238   11.7793 S.3       14 UNK        -0.2604 
     58 C58       -50.8636  -29.6780   11.7510 C.3       14 UNK         0.0134 
     59 N         -46.7602  -28.0611   13.1443 N.am      6 UNK        -0.4116 
     60 C         -45.7955  -27.2179   13.5352 C.2       5 UNK         0.5034 
     61 O         -45.8670  -26.5149   14.5429 O.2       5 UNK        -0.5045 
     62 CA        -44.5570  -27.1137   12.6271 C.3       5 UNK         0.0224 
     63 CB        -43.5181  -28.1815   13.0050 C.3       5 UNK        -0.1978 
     64 N         -44.8621  -27.2088   11.1925 N.am      5 UNK        -0.4737 
     65 C         -45.6479  -26.3503   10.5291 C.2       4 UNK         0.5027 
     66 O         -46.2405  -25.4183   11.0745 O.2       4 UNK        -0.5211 
     67 CA        -45.8522  -26.6208    9.0266 C.3       4 UNK         0.0297 
     68 CB        -46.9185  -27.7113    8.8211 C.3       4 UNK        -0.1993 
     69 N         -46.2481  -25.4204    8.2803 N.am      4 UNK        -0.4486 
     70 C         -45.4856  -24.3303    8.1138 C.2       3 UNK         0.4961 
     71 O         -44.3295  -24.2441    8.5320 O.2       3 UNK        -0.5105 
     72 CA        -46.0832  -23.1437    7.3297 C.3       3 UNK         0.0299 
     73 CB        -45.1099  -22.6612    6.2379 C.3       3 UNK        -0.1972 
     74 N         -47.3760  -23.4355    6.6970 N.am      3 UNK        -0.4305 
     75 C         -48.5783  -23.1252    7.2024 C.2       2 UNK         0.5006 
     76 O         -48.7355  -22.6387    8.3215 O.2       2 UNK        -0.5106 
     77 CA        -49.8098  -23.3691    6.3038 C.3       2 UNK         0.0296 
     78 CB        -49.4676  -23.8986    4.8941 C.3       2 UNK        -0.2002 
     79 N         -50.7485  -24.2978    6.9358 N.am      2 UNK        -0.4032 
     80 C         -51.7822  -23.9566    7.7208 C.2       1 UNK         0.5000 
     81 O         -52.0598  -22.7913    8.0143 O.2       1 UNK        -0.5238 
     82 H82       -54.4741  -24.3524   11.7230 H         1 UNK         0.0889 
     83 H83       -56.0711  -24.1531   11.0000 H         1 UNK         0.0889 
     84 H84       -55.0186  -22.7541   11.2230 H         1 UNK         0.0889 
     85 H85       -53.0997  -25.3227   10.2971 H         1 UNK         0.3028 
     86 H86       -51.8950  -25.8808    8.5901 H         1 UNK         0.0864 
     87 H87       -54.3113  -25.2020    6.8411 H         1 UNK         0.0720 
     88 H88       -52.8632  -25.8961    6.1851 H         1 UNK         0.0720 
     89 H89       -51.6613  -27.8275    7.0469 H         1 UNK         0.0814 
     90 H90       -52.6893  -28.9298    6.1689 H         1 UNK         0.0814 
     91 H91       -51.3824  -28.1163    9.5861 H         1 UNK         0.1469 
     92 H92       -51.7103  -32.1478   10.9941 H         1 UNK         0.1381 
     93 H93       -53.1251  -31.1266    7.0750 H         1 UNK         0.1206 
     94 H94       -52.2219  -33.6555    7.9850 H         1 UNK         0.0813 
     95 H95       -52.6673  -33.8562    9.6607 H         1 UNK         0.0813 
     96 H96       -54.7956  -32.8730   10.6323 H         1 UNK         0.0638 
     97 H97       -56.0141  -33.9816   10.0924 H         1 UNK         0.0638 
     98 H98       -56.7771  -31.8479    8.5765 H         1 UNK         0.0568 
     99 H99       -58.1766  -30.0608   10.6160 H         1 UNK         0.3450 
    100 H100      -59.4323  -31.1218   11.2023 H         1 UNK         0.3450 
    101 H101      -55.7352  -29.9756    9.0288 H         1 UNK         0.2987 
    102 H102      -54.1197  -28.5274   10.3612 H         1 UNK         0.0766 
    103 H103      -55.7186  -26.6061   10.6102 H         1 UNK         0.0798 
    104 H104      -56.9413  -27.6859   11.2725 H         1 UNK         0.0798 
    105 H105      -56.4225  -27.8444    9.5972 H         1 UNK         0.0798 
    106 H106      -54.8906  -28.8958   13.1030 H         1 UNK         0.3198 
    107 H107      -54.3416  -27.2236   14.7584 H         1 UNK         0.0843 
    108 H108      -51.5578  -28.3828   14.2624 H         1 UNK         0.0831 
    109 H109      -53.0102  -29.3023   14.6106 H         1 UNK         0.0831 
    110 H110      -52.3315  -28.2417   15.8342 H         1 UNK         0.0831 
    111 H111      -51.7128  -25.8999   14.5251 H         1 UNK         0.3133 
    112 H112      -52.4935  -23.0440   13.9341 H         1 UNK         0.0566 
    113 H113      -52.7170  -21.5084   15.9021 H         1 UNK         0.0814 
    114 H114      -54.2617  -22.1367   15.3581 H         1 UNK         0.0814 
    115 H115      -53.5168  -22.7960   16.8043 H         1 UNK         0.0814 
    116 H116      -50.5035  -23.4545   14.6812 H         1 UNK         0.3091 
    117 H117      -48.9907  -23.3843   17.5139 H         1 UNK         0.0702 
    118 H118      -47.7621  -25.5761   17.6235 H         1 UNK         0.0785 
    119 H119      -49.1409  -26.3770   16.8730 H         1 UNK         0.0785 
    120 H120      -49.3077  -25.6306   18.4532 H         1 UNK         0.0785 
    121 H121      -48.4561  -24.8257   14.9705 H         1 UNK         0.2998 
    122 H122      -47.6290  -21.8943   13.2544 H         1 UNK         0.0697 
    123 H123      -45.5235  -23.9160   14.1937 H         1 UNK         0.0825 
    124 H124      -45.3997  -22.1678   14.3129 H         1 UNK         0.0825 
    125 H125      -45.4196  -22.9360   12.7325 H         1 UNK         0.0825 
    126 H126      -47.2777  -24.5873   12.4592 H         1 UNK         0.3029 
    127 H127      -50.7075  -25.4683   12.0454 H         1 UNK         0.0897 
    128 H128      -49.8905  -26.0671    9.7682 H         1 UNK         0.0792 
    129 H129      -48.5260  -24.9628    9.9582 H         1 UNK         0.0792 
    130 H130      -50.1558  -24.3314    9.9394 H         1 UNK         0.0792 
    131 H131      -48.2199  -26.8500   11.6067 H         1 UNK         0.3086 
    132 H132      -47.8809  -28.1373   14.8842 H         1 UNK         0.0583 
    133 H133      -49.6248  -29.6718   14.1336 H         1 UNK         0.1020 
    134 H134      -48.0537  -30.3486   13.9053 H         1 UNK         0.1020 
    135 H135      -51.3282  -30.2499   12.5557 H         1 UNK         0.0694 
    136 H136      -51.0810  -28.6274   11.9455 H         1 UNK         0.0694 
    137 H137      -46.6188  -28.6168   12.3134 H         1 UNK         0.2989 
    138 H138      -44.1153  -26.1299   12.8029 H         1 UNK         0.1055 
    139 H139      -43.2614  -28.1184   14.0637 H         1 UNK         0.0806 
    140 H140      -42.5931  -28.0522   12.4428 H         1 UNK         0.0806 
    141 H141      -43.8869  -29.1910   12.8190 H         1 UNK         0.0806 
    142 H142      -44.4160  -27.9577   10.6811 H         1 UNK         0.3061 
    143 H143      -44.9053  -26.9730    8.6118 H         1 UNK         0.0734 
    144 H144      -47.0430  -27.9501    7.7647 H         1 UNK         0.0832 
    145 H145      -46.6389  -28.6376    9.3249 H         1 UNK         0.0832 
    146 H146      -47.8908  -27.4130    9.2126 H         1 UNK         0.0832 
    147 H147      -47.1884  -25.3949    7.9190 H         1 UNK         0.3156 
    148 H148      -46.2058  -22.3282    8.0456 H         1 UNK         0.0589 
    149 H149      -44.9026  -23.4436    5.5069 H         1 UNK         0.0808 
    150 H150      -45.5089  -21.7988    5.7035 H         1 UNK         0.0808 
    151 H151      -44.1547  -22.3551    6.6671 H         1 UNK         0.0808 
    152 H152      -47.3381  -23.8435    5.7734 H         1 UNK         0.3098 
    153 H153      -50.2943  -22.3987    6.1759 H         1 UNK         0.0720 
    154 H154      -50.3693  -23.9981    4.2891 H         1 UNK         0.0791 
    155 H155      -48.9861  -24.8770    4.9232 H         1 UNK         0.0791 
    156 H156      -48.8095  -23.2121    4.3591 H         1 UNK         0.0791 
    157 H157      -50.5754  -25.2771    6.7640 H         1 UNK         0.3028 
@<TRIPOS>BOND
     1    1    2 1    
     2    1   82 1    
     3    1   83 1    
     4    1   84 1    
     5    2    3 2    
     6    2    4 am   BACKBONE|DICT|INTERRES
     7    4    5 1    
     8    4   85 1    
     9    5    6 1    
    10    5   80 1    
    11    5   86 1    
    12    6    7 1    
    13    6   87 1    
    14    6   88 1    
    15    7    8 1    
    16    8    9 1    
    17    8   89 1    
    18    8   90 1    
    19    9   10 ar   
    20    9   14 ar   
    21   10   11 ar   
    22   10   91 1    
    23   11   12 ar   
    24   11   58 1    
    25   12   13 ar   
    26   12   92 1    
    27   13   14 ar   
    28   13   15 1    
    29   14   93 1    
    30   15   16 1    
    31   15   94 1    
    32   15   95 1    
    33   16   17 1    
    34   17   18 1    
    35   17   96 1    
    36   17   97 1    
    37   18   19 1    
    38   18   22 1    
    39   18   98 1    
    40   19   20 am   BACKBONE|DICT|INTERRES
    41   19   21 2    
    42   20   99 1    
    43   20  100 1    
    44   22   23 am   BACKBONE|DICT|INTERRES
    45   22  101 1    
    46   23   24 2    
    47   23   25 1    
    48   25   26 1    
    49   25   27 1    
    50   25  102 1    
    51   26  103 1    
    52   26  104 1    
    53   26  105 1    
    54   27   28 am   BACKBONE|DICT|INTERRES
    55   27  106 1    
    56   28   29 2    
    57   28   30 1    
    58   30   31 1    
    59   30   32 1    
    60   30  107 1    
    61   31  108 1    
    62   31  109 1    
    63   31  110 1    
    64   32   33 am   BACKBONE|DICT|INTERRES
    65   32  111 1    
    66   33   34 2    
    67   33   35 1    
    68   35   36 1    
    69   35   37 1    
    70   35  112 1    
    71   36  113 1    
    72   36  114 1    
    73   36  115 1    
    74   37   38 am   BACKBONE|DICT|INTERRES
    75   37  116 1    
    76   38   39 2    
    77   38   40 1    
    78   40   41 1    
    79   40   42 1    
    80   40  117 1    
    81   41  118 1    
    82   41  119 1    
    83   41  120 1    
    84   42   43 am   BACKBONE|DICT|INTERRES
    85   42  121 1    
    86   43   44 2    
    87   43   45 1    
    88   45   46 1    
    89   45   47 1    
    90   45  122 1    
    91   46  123 1    
    92   46  124 1    
    93   46  125 1    
    94   47   48 am   BACKBONE|DICT|INTERRES
    95   47  126 1    
    96   48   49 2    
    97   48   50 1    
    98   50   51 1    
    99   50   52 1    
   100   50  127 1    
   101   51  128 1    
   102   51  129 1    
   103   51  130 1    
   104   52   53 am   BACKBONE|DICT|INTERRES
   105   52  131 1    
   106   53   54 2    
   107   53   55 1    
   108   55   56 1    
   109   55   59 1    
   110   55  132 1    
   111   56   57 1    
   112   56  133 1    
   113   56  134 1    
   114   57   58 1    
   115   58  135 1    
   116   58  136 1    
   117   59   60 am   BACKBONE|DICT|INTERRES
   118   59  137 1    
   119   60   61 2    
   120   60   62 1    
   121   62   63 1    
   122   62   64 1    
   123   62  138 1    
   124   63  139 1    
   125   63  140 1    
   126   63  141 1    
   127   64   65 am   BACKBONE|DICT|INTERRES
   128   64  142 1    
   129   65   66 2    
   130   65   67 1    
   131   67   68 1    
   132   67   69 1    
   133   67  143 1    
   134   68  144 1    
   135   68  145 1    
   136   68  146 1    
   137   69   70 am   BACKBONE|DICT|INTERRES
   138   69  147 1    
   139   70   71 2    
   140   70   72 1    
   141   72   73 1    
   142   72   74 1    
   143   72  148 1    
   144   73  149 1    
   145   73  150 1    
   146   73  151 1    
   147   74   75 am   BACKBONE|DICT|INTERRES
   148   74  152 1    
   149   75   76 2    
   150   75   77 1    
   151   77   78 1    
   152   77   79 1    
   153   77  153 1    
   154   78  154 1    
   155   78  155 1    
   156   78  156 1    
   157   79   80 am   BACKBONE|DICT|INTERRES
   158   79  157 1    
   159   80   81 2    
@<TRIPOS>SUBSTRUCTURE
     1 UNK         1 GROUP             0       ****    0 ROOT    
