@<TRIPOS>MOLECULE
3R207
157   159    1
SMALL
USER_CHARGES


@<TRIPOS>ATOM
      1 CA        -46.0804  -26.3422    2.8535 C.3       0 UNK        -0.1975 
      2 C         -47.0733  -27.4606    2.5759 C.2       0 UNK         0.4852 
      3 O         -47.3933  -27.7259    1.4174 O.2       0 UNK        -0.5216 
      4 N         -47.5839  -28.1037    3.6321 N.am      1 UNK        -0.4461 
      5 CA        -48.5444  -29.2164    3.5855 C.3       1 UNK         0.0864 
      6 C6        -48.2755  -30.2251    4.7369 C.3       14 UNK        -0.0898 
      7 S7        -48.2995  -29.4689    6.4024 S.3       14 UNK        -0.2598 
      8 C8        -49.7688  -30.2495    7.1362 C.3       14 UNK         0.0286 
      9 C9        -50.1320  -29.5961    8.4597 C.ar      14 UNK        -0.0844 
     10 C10       -49.4367  -29.9319    9.6248 C.ar      14 UNK        -0.0881 
     11 C11       -49.7589  -29.3254   10.8425 C.ar      14 UNK        -0.0643 
     12 C12       -50.8036  -28.3981   10.8929 C.ar      14 UNK        -0.0930 
     13 C13       -51.5101  -28.0557    9.7366 C.ar      14 UNK        -0.0827 
     14 C14       -51.1630  -28.6538    8.5207 C.ar      14 UNK        -0.1249 
     15 C15       -52.6194  -27.0126    9.7921 C.3       14 UNK         0.0141 
     16 S16       -54.2351  -27.6841    9.2977 S.3       14 UNK        -0.2313 
     17 C17       -54.7911  -28.5262   10.8170 C.3       14 UNK        -0.0915 
     18 CA        -55.9032  -27.7145   11.5415 C.3       13 UNK         0.0968 
     19 C         -56.8189  -28.5882   12.4501 C.2       13 UNK         0.5732 
     20 N         -57.3203  -28.0862   13.5735 N.am      13 UNK        -0.7310 
     21 O         -57.1171  -29.7339   12.1198 O.2       13 UNK        -0.5035 
     22 N         -55.3394  -26.5684   12.2689 N.am      13 UNK        -0.4233 
     23 C         -55.5497  -25.2774   11.9850 C.2       13 UNK         0.4989 
     24 O         -56.1640  -24.8885   10.9900 O.2       13 UNK        -0.4996 
     25 CA        -54.9861  -24.2377   12.9820 C.3       12 UNK         0.0216 
     26 CB        -55.7819  -22.9149   12.9711 C.3       12 UNK        -0.1964 
     27 N         -54.8369  -24.7336   14.3583 N.am      12 UNK        -0.4276 
     28 C         -55.8031  -25.2479   15.1342 C.2       12 UNK         0.5020 
     29 O         -56.9762  -25.3610   14.7706 O.2       12 UNK        -0.5489 
     30 CA        -55.3854  -25.7745   16.5236 C.3       11 UNK         0.0294 
     31 CB        -56.4975  -26.6137   17.1860 C.3       11 UNK        -0.2019 
     32 N         -54.1290  -26.5363   16.5653 N.am      11 UNK        -0.4493 
     33 C         -53.6907  -27.4924   15.7326 C.2       11 UNK         0.4932 
     34 O         -54.2303  -27.7744   14.6619 O.2       11 UNK        -0.5029 
     35 CA        -52.4374  -28.2754   16.1778 C.3       10 UNK         0.0280 
     36 CB        -51.8010  -29.0686   15.0205 C.3       10 UNK        -0.1976 
     37 N         -51.4064  -27.4382   16.7977 N.am      10 UNK        -0.4242 
     38 C         -51.4069  -26.9708   18.0537 C.2       10 UNK         0.5072 
     39 O         -52.3372  -27.1386   18.8423 O.2       10 UNK        -0.5224 
     40 CA        -50.1862  -26.1459   18.4851 C.3       9 UNK         0.0343 
     41 CB        -48.9649  -27.0516   18.7166 C.3       9 UNK        -0.2003 
     42 N         -49.8670  -25.1384   17.4748 N.am      9 UNK        -0.4272 
     43 C         -50.3523  -23.8887   17.4662 C.2       9 UNK         0.4988 
     44 O         -51.0407  -23.4124   18.3694 O.2       9 UNK        -0.5108 
     45 CA        -50.0257  -23.0195   16.2367 C.3       8 UNK         0.0248 
     46 CB        -48.7313  -22.2234   16.4674 C.3       8 UNK        -0.2001 
     47 N         -49.9022  -23.7931   14.9993 N.am      8 UNK        -0.4140 
     48 C         -50.9061  -24.4681   14.4204 C.2       8 UNK         0.5028 
     49 O         -52.0709  -24.4436   14.8195 O.2       8 UNK        -0.5428 
     50 CA        -50.5518  -25.3563   13.2158 C.3       7 UNK         0.0264 
     51 CB        -50.8272  -24.6050   11.9044 C.3       7 UNK        -0.1988 
     52 N         -49.1685  -25.8544   13.2077 N.am      7 UNK        -0.4454 
     53 C         -48.6021  -26.5941   14.1775 C.2       7 UNK         0.5027 
     54 O         -49.2067  -26.9408   15.1914 O.2       7 UNK        -0.5083 
     55 CA        -47.1158  -26.9947   14.0452 C.3       6 UNK         0.0844 
     56 C56       -46.9575  -28.5081   13.7472 C.3       14 UNK        -0.0967 
     57 S57       -47.2938  -28.9453   12.0058 S.3       14 UNK        -0.2604 
     58 C58       -48.9663  -29.6568   12.0978 C.3       14 UNK         0.0134 
     59 N         -46.3606  -26.1679   13.1021 N.am      6 UNK        -0.4116 
     60 C         -46.1314  -24.8535   13.2131 C.2       5 UNK         0.5034 
     61 O         -46.4649  -24.1794   14.1887 O.2       5 UNK        -0.5045 
     62 CA        -45.4610  -24.1656   12.0075 C.3       5 UNK         0.0224 
     63 CB        -43.9502  -24.0182   12.2496 C.3       5 UNK        -0.1978 
     64 N         -45.6820  -24.8263   10.7094 N.am      5 UNK        -0.4737 
     65 C         -46.8809  -25.0757   10.1646 C.2       4 UNK         0.5027 
     66 O         -47.9484  -24.8460   10.7376 O.2       4 UNK        -0.5211 
     67 CA        -46.8961  -25.6984    8.7637 C.3       4 UNK         0.0297 
     68 CB        -46.4509  -27.1719    8.7884 C.3       4 UNK        -0.1993 
     69 N         -48.2565  -25.5946    8.2490 N.am      4 UNK        -0.4486 
     70 C         -48.6290  -25.6699    6.9710 C.2       3 UNK         0.4961 
     71 O         -47.8528  -25.8742    6.0308 O.2       3 UNK        -0.5105 
     72 CA        -50.1236  -25.4590    6.6939 C.3       3 UNK         0.0299 
     73 CB        -50.5287  -23.9835    6.8741 C.3       3 UNK        -0.1972 
     74 N         -50.3729  -25.8948    5.3286 N.am      3 UNK        -0.4305 
     75 C         -51.5464  -26.1928    4.7597 C.2       2 UNK         0.5006 
     76 O         -52.6373  -26.0684    5.3161 O.2       2 UNK        -0.5106 
     77 CA        -51.4812  -26.7402    3.3207 C.3       2 UNK         0.0296 
     78 CB        -51.5840  -25.5949    2.3002 C.3       2 UNK        -0.2002 
     79 N         -50.2389  -27.4848    3.0946 N.am      2 UNK        -0.4032 
     80 C         -50.0136  -28.7272    3.5461 C.2       1 UNK         0.5000 
     81 O         -50.9157  -29.4626    3.9517 O.2       1 UNK        -0.5238 
     82 H82       -46.4447  -25.4035    2.4372 H         1 UNK         0.0889 
     83 H83       -45.1196  -26.5705    2.3931 H         1 UNK         0.0889 
     84 H84       -45.9195  -26.1980    3.9221 H         1 UNK         0.0889 
     85 H85       -47.3210  -27.8119    4.5661 H         1 UNK         0.3028 
     86 H86       -48.3958  -29.7603    2.6501 H         1 UNK         0.0864 
     87 H87       -47.2882  -30.6679    4.5980 H         1 UNK         0.0720 
     88 H88       -48.9716  -31.0649    4.6943 H         1 UNK         0.0720 
     89 H89       -49.5781  -31.3132    7.2855 H         1 UNK         0.0814 
     90 H90       -50.6088  -30.1811    6.4446 H         1 UNK         0.0814 
     91 H91       -48.6268  -30.6472    9.5801 H         1 UNK         0.1469 
     92 H92       -51.0584  -27.9346   11.8329 H         1 UNK         0.1381 
     93 H93       -51.7000  -28.3847    7.6208 H         1 UNK         0.1206 
     94 H94       -52.7073  -26.5797   10.7892 H         1 UNK         0.0813 
     95 H95       -52.3659  -26.1901    9.1226 H         1 UNK         0.0813 
     96 H96       -55.1539  -29.5054   10.5015 H         1 UNK         0.0638 
     97 H97       -53.9474  -28.7179   11.4825 H         1 UNK         0.0638 
     98 H98       -56.5936  -27.3523   10.7780 H         1 UNK         0.0568 
     99 H99       -57.1243  -27.1327   13.8593 H         1 UNK         0.3450 
    100 H100      -57.9191  -28.6646   14.1396 H         1 UNK         0.3450 
    101 H101      -54.8714  -26.8156   13.1380 H         1 UNK         0.2987 
    102 H102      -53.9784  -24.0110   12.6376 H         1 UNK         0.0766 
    103 H103      -55.7756  -22.4593   11.9802 H         1 UNK         0.0798 
    104 H104      -56.8243  -23.0691   13.2519 H         1 UNK         0.0798 
    105 H105      -55.3523  -22.1885   13.6609 H         1 UNK         0.0798 
    106 H106      -53.8817  -24.7120   14.7194 H         1 UNK         0.3198 
    107 H107      -55.2261  -24.8890   17.1407 H         1 UNK         0.0843 
    108 H108      -56.7143  -27.5143   16.6102 H         1 UNK         0.0831 
    109 H109      -57.4255  -26.0466   17.2701 H         1 UNK         0.0831 
    110 H110      -56.2175  -26.9202   18.1939 H         1 UNK         0.0831 
    111 H111      -53.5815  -26.4151   17.4110 H         1 UNK         0.3133 
    112 H112      -52.7747  -28.9996   16.9219 H         1 UNK         0.0566 
    113 H113      -51.4799  -28.4098   14.2149 H         1 UNK         0.0814 
    114 H114      -50.9324  -29.6353   15.3560 H         1 UNK         0.0814 
    115 H115      -52.5074  -29.7831   14.5959 H         1 UNK         0.0814 
    116 H116      -50.5977  -27.2323   16.2119 H         1 UNK         0.3091 
    117 H117      -50.4247  -25.6576   19.4325 H         1 UNK         0.0702 
    118 H118      -48.1091  -26.4759   19.0695 H         1 UNK         0.0785 
    119 H119      -48.6629  -27.5748   17.8085 H         1 UNK         0.0785 
    120 H120      -49.1798  -27.8082   19.4724 H         1 UNK         0.0785 
    121 H121      -49.3528  -25.4638   16.6656 H         1 UNK         0.2998 
    122 H122      -50.8467  -22.3111   16.1069 H         1 UNK         0.0697 
    123 H123      -47.8660  -22.8797   16.5719 H         1 UNK         0.0825 
    124 H124      -48.7982  -21.6233   17.3760 H         1 UNK         0.0825 
    125 H125      -48.5338  -21.5389   15.6422 H         1 UNK         0.0825 
    126 H126      -48.9770  -23.8698   14.5978 H         1 UNK         0.3029 
    127 H127      -51.2157  -26.2193   13.2654 H         1 UNK         0.0897 
    128 H128      -50.6262  -25.2328   11.0370 H         1 UNK         0.0792 
    129 H129      -50.2069  -23.7120   11.8167 H         1 UNK         0.0792 
    130 H130      -51.8659  -24.2852   11.8387 H         1 UNK         0.0792 
    131 H131      -48.6108  -25.5972   12.3963 H         1 UNK         0.3086 
    132 H132      -46.6777  -26.8163   15.0295 H         1 UNK         0.0583 
    133 H133      -45.9294  -28.8045   13.9604 H         1 UNK         0.1020 
    134 H134      -47.5707  -29.1132   14.4186 H         1 UNK         0.1020 
    135 H135      -48.8939  -30.7385   12.2183 H         1 UNK         0.0694 
    136 H136      -49.4847  -29.2810   12.9803 H         1 UNK         0.0694 
    137 H137      -46.0743  -26.6300   12.2512 H         1 UNK         0.2989 
    138 H138      -45.8955  -23.1658   11.9384 H         1 UNK         0.1055 
    139 H139      -43.7532  -23.5098   13.1947 H         1 UNK         0.0806 
    140 H140      -43.4768  -23.4285   11.4643 H         1 UNK         0.0806 
    141 H141      -43.4512  -24.9873   12.2910 H         1 UNK         0.0806 
    142 H142      -44.8546  -25.0540   10.1755 H         1 UNK         0.3061 
    143 H143      -46.2244  -25.1187    8.1271 H         1 UNK         0.0734 
    144 H144      -47.1831  -27.8004    9.2958 H         1 UNK         0.0832 
    145 H145      -46.3298  -27.5612    7.7778 H         1 UNK         0.0832 
    146 H146      -45.4950  -27.2990    9.2972 H         1 UNK         0.0832 
    147 H147      -48.9353  -25.3774    8.9695 H         1 UNK         0.3156 
    148 H148      -50.6961  -26.0881    7.3757 H         1 UNK         0.0589 
    149 H149      -49.9710  -23.3299    6.2023 H         1 UNK         0.0808 
    150 H150      -51.5909  -23.8347    6.6796 H         1 UNK         0.0808 
    151 H151      -50.3401  -23.6440    7.8933 H         1 UNK         0.0808 
    152 H152      -49.5148  -26.0571    4.8166 H         1 UNK         0.3098 
    153 H153      -52.3321  -27.4090    3.1738 H         1 UNK         0.0720 
    154 H154      -51.5808  -25.9737    1.2780 H         1 UNK         0.0791 
    155 H155      -50.7603  -24.8867    2.3991 H         1 UNK         0.0791 
    156 H156      -52.5116  -25.0367    2.4353 H         1 UNK         0.0791 
    157 H157      -49.4580  -26.9755    2.7061 H         1 UNK         0.3028 
@<TRIPOS>BOND
     1    1    2 1    
     2    1   82 1    
     3    1   83 1    
     4    1   84 1    
     5    2    3 2    
     6    2    4 am   BACKBONE|DICT|INTERRES
     7    4    5 1    
     8    4   85 1    
     9    5    6 1    
    10    5   80 1    
    11    5   86 1    
    12    6    7 1    
    13    6   87 1    
    14    6   88 1    
    15    7    8 1    
    16    8    9 1    
    17    8   89 1    
    18    8   90 1    
    19    9   10 ar   
    20    9   14 ar   
    21   10   11 ar   
    22   10   91 1    
    23   11   12 ar   
    24   11   58 1    
    25   12   13 ar   
    26   12   92 1    
    27   13   14 ar   
    28   13   15 1    
    29   14   93 1    
    30   15   16 1    
    31   15   94 1    
    32   15   95 1    
    33   16   17 1    
    34   17   18 1    
    35   17   96 1    
    36   17   97 1    
    37   18   19 1    
    38   18   22 1    
    39   18   98 1    
    40   19   20 am   BACKBONE|DICT|INTERRES
    41   19   21 2    
    42   20   99 1    
    43   20  100 1    
    44   22   23 am   BACKBONE|DICT|INTERRES
    45   22  101 1    
    46   23   24 2    
    47   23   25 1    
    48   25   26 1    
    49   25   27 1    
    50   25  102 1    
    51   26  103 1    
    52   26  104 1    
    53   26  105 1    
    54   27   28 am   BACKBONE|DICT|INTERRES
    55   27  106 1    
    56   28   29 2    
    57   28   30 1    
    58   30   31 1    
    59   30   32 1    
    60   30  107 1    
    61   31  108 1    
    62   31  109 1    
    63   31  110 1    
    64   32   33 am   BACKBONE|DICT|INTERRES
    65   32  111 1    
    66   33   34 2    
    67   33   35 1    
    68   35   36 1    
    69   35   37 1    
    70   35  112 1    
    71   36  113 1    
    72   36  114 1    
    73   36  115 1    
    74   37   38 am   BACKBONE|DICT|INTERRES
    75   37  116 1    
    76   38   39 2    
    77   38   40 1    
    78   40   41 1    
    79   40   42 1    
    80   40  117 1    
    81   41  118 1    
    82   41  119 1    
    83   41  120 1    
    84   42   43 am   BACKBONE|DICT|INTERRES
    85   42  121 1    
    86   43   44 2    
    87   43   45 1    
    88   45   46 1    
    89   45   47 1    
    90   45  122 1    
    91   46  123 1    
    92   46  124 1    
    93   46  125 1    
    94   47   48 am   BACKBONE|DICT|INTERRES
    95   47  126 1    
    96   48   49 2    
    97   48   50 1    
    98   50   51 1    
    99   50   52 1    
   100   50  127 1    
   101   51  128 1    
   102   51  129 1    
   103   51  130 1    
   104   52   53 am   BACKBONE|DICT|INTERRES
   105   52  131 1    
   106   53   54 2    
   107   53   55 1    
   108   55   56 1    
   109   55   59 1    
   110   55  132 1    
   111   56   57 1    
   112   56  133 1    
   113   56  134 1    
   114   57   58 1    
   115   58  135 1    
   116   58  136 1    
   117   59   60 am   BACKBONE|DICT|INTERRES
   118   59  137 1    
   119   60   61 2    
   120   60   62 1    
   121   62   63 1    
   122   62   64 1    
   123   62  138 1    
   124   63  139 1    
   125   63  140 1    
   126   63  141 1    
   127   64   65 am   BACKBONE|DICT|INTERRES
   128   64  142 1    
   129   65   66 2    
   130   65   67 1    
   131   67   68 1    
   132   67   69 1    
   133   67  143 1    
   134   68  144 1    
   135   68  145 1    
   136   68  146 1    
   137   69   70 am   BACKBONE|DICT|INTERRES
   138   69  147 1    
   139   70   71 2    
   140   70   72 1    
   141   72   73 1    
   142   72   74 1    
   143   72  148 1    
   144   73  149 1    
   145   73  150 1    
   146   73  151 1    
   147   74   75 am   BACKBONE|DICT|INTERRES
   148   74  152 1    
   149   75   76 2    
   150   75   77 1    
   151   77   78 1    
   152   77   79 1    
   153   77  153 1    
   154   78  154 1    
   155   78  155 1    
   156   78  156 1    
   157   79   80 am   BACKBONE|DICT|INTERRES
   158   79  157 1    
   159   80   81 2    
@<TRIPOS>SUBSTRUCTURE
     1 UNK         1 GROUP             0       ****    0 ROOT    
