@<TRIPOS>MOLECULE
3R207
157   159    1
SMALL
USER_CHARGES


@<TRIPOS>ATOM
      1 CA        -50.3302  -29.2833    0.9888 C.3       0 UNK        -0.1975 
      2 C         -50.1021  -28.6763    2.3655 C.2       0 UNK         0.4852 
      3 O         -50.5898  -27.5781    2.6376 O.2       0 UNK        -0.5216 
      4 N         -49.3726  -29.3858    3.2366 N.am      1 UNK        -0.4461 
      5 CA        -48.9931  -28.9267    4.5765 C.3       1 UNK         0.0864 
      6 C6        -48.6273  -30.1259    5.4906 C.3       14 UNK        -0.0898 
      7 S7        -48.9589  -29.7725    7.2471 S.3       14 UNK        -0.2598 
      8 C8        -50.7221  -30.2089    7.3632 C.3       14 UNK         0.0286 
      9 C9        -51.4574  -29.2883    8.3252 C.ar      14 UNK        -0.0844 
     10 C10       -51.7065  -27.9621    7.9632 C.ar      14 UNK        -0.0881 
     11 C11       -52.4029  -27.1055    8.8207 C.ar      14 UNK        -0.0643 
     12 C12       -52.8752  -27.5929   10.0432 C.ar      14 UNK        -0.0930 
     13 C13       -52.6438  -28.9226   10.4114 C.ar      14 UNK        -0.0827 
     14 C14       -51.9200  -29.7610    9.5564 C.ar      14 UNK        -0.1249 
     15 C15       -53.1951  -29.4639   11.7208 C.3       14 UNK         0.0141 
     16 S16       -54.6199  -30.5535   11.4201 S.3       14 UNK        -0.2313 
     17 C17       -55.0915  -30.9852   13.1249 C.3       14 UNK        -0.0915 
     18 CA        -56.6090  -31.3222   13.2344 C.3       13 UNK         0.0968 
     19 C         -56.9007  -32.8406   13.0936 C.2       13 UNK         0.5732 
     20 N         -56.5446  -33.4386   11.9658 N.am      13 UNK        -0.7310 
     21 O         -57.4421  -33.4827   13.9934 O.2       13 UNK        -0.5035 
     22 N         -57.2076  -30.7878   14.4625 N.am      13 UNK        -0.4233 
     23 C         -57.5920  -29.5323   14.7191 C.2       13 UNK         0.4989 
     24 O         -58.1176  -29.2305   15.7919 O.2       13 UNK        -0.4996 
     25 CA        -57.4291  -28.4376   13.6404 C.3       12 UNK         0.0216 
     26 CB        -58.7113  -28.3146   12.7991 C.3       12 UNK        -0.1964 
     27 N         -57.1419  -27.1420   14.2582 N.am      12 UNK        -0.4276 
     28 C         -55.9594  -26.8135   14.7899 C.2       12 UNK         0.5020 
     29 O         -54.9493  -27.5205   14.7155 O.2       12 UNK        -0.5489 
     30 CA        -55.8984  -25.4797   15.5443 C.3       11 UNK         0.0294 
     31 CB        -56.6324  -25.5767   16.8969 C.3       11 UNK        -0.2019 
     32 N         -54.4931  -25.1564   15.7555 N.am      11 UNK        -0.4493 
     33 C         -53.9781  -23.9771   16.1125 C.2       11 UNK         0.4932 
     34 O         -54.6658  -22.9756   16.3163 O.2       11 UNK        -0.5029 
     35 CA        -52.4450  -23.8635   16.2404 C.3       10 UNK         0.0280 
     36 CB        -52.0226  -23.4856   17.6746 C.3       10 UNK        -0.1976 
     37 N         -51.6814  -25.0199   15.7486 N.am      10 UNK        -0.4242 
     38 C         -51.5964  -26.2578   16.2601 C.2       10 UNK         0.5072 
     39 O         -52.2154  -26.6437   17.2517 O.2       10 UNK        -0.5224 
     40 CA        -50.6575  -27.2349   15.5321 C.3       9 UNK         0.0343 
     41 CB        -51.3335  -27.8092   14.2772 C.3       9 UNK        -0.2003 
     42 N         -49.3816  -26.6159   15.1667 N.am      9 UNK        -0.4272 
     43 C         -48.4488  -26.2317   16.0512 C.2       9 UNK         0.4988 
     44 O         -48.5275  -26.4324   17.2640 O.2       9 UNK        -0.5108 
     45 CA        -47.2220  -25.4900   15.4956 C.3       8 UNK         0.0248 
     46 CB        -46.1925  -26.4862   14.9389 C.3       8 UNK        -0.2001 
     47 N         -47.5699  -24.5012   14.4715 N.am      8 UNK        -0.4140 
     48 C         -48.2903  -23.3929   14.7018 C.2       8 UNK         0.5028 
     49 O         -48.6845  -23.0499   15.8166 O.2       8 UNK        -0.5428 
     50 CA        -48.6505  -22.5225   13.4858 C.3       7 UNK         0.0264 
     51 CB        -47.4933  -21.5748   13.1327 C.3       7 UNK        -0.1988 
     52 N         -49.0279  -23.3011   12.3038 N.am      7 UNK        -0.4454 
     53 C         -50.0978  -24.1080   12.2274 C.2       7 UNK         0.5027 
     54 O         -50.9011  -24.2700   13.1458 O.2       7 UNK        -0.5083 
     55 CA        -50.2812  -24.8946   10.9134 C.3       6 UNK         0.0844 
     56 C56       -50.9001  -23.9689    9.8348 C.3       14 UNK        -0.0967 
     57 S57       -51.1213  -24.7307    8.1949 S.3       14 UNK        -0.2604 
     58 C58       -52.6687  -25.6682    8.3974 C.3       14 UNK         0.0134 
     59 N         -49.0315  -25.5477   10.5045 N.am      6 UNK        -0.4116 
     60 C         -48.3694  -26.4458   11.2533 C.2       5 UNK         0.5034 
     61 O         -48.7792  -26.8822   12.3292 O.2       5 UNK        -0.5045 
     62 CA        -46.9764  -26.8729   10.7695 C.3       5 UNK         0.0224 
     63 CB        -47.0628  -28.0090    9.7413 C.3       5 UNK        -0.1978 
     64 N         -46.2248  -25.7437   10.2193 N.am      5 UNK        -0.4737 
     65 C         -45.7129  -24.7542   10.9653 C.2       4 UNK         0.5027 
     66 O         -45.7801  -24.7232   12.1926 O.2       4 UNK        -0.5211 
     67 CA        -45.0493  -23.5839   10.2205 C.3       4 UNK         0.0297 
     68 CB        -43.5741  -23.8991    9.9281 C.3       4 UNK        -0.1993 
     69 N         -45.7357  -23.2444    8.9729 N.am      4 UNK        -0.4486 
     70 C         -46.9865  -22.7677    8.8987 C.2       3 UNK         0.4961 
     71 O         -47.6772  -22.4981    9.8811 O.2       3 UNK        -0.5105 
     72 CA        -47.5848  -22.6207    7.4885 C.3       3 UNK         0.0299 
     73 CB        -47.2630  -21.2348    6.9082 C.3       3 UNK        -0.1972 
     74 N         -47.1462  -23.6648    6.5520 N.am      3 UNK        -0.4305 
     75 C         -47.3684  -24.9748    6.7250 C.2       2 UNK         0.5006 
     76 O         -47.9304  -25.4503    7.7130 O.2       2 UNK        -0.5106 
     77 CA        -46.8279  -25.9237    5.6548 C.3       2 UNK         0.0296 
     78 CB        -45.4253  -26.4302    6.0417 C.3       2 UNK        -0.2002 
     79 N         -47.7603  -27.0406    5.5437 N.am      2 UNK        -0.4032 
     80 C         -47.8634  -27.8740    4.5036 C.2       1 UNK         0.5000 
     81 O         -47.1110  -27.8409    3.5244 O.2       1 UNK        -0.5238 
     82 H82       -49.8563  -30.2598    0.8896 H         1 UNK         0.0889 
     83 H83       -49.9224  -28.6290    0.2188 H         1 UNK         0.0889 
     84 H84       -51.3972  -29.4042    0.8039 H         1 UNK         0.0889 
     85 H85       -48.9654  -30.2619    2.9419 H         1 UNK         0.3028 
     86 H86       -49.8718  -28.4295    4.9942 H         1 UNK         0.0864 
     87 H87       -49.2054  -31.0109    5.2184 H         1 UNK         0.0720 
     88 H88       -47.5805  -30.4138    5.3739 H         1 UNK         0.0720 
     89 H89       -50.8124  -31.2517    7.6710 H         1 UNK         0.0814 
     90 H90       -51.1954  -30.1372    6.3828 H         1 UNK         0.0814 
     91 H91       -51.3528  -27.5901    7.0115 H         1 UNK         0.1469 
     92 H92       -53.4332  -26.9419   10.7022 H         1 UNK         0.1381 
     93 H93       -51.7439  -30.7897    9.8404 H         1 UNK         0.1206 
     94 H94       -53.5012  -28.6455   12.3746 H         1 UNK         0.0813 
     95 H95       -52.4167  -30.0158   12.2497 H         1 UNK         0.0813 
     96 H96       -54.8373  -30.1390   13.7649 H         1 UNK         0.0638 
     97 H97       -54.4642  -31.8073   13.4748 H         1 UNK         0.0638 
     98 H98       -57.1504  -30.8651   12.4052 H         1 UNK         0.0568 
     99 H99       -56.0820  -32.9213   11.2337 H         1 UNK         0.3450 
    100 H100      -56.7229  -34.4241   11.8526 H         1 UNK         0.3450 
    101 H101      -57.3877  -31.5023   15.1551 H         1 UNK         0.2987 
    102 H102      -56.5986  -28.6737   12.9749 H         1 UNK         0.0766 
    103 H103      -59.5739  -28.0515   13.4130 H         1 UNK         0.0798 
    104 H104      -58.6060  -27.5546   12.0246 H         1 UNK         0.0798 
    105 H105      -58.9463  -29.2539   12.2976 H         1 UNK         0.0798 
    106 H106      -57.9292  -26.5261   14.4015 H         1 UNK         0.3198 
    107 H107      -56.3533  -24.7044   14.9242 H         1 UNK         0.0843 
    108 H108      -57.6818  -25.8407   16.7609 H         1 UNK         0.0831 
    109 H109      -56.6090  -24.6294   17.4355 H         1 UNK         0.0831 
    110 H110      -56.1863  -26.3371   17.5392 H         1 UNK         0.0831 
    111 H111      -53.8738  -25.9420   15.5899 H         1 UNK         0.3133 
    112 H112      -52.1538  -23.0378   15.5895 H         1 UNK         0.0566 
    113 H113      -50.9422  -23.3567   17.7465 H         1 UNK         0.0814 
    114 H114      -52.4819  -22.5452   17.9816 H         1 UNK         0.0814 
    115 H115      -52.3209  -24.2423   18.4005 H         1 UNK         0.0814 
    116 H116      -51.1905  -24.8424   14.8733 H         1 UNK         0.3091 
    117 H117      -50.4468  -28.0637   16.2112 H         1 UNK         0.0702 
    118 H118      -50.6996  -28.5500   13.7896 H         1 UNK         0.0785 
    119 H119      -51.5601  -27.0330   13.5450 H         1 UNK         0.0785 
    120 H120      -52.2718  -28.3023   14.5347 H         1 UNK         0.0785 
    121 H121      -49.2070  -26.4773   14.1746 H         1 UNK         0.2998 
    122 H122      -46.7563  -24.9541   16.3255 H         1 UNK         0.0697 
    123 H123      -46.5868  -27.0406   14.0873 H         1 UNK         0.0825 
    124 H124      -45.9045  -27.2149   15.6977 H         1 UNK         0.0825 
    125 H125      -45.2833  -25.9785   14.6165 H         1 UNK         0.0825 
    126 H126      -47.2045  -24.6636   13.5371 H         1 UNK         0.3029 
    127 H127      -49.5137  -21.9142   13.7649 H         1 UNK         0.0897 
    128 H128      -47.7668  -20.8997   12.3215 H         1 UNK         0.0792 
    129 H129      -47.2180  -20.9584   13.9895 H         1 UNK         0.0792 
    130 H130      -46.6025  -22.1228   12.8247 H         1 UNK         0.0792 
    131 H131      -48.4461  -23.1825   11.4767 H         1 UNK         0.3086 
    132 H132      -50.9963  -25.6936   11.1162 H         1 UNK         0.0583 
    133 H133      -51.8659  -23.5879   10.1725 H         1 UNK         0.1020 
    134 H134      -50.2750  -23.0866    9.6878 H         1 UNK         0.1020 
    135 H135      -53.3280  -25.1607    9.1030 H         1 UNK         0.0694 
    136 H136      -53.1953  -25.6786    7.4421 H         1 UNK         0.0694 
    137 H137      -48.6540  -25.2914    9.5975 H         1 UNK         0.2989 
    138 H138      -46.4303  -27.2521   11.6360 H         1 UNK         0.1055 
    139 H139      -47.5871  -28.8703   10.1576 H         1 UNK         0.0806 
    140 H140      -46.0731  -28.3476    9.4355 H         1 UNK         0.0806 
    141 H141      -47.6049  -27.7064    8.8472 H         1 UNK         0.0806 
    142 H142      -46.2102  -25.6558    9.2128 H         1 UNK         0.3061 
    143 H143      -45.0896  -22.7096   10.8737 H         1 UNK         0.0734 
    144 H144      -43.0382  -24.1360   10.8485 H         1 UNK         0.0832 
    145 H145      -43.4659  -24.7542    9.2597 H         1 UNK         0.0832 
    146 H146      -43.0685  -23.0480    9.4717 H         1 UNK         0.0832 
    147 H147      -45.2431  -23.4290    8.1114 H         1 UNK         0.3156 
    148 H148      -48.6692  -22.7043    7.5859 H         1 UNK         0.0589 
    149 H149      -46.1920  -21.0978    6.7537 H         1 UNK         0.0808 
    150 H150      -47.7642  -21.0780    5.9528 H         1 UNK         0.0808 
    151 H151      -47.5989  -20.4439    7.5806 H         1 UNK         0.0808 
    152 H152      -46.6661  -23.3557    5.7185 H         1 UNK         0.3098 
    153 H153      -46.7833  -25.3968    4.6993 H         1 UNK         0.0720 
    154 H154      -45.0152  -27.0899    5.2770 H         1 UNK         0.0791 
    155 H155      -45.4429  -26.9826    6.9824 H         1 UNK         0.0791 
    156 H156      -44.7259  -25.6017    6.1597 H         1 UNK         0.0791 
    157 H157      -48.3966  -27.1243    6.3281 H         1 UNK         0.3028 
@<TRIPOS>BOND
     1    1    2 1    
     2    1   82 1    
     3    1   83 1    
     4    1   84 1    
     5    2    3 2    
     6    2    4 am   BACKBONE|DICT|INTERRES
     7    4    5 1    
     8    4   85 1    
     9    5    6 1    
    10    5   80 1    
    11    5   86 1    
    12    6    7 1    
    13    6   87 1    
    14    6   88 1    
    15    7    8 1    
    16    8    9 1    
    17    8   89 1    
    18    8   90 1    
    19    9   10 ar   
    20    9   14 ar   
    21   10   11 ar   
    22   10   91 1    
    23   11   12 ar   
    24   11   58 1    
    25   12   13 ar   
    26   12   92 1    
    27   13   14 ar   
    28   13   15 1    
    29   14   93 1    
    30   15   16 1    
    31   15   94 1    
    32   15   95 1    
    33   16   17 1    
    34   17   18 1    
    35   17   96 1    
    36   17   97 1    
    37   18   19 1    
    38   18   22 1    
    39   18   98 1    
    40   19   20 am   BACKBONE|DICT|INTERRES
    41   19   21 2    
    42   20   99 1    
    43   20  100 1    
    44   22   23 am   BACKBONE|DICT|INTERRES
    45   22  101 1    
    46   23   24 2    
    47   23   25 1    
    48   25   26 1    
    49   25   27 1    
    50   25  102 1    
    51   26  103 1    
    52   26  104 1    
    53   26  105 1    
    54   27   28 am   BACKBONE|DICT|INTERRES
    55   27  106 1    
    56   28   29 2    
    57   28   30 1    
    58   30   31 1    
    59   30   32 1    
    60   30  107 1    
    61   31  108 1    
    62   31  109 1    
    63   31  110 1    
    64   32   33 am   BACKBONE|DICT|INTERRES
    65   32  111 1    
    66   33   34 2    
    67   33   35 1    
    68   35   36 1    
    69   35   37 1    
    70   35  112 1    
    71   36  113 1    
    72   36  114 1    
    73   36  115 1    
    74   37   38 am   BACKBONE|DICT|INTERRES
    75   37  116 1    
    76   38   39 2    
    77   38   40 1    
    78   40   41 1    
    79   40   42 1    
    80   40  117 1    
    81   41  118 1    
    82   41  119 1    
    83   41  120 1    
    84   42   43 am   BACKBONE|DICT|INTERRES
    85   42  121 1    
    86   43   44 2    
    87   43   45 1    
    88   45   46 1    
    89   45   47 1    
    90   45  122 1    
    91   46  123 1    
    92   46  124 1    
    93   46  125 1    
    94   47   48 am   BACKBONE|DICT|INTERRES
    95   47  126 1    
    96   48   49 2    
    97   48   50 1    
    98   50   51 1    
    99   50   52 1    
   100   50  127 1    
   101   51  128 1    
   102   51  129 1    
   103   51  130 1    
   104   52   53 am   BACKBONE|DICT|INTERRES
   105   52  131 1    
   106   53   54 2    
   107   53   55 1    
   108   55   56 1    
   109   55   59 1    
   110   55  132 1    
   111   56   57 1    
   112   56  133 1    
   113   56  134 1    
   114   57   58 1    
   115   58  135 1    
   116   58  136 1    
   117   59   60 am   BACKBONE|DICT|INTERRES
   118   59  137 1    
   119   60   61 2    
   120   60   62 1    
   121   62   63 1    
   122   62   64 1    
   123   62  138 1    
   124   63  139 1    
   125   63  140 1    
   126   63  141 1    
   127   64   65 am   BACKBONE|DICT|INTERRES
   128   64  142 1    
   129   65   66 2    
   130   65   67 1    
   131   67   68 1    
   132   67   69 1    
   133   67  143 1    
   134   68  144 1    
   135   68  145 1    
   136   68  146 1    
   137   69   70 am   BACKBONE|DICT|INTERRES
   138   69  147 1    
   139   70   71 2    
   140   70   72 1    
   141   72   73 1    
   142   72   74 1    
   143   72  148 1    
   144   73  149 1    
   145   73  150 1    
   146   73  151 1    
   147   74   75 am   BACKBONE|DICT|INTERRES
   148   74  152 1    
   149   75   76 2    
   150   75   77 1    
   151   77   78 1    
   152   77   79 1    
   153   77  153 1    
   154   78  154 1    
   155   78  155 1    
   156   78  156 1    
   157   79   80 am   BACKBONE|DICT|INTERRES
   158   79  157 1    
   159   80   81 2    
@<TRIPOS>SUBSTRUCTURE
     1 UNK         1 GROUP             0       ****    0 ROOT    
