@<TRIPOS>MOLECULE
3R207
157   159    1
SMALL
USER_CHARGES


@<TRIPOS>ATOM
      1 CA        -45.2278  -29.7525    8.7003 C.3       0 UNK        -0.1975 
      2 C         -46.1915  -28.7991    8.0116 C.2       0 UNK         0.4852 
      3 O         -46.2387  -27.6211    8.3660 O.2       0 UNK        -0.5216 
      4 N         -46.9458  -29.2919    7.0171 N.am      1 UNK        -0.4461 
      5 CA        -47.9662  -28.5609    6.2424 C.3       1 UNK         0.0864 
      6 C6        -49.1897  -28.1302    7.1010 C.3       14 UNK        -0.0898 
      7 S7        -50.0681  -29.5375    7.8642 S.3       14 UNK        -0.2598 
      8 C8        -51.7020  -29.4524    7.0560 C.3       14 UNK         0.0286 
      9 C9        -52.6701  -28.5360    7.7974 C.ar      14 UNK        -0.0844 
     10 C10       -52.5677  -27.1459    7.6794 C.ar      14 UNK        -0.0881 
     11 C11       -53.4545  -26.2966    8.3545 C.ar      14 UNK        -0.0643 
     12 C12       -54.4706  -26.8634    9.1301 C.ar      14 UNK        -0.0930 
     13 C13       -54.6128  -28.2504    9.2261 C.ar      14 UNK        -0.0827 
     14 C14       -53.6991  -29.0813    8.5717 C.ar      14 UNK        -0.1249 
     15 C15       -55.7919  -28.8479    9.9801 C.3       14 UNK         0.0141 
     16 S16       -55.3008  -29.5952   11.5618 S.3       14 UNK        -0.2313 
     17 C17       -56.9340  -30.0914   12.2085 C.3       14 UNK        -0.0915 
     18 CA        -57.3289  -29.3070   13.4867 C.3       13 UNK         0.0968 
     19 C         -58.8272  -29.5395   13.8257 C.2       13 UNK         0.5732 
     20 N         -59.7157  -28.6923   13.3244 N.am      13 UNK        -0.7310 
     21 O         -59.1925  -30.5021   14.4991 O.2       13 UNK        -0.5035 
     22 N         -56.4408  -29.6487   14.6054 N.am      13 UNK        -0.4233 
     23 C         -56.4275  -29.0491   15.8019 C.2       13 UNK         0.4989 
     24 O         -57.1179  -28.0716   16.0950 O.2       13 UNK        -0.4996 
     25 CA        -55.4732  -29.6293   16.8529 C.3       12 UNK         0.0216 
     26 CB        -55.1652  -31.1316   16.6590 C.3       12 UNK        -0.1964 
     27 N         -54.2375  -28.8538   16.8382 N.am      12 UNK        -0.4276 
     28 C         -53.3755  -28.7560   17.8603 C.2       12 UNK         0.5020 
     29 O         -53.5752  -29.2687   18.9638 O.2       12 UNK        -0.5489 
     30 CA        -52.0736  -27.9581   17.6202 C.3       11 UNK         0.0294 
     31 CB        -50.9070  -28.4265   18.5158 C.3       11 UNK        -0.2019 
     32 N         -51.6692  -27.9166   16.2104 N.am      11 UNK        -0.4493 
     33 C         -51.3775  -28.9572   15.4108 C.2       11 UNK         0.4932 
     34 O         -51.2509  -30.1136   15.8156 O.2       11 UNK        -0.5029 
     35 CA        -51.2300  -28.6699   13.8992 C.3       10 UNK         0.0280 
     36 CB        -51.7564  -29.8320   13.0332 C.3       10 UNK        -0.1976 
     37 N         -51.8269  -27.4032   13.4560 N.am      10 UNK        -0.4242 
     38 C         -53.0921  -26.9832   13.6130 C.2       10 UNK         0.5072 
     39 O         -53.9682  -27.6493   14.1656 O.2       10 UNK        -0.5224 
     40 CA        -53.3821  -25.5305   13.1764 C.3       9 UNK         0.0343 
     41 CB        -54.7400  -25.0136   13.6933 C.3       9 UNK        -0.2003 
     42 N         -52.3030  -24.5992   13.5451 N.am      9 UNK        -0.4272 
     43 C         -51.7423  -24.4454   14.7585 C.2       9 UNK         0.4988 
     44 O         -52.1540  -25.0140   15.7708 O.2       9 UNK        -0.5108 
     45 CA        -50.4723  -23.5804   14.8723 C.3       8 UNK         0.0248 
     46 CB        -49.3341  -24.3868   15.5254 C.3       8 UNK        -0.2001 
     47 N         -50.0024  -23.1025   13.5711 N.am      8 UNK        -0.4140 
     48 C         -50.0934  -21.8423   13.1261 C.2       8 UNK         0.5028 
     49 O         -50.5456  -20.9107   13.7931 O.2       8 UNK        -0.5428 
     50 CA        -49.6133  -21.5643   11.6861 C.3       7 UNK         0.0264 
     51 CB        -48.1921  -20.9786   11.7009 C.3       7 UNK        -0.1988 
     52 N         -49.6339  -22.7304   10.7955 N.am      7 UNK        -0.4454 
     53 C         -50.7193  -23.4585   10.4947 C.2       7 UNK         0.5027 
     54 O         -51.8404  -23.2210   10.9438 O.2       7 UNK        -0.5083 
     55 CA        -50.4952  -24.7194    9.6338 C.3       6 UNK         0.0844 
     56 C56       -50.4541  -24.3838    8.1202 C.3       14 UNK        -0.0967 
     57 S57       -52.0371  -24.0507    7.2556 S.3       14 UNK        -0.2604 
     58 C58       -53.3874  -24.7687    8.2663 C.3       14 UNK         0.0134 
     59 N         -49.3006  -25.4625   10.0519 N.am      6 UNK        -0.4116 
     60 C         -49.1011  -25.9906   11.2680 C.2       5 UNK         0.5034 
     61 O         -49.8932  -25.8805   12.2018 O.2       5 UNK        -0.5045 
     62 CA        -47.7896  -26.7499   11.4962 C.3       5 UNK         0.0224 
     63 CB        -47.9694  -28.2389   11.1647 C.3       5 UNK        -0.1978 
     64 N         -46.6883  -26.1845   10.7134 N.am      5 UNK        -0.4737 
     65 C         -46.0247  -25.0778   11.0708 C.2       4 UNK         0.5027 
     66 O         -46.2387  -24.4598   12.1143 O.2       4 UNK        -0.5211 
     67 CA        -44.9584  -24.5588   10.0927 C.3       4 UNK         0.0297 
     68 CB        -43.7503  -25.5092   10.0432 C.3       4 UNK        -0.1993 
     69 N         -45.4402  -24.3118    8.7294 N.am      4 UNK        -0.4486 
     70 C         -46.5019  -23.5795    8.3694 C.2       3 UNK         0.4961 
     71 O         -47.3173  -23.1121    9.1641 O.2       3 UNK        -0.5105 
     72 CA        -46.7024  -23.2996    6.8678 C.3       3 UNK         0.0299 
     73 CB        -45.9393  -22.0299    6.4455 C.3       3 UNK        -0.1972 
     74 N         -46.4138  -24.4231    5.9660 N.am      3 UNK        -0.4305 
     75 C         -45.2510  -25.0292    5.6901 C.2       2 UNK         0.5006 
     76 O         -44.1791  -24.7340    6.2219 O.2       2 UNK        -0.5106 
     77 CA        -45.3228  -26.1943    4.6806 C.3       2 UNK         0.0296 
     78 CB        -43.9291  -26.6830    4.2435 C.3       2 UNK        -0.2002 
     79 N         -46.0692  -27.3263    5.2339 N.am      2 UNK        -0.4032 
     80 C         -47.3948  -27.3669    5.4351 C.2       1 UNK         0.5000 
     81 O         -48.1544  -26.4847    5.0258 O.2       1 UNK        -0.5238 
     82 H82       -44.2068  -29.3836    8.6068 H         1 UNK         0.0889 
     83 H83       -45.2687  -30.7540    8.2729 H         1 UNK         0.0889 
     84 H84       -45.4667  -29.8260    9.7604 H         1 UNK         0.0889 
     85 H85       -46.8534  -30.2694    6.7763 H         1 UNK         0.3028 
     86 H86       -48.3274  -29.2616    5.4880 H         1 UNK         0.0864 
     87 H87       -48.8859  -27.4452    7.8926 H         1 UNK         0.0720 
     88 H88       -49.8965  -27.5797    6.4829 H         1 UNK         0.0720 
     89 H89       -52.1098  -30.4634    7.0097 H         1 UNK         0.0814 
     90 H90       -51.5970  -29.1296    6.0193 H         1 UNK         0.0814 
     91 H91       -51.7979  -26.7305    7.0513 H         1 UNK         0.1469 
     92 H92       -55.1747  -26.2182    9.6381 H         1 UNK         0.1381 
     93 H93       -53.8056  -30.1548    8.6500 H         1 UNK         0.1206 
     94 H94       -56.2680  -29.6071    9.3576 H         1 UNK         0.0813 
     95 H95       -56.5494  -28.0850   10.1672 H         1 UNK         0.0813 
     96 H96       -56.9144  -31.1644   12.4077 H         1 UNK         0.0638 
     97 H97       -57.6809  -29.9491   11.4250 H         1 UNK         0.0638 
     98 H98       -57.1956  -28.2411   13.2899 H         1 UNK         0.0568 
     99 H99       -60.6938  -28.8369   13.5207 H         1 UNK         0.3450 
    100 H100      -59.4291  -27.9065   12.7619 H         1 UNK         0.3450 
    101 H101      -55.8242  -30.4307   14.4506 H         1 UNK         0.2987 
    102 H102      -55.9623  -29.5020   17.8211 H         1 UNK         0.0766 
    103 H103      -54.6287  -31.5335   17.5187 H         1 UNK         0.0798 
    104 H104      -54.5485  -31.3145   15.7781 H         1 UNK         0.0798 
    105 H105      -56.0822  -31.7138   16.5564 H         1 UNK         0.0798 
    106 H106      -54.0340  -28.3740   15.9615 H         1 UNK         0.3198 
    107 H107      -52.3038  -26.9272   17.8937 H         1 UNK         0.0843 
    108 H108      -50.0050  -27.8437   18.3296 H         1 UNK         0.0831 
    109 H109      -50.6684  -29.4779   18.3537 H         1 UNK         0.0831 
    110 H110      -51.1537  -28.3100   19.5717 H         1 UNK         0.0831 
    111 H111      -51.7654  -27.0008   15.7813 H         1 UNK         0.3133 
    112 H112      -50.1594  -28.5742   13.7174 H         1 UNK         0.0566 
    113 H113      -51.6604  -29.6125   11.9695 H         1 UNK         0.0814 
    114 H114      -51.2014  -30.7506   13.2259 H         1 UNK         0.0814 
    115 H115      -52.8072  -30.0375   13.2391 H         1 UNK         0.0814 
    116 H116      -51.1716  -26.7570   13.0142 H         1 UNK         0.3091 
    117 H117      -53.4213  -25.5428   12.0859 H         1 UNK         0.0702 
    118 H118      -55.5570  -25.6481   13.3470 H         1 UNK         0.0785 
    119 H119      -54.9403  -24.0031   13.3377 H         1 UNK         0.0785 
    120 H120      -54.7774  -25.0011   14.7832 H         1 UNK         0.0785 
    121 H121      -51.9129  -24.0749   12.7688 H         1 UNK         0.2998 
    122 H122      -50.7146  -22.7394   15.5249 H         1 UNK         0.0697 
    123 H123      -49.0813  -25.2727   14.9410 H         1 UNK         0.0825 
    124 H124      -49.6106  -24.7232   16.5256 H         1 UNK         0.0825 
    125 H125      -48.4309  -23.7850   15.6277 H         1 UNK         0.0825 
    126 H126      -49.6369  -23.8111   12.9467 H         1 UNK         0.3029 
    127 H127      -50.2888  -20.8188   11.2617 H         1 UNK         0.0897 
    128 H128      -47.8781  -20.6748   10.7019 H         1 UNK         0.0792 
    129 H129      -48.1363  -20.0965   12.3403 H         1 UNK         0.0792 
    130 H130      -47.4645  -21.7015   12.0734 H         1 UNK         0.0792 
    131 H131      -48.7489  -22.9747   10.3525 H         1 UNK         0.3086 
    132 H132      -51.3239  -25.3990    9.8292 H         1 UNK         0.0583 
    133 H133      -49.7947  -23.5337    7.9380 H         1 UNK         0.1020 
    134 H134      -49.9938  -25.2108    7.5786 H         1 UNK         0.1020 
    135 H135      -53.3696  -24.3442    9.2683 H         1 UNK         0.0694 
    136 H136      -54.3247  -24.4267    7.8252 H         1 UNK         0.0694 
    137 H137      -48.5568  -25.5540    9.3769 H         1 UNK         0.2989 
    138 H138      -47.5445  -26.6701   12.5580 H         1 UNK         0.1055 
    139 H139      -48.7565  -28.6837   11.7739 H         1 UNK         0.0806 
    140 H140      -47.0559  -28.8005   11.3579 H         1 UNK         0.0806 
    141 H141      -48.2484  -28.3926   10.1228 H         1 UNK         0.0806 
    142 H142      -46.4520  -26.6457    9.8331 H         1 UNK         0.3061 
    143 H143      -44.6119  -23.5983   10.4792 H         1 UNK         0.0734 
    144 H144      -42.9319  -25.0797    9.4652 H         1 UNK         0.0832 
    145 H145      -43.3681  -25.7100   11.0450 H         1 UNK         0.0832 
    146 H146      -44.0081  -26.4687    9.5932 H         1 UNK         0.0832 
    147 H147      -44.8418  -24.6320    7.9719 H         1 UNK         0.3156 
    148 H148      -47.7646  -23.0933    6.7319 H         1 UNK         0.0589 
    149 H149      -44.8605  -22.1454    6.5549 H         1 UNK         0.0808 
    150 H150      -46.1454  -21.7700    5.4072 H         1 UNK         0.0808 
    151 H151      -46.2360  -21.1770    7.0576 H         1 UNK         0.0808 
    152 H152      -47.2318  -24.8398    5.5277 H         1 UNK         0.3098 
    153 H153      -45.8433  -25.8300    3.7923 H         1 UNK         0.0720 
    154 H154      -44.0020  -27.4625    3.4848 H         1 UNK         0.0791 
    155 H155      -43.3579  -27.0832    5.0824 H         1 UNK         0.0791 
    156 H156      -43.3474  -25.8669    3.8127 H         1 UNK         0.0791 
    157 H157      -45.5190  -28.0739    5.6303 H         1 UNK         0.3028 
@<TRIPOS>BOND
     1    1    2 1    
     2    1   82 1    
     3    1   83 1    
     4    1   84 1    
     5    2    3 2    
     6    2    4 am   BACKBONE|DICT|INTERRES
     7    4    5 1    
     8    4   85 1    
     9    5    6 1    
    10    5   80 1    
    11    5   86 1    
    12    6    7 1    
    13    6   87 1    
    14    6   88 1    
    15    7    8 1    
    16    8    9 1    
    17    8   89 1    
    18    8   90 1    
    19    9   10 ar   
    20    9   14 ar   
    21   10   11 ar   
    22   10   91 1    
    23   11   12 ar   
    24   11   58 1    
    25   12   13 ar   
    26   12   92 1    
    27   13   14 ar   
    28   13   15 1    
    29   14   93 1    
    30   15   16 1    
    31   15   94 1    
    32   15   95 1    
    33   16   17 1    
    34   17   18 1    
    35   17   96 1    
    36   17   97 1    
    37   18   19 1    
    38   18   22 1    
    39   18   98 1    
    40   19   20 am   BACKBONE|DICT|INTERRES
    41   19   21 2    
    42   20   99 1    
    43   20  100 1    
    44   22   23 am   BACKBONE|DICT|INTERRES
    45   22  101 1    
    46   23   24 2    
    47   23   25 1    
    48   25   26 1    
    49   25   27 1    
    50   25  102 1    
    51   26  103 1    
    52   26  104 1    
    53   26  105 1    
    54   27   28 am   BACKBONE|DICT|INTERRES
    55   27  106 1    
    56   28   29 2    
    57   28   30 1    
    58   30   31 1    
    59   30   32 1    
    60   30  107 1    
    61   31  108 1    
    62   31  109 1    
    63   31  110 1    
    64   32   33 am   BACKBONE|DICT|INTERRES
    65   32  111 1    
    66   33   34 2    
    67   33   35 1    
    68   35   36 1    
    69   35   37 1    
    70   35  112 1    
    71   36  113 1    
    72   36  114 1    
    73   36  115 1    
    74   37   38 am   BACKBONE|DICT|INTERRES
    75   37  116 1    
    76   38   39 2    
    77   38   40 1    
    78   40   41 1    
    79   40   42 1    
    80   40  117 1    
    81   41  118 1    
    82   41  119 1    
    83   41  120 1    
    84   42   43 am   BACKBONE|DICT|INTERRES
    85   42  121 1    
    86   43   44 2    
    87   43   45 1    
    88   45   46 1    
    89   45   47 1    
    90   45  122 1    
    91   46  123 1    
    92   46  124 1    
    93   46  125 1    
    94   47   48 am   BACKBONE|DICT|INTERRES
    95   47  126 1    
    96   48   49 2    
    97   48   50 1    
    98   50   51 1    
    99   50   52 1    
   100   50  127 1    
   101   51  128 1    
   102   51  129 1    
   103   51  130 1    
   104   52   53 am   BACKBONE|DICT|INTERRES
   105   52  131 1    
   106   53   54 2    
   107   53   55 1    
   108   55   56 1    
   109   55   59 1    
   110   55  132 1    
   111   56   57 1    
   112   56  133 1    
   113   56  134 1    
   114   57   58 1    
   115   58  135 1    
   116   58  136 1    
   117   59   60 am   BACKBONE|DICT|INTERRES
   118   59  137 1    
   119   60   61 2    
   120   60   62 1    
   121   62   63 1    
   122   62   64 1    
   123   62  138 1    
   124   63  139 1    
   125   63  140 1    
   126   63  141 1    
   127   64   65 am   BACKBONE|DICT|INTERRES
   128   64  142 1    
   129   65   66 2    
   130   65   67 1    
   131   67   68 1    
   132   67   69 1    
   133   67  143 1    
   134   68  144 1    
   135   68  145 1    
   136   68  146 1    
   137   69   70 am   BACKBONE|DICT|INTERRES
   138   69  147 1    
   139   70   71 2    
   140   70   72 1    
   141   72   73 1    
   142   72   74 1    
   143   72  148 1    
   144   73  149 1    
   145   73  150 1    
   146   73  151 1    
   147   74   75 am   BACKBONE|DICT|INTERRES
   148   74  152 1    
   149   75   76 2    
   150   75   77 1    
   151   77   78 1    
   152   77   79 1    
   153   77  153 1    
   154   78  154 1    
   155   78  155 1    
   156   78  156 1    
   157   79   80 am   BACKBONE|DICT|INTERRES
   158   79  157 1    
   159   80   81 2    
@<TRIPOS>SUBSTRUCTURE
     1 UNK         1 GROUP             0       ****    0 ROOT    
