@<TRIPOS>MOLECULE
3R207
157   159    1
SMALL
USER_CHARGES


@<TRIPOS>ATOM
      1 CA        -52.8028  -29.2815    1.6124 C.3       0 UNK        -0.1975 
      2 C         -53.0135  -28.5930    2.9531 C.2       0 UNK         0.4852 
      3 O         -53.8187  -27.6647    3.0435 O.2       0 UNK        -0.5216 
      4 N         -52.3037  -29.0470    3.9939 N.am      1 UNK        -0.4461 
      5 CA        -52.3395  -28.4789    5.3471 C.3       1 UNK         0.0864 
      6 C6        -51.7732  -29.4638    6.4015 C.3       14 UNK        -0.0898 
      7 S7        -52.7358  -31.0143    6.4362 S.3       14 UNK        -0.2598 
      8 C8        -51.5853  -32.1630    7.2562 C.3       14 UNK         0.0286 
      9 C9        -51.5042  -31.8996    8.7519 C.ar      14 UNK        -0.0844 
     10 C10       -50.3350  -31.3898    9.3232 C.ar      14 UNK        -0.0881 
     11 C11       -50.2676  -31.1341   10.6974 C.ar      14 UNK        -0.0643 
     12 C12       -51.3886  -31.3819   11.4964 C.ar      14 UNK        -0.0930 
     13 C13       -52.5620  -31.8975   10.9360 C.ar      14 UNK        -0.0827 
     14 C14       -52.6042  -32.1758    9.5679 C.ar      14 UNK        -0.1249 
     15 C15       -53.7798  -32.1601   11.8104 C.3       14 UNK         0.0141 
     16 S16       -54.5943  -30.6119   12.3159 S.3       14 UNK        -0.2313 
     17 C17       -55.5793  -30.1601   10.8414 C.3       14 UNK        -0.0915 
     18 CA        -54.7986  -29.3901    9.7337 C.3       13 UNK         0.0968 
     19 C         -55.7143  -28.9702    8.5445 C.2       13 UNK         0.5732 
     20 N         -55.5945  -27.7648    8.0005 N.am      13 UNK        -0.7310 
     21 O         -56.5260  -29.7667    8.0796 O.2       13 UNK        -0.5035 
     22 N         -53.8999  -28.3478   10.2574 N.am      13 UNK        -0.4233 
     23 C         -54.2481  -27.2273   10.8990 C.2       13 UNK         0.4989 
     24 O         -55.4093  -26.8577   11.0865 O.2       13 UNK        -0.4996 
     25 CA        -53.0688  -26.3503   11.3434 C.3       12 UNK         0.0216 
     26 CB        -52.4484  -25.6221   10.1363 C.3       12 UNK        -0.1964 
     27 N         -53.4490  -25.3614   12.3507 N.am      12 UNK        -0.4276 
     28 C         -53.6151  -25.6217   13.6542 C.2       12 UNK         0.5020 
     29 O         -53.5639  -26.7521   14.1419 O.2       12 UNK        -0.5489 
     30 CA        -53.8783  -24.3896   14.5381 C.3       11 UNK         0.0294 
     31 CB        -55.3877  -24.1449   14.7425 C.3       11 UNK        -0.2019 
     32 N         -53.1273  -24.4112   15.8027 N.am      11 UNK        -0.4493 
     33 C         -53.3801  -25.1061   16.9226 C.2       11 UNK         0.4932 
     34 O         -54.3309  -25.8762   17.0726 O.2       11 UNK        -0.5029 
     35 CA        -52.4269  -24.8323   18.1044 C.3       10 UNK         0.0280 
     36 CB        -52.8568  -25.5406   19.4080 C.3       10 UNK        -0.1976 
     37 N         -51.0201  -25.1158   17.8023 N.am      10 UNK        -0.4242 
     38 C         -50.4622  -26.2894   17.4696 C.2       10 UNK         0.5072 
     39 O         -51.0941  -27.3406   17.3506 O.2       10 UNK        -0.5224 
     40 CA        -48.9259  -26.2938   17.2843 C.3       9 UNK         0.0343 
     41 CB        -48.4016  -27.6168   16.6945 C.3       9 UNK        -0.2003 
     42 N         -48.4426  -25.1837   16.4573 N.am      9 UNK        -0.4272 
     43 C         -48.3046  -23.9119   16.8565 C.2       9 UNK         0.4988 
     44 O         -48.5351  -23.5328   18.0052 O.2       9 UNK        -0.5108 
     45 CA        -47.9099  -22.8773   15.7887 C.3       8 UNK         0.0248 
     46 CB        -46.3821  -22.8087   15.6382 C.3       8 UNK        -0.2001 
     47 N         -48.5244  -23.1354   14.4838 N.am      8 UNK        -0.4140 
     48 C         -49.8452  -23.1566   14.2479 C.2       8 UNK         0.5028 
     49 O         -50.7069  -22.9009   15.0925 O.2       8 UNK        -0.5428 
     50 CA        -50.2823  -23.5921   12.8410 C.3       7 UNK         0.0264 
     51 CB        -50.1257  -22.4488   11.8270 C.3       7 UNK        -0.1988 
     52 N         -49.5765  -24.7869   12.3701 N.am      7 UNK        -0.4454 
     53 C         -49.6147  -25.9883   12.9693 C.2       7 UNK         0.5027 
     54 O         -50.2932  -26.2349   13.9625 O.2       7 UNK        -0.5083 
     55 CA        -48.7045  -27.0895   12.3953 C.3       6 UNK         0.0844 
     56 C56       -49.3873  -27.8378   11.2244 C.3       14 UNK        -0.0967 
     57 S57       -48.3165  -29.1403   10.5295 S.3       14 UNK        -0.2604 
     58 C58       -48.9709  -30.6399   11.3279 C.3       14 UNK         0.0134 
     59 N         -47.3944  -26.5424   12.0399 N.am      6 UNK        -0.4116 
     60 C         -46.4761  -26.1323   12.9245 C.2       5 UNK         0.5034 
     61 O         -46.6164  -26.1994   14.1454 O.2       5 UNK        -0.5045 
     62 CA        -45.2022  -25.5007   12.3406 C.3       5 UNK         0.0224 
     63 CB        -44.1905  -26.5874   11.9434 C.3       5 UNK        -0.1978 
     64 N         -45.4817  -24.6413   11.1860 N.am      5 UNK        -0.4737 
     65 C         -46.1835  -23.5015   11.2528 C.2       4 UNK         0.5027 
     66 O         -46.6305  -23.0354   12.3002 O.2       4 UNK        -0.5211 
     67 CA        -46.4726  -22.7851    9.9238 C.3       4 UNK         0.0297 
     68 CB        -45.3002  -21.8678    9.5424 C.3       4 UNK        -0.1993 
     69 N         -46.7738  -23.6920    8.8094 N.am      4 UNK        -0.4486 
     70 C         -47.7999  -24.5530    8.7755 C.2       3 UNK         0.4961 
     71 O         -48.5638  -24.7545    9.7222 O.2       3 UNK        -0.5105 
     72 CA        -47.9815  -25.3530    7.4771 C.3       3 UNK         0.0299 
     73 CB        -47.3321  -26.7388    7.5981 C.3       3 UNK        -0.1972 
     74 N         -49.4008  -25.5097    7.1538 N.am      3 UNK        -0.4305 
     75 C         -50.1722  -24.5290    6.6650 C.2       2 UNK         0.5006 
     76 O         -49.7400  -23.4060    6.3962 O.2       2 UNK        -0.5106 
     77 CA        -51.6736  -24.8282    6.4508 C.3       2 UNK         0.0296 
     78 CB        -52.2613  -24.0200    5.2732 C.3       2 UNK        -0.2002 
     79 N         -52.0416  -26.2479    6.3156 N.am      2 UNK        -0.4032 
     80 C         -51.6114  -27.1172    5.3873 C.2       1 UNK         0.5000 
     81 O         -50.6937  -26.8857    4.5950 O.2       1 UNK        -0.5238 
     82 H82       -52.0782  -30.0928    1.6801 H         1 UNK         0.0889 
     83 H83       -52.4412  -28.5645    0.8758 H         1 UNK         0.0889 
     84 H84       -53.7435  -29.6966    1.2517 H         1 UNK         0.0889 
     85 H85       -51.6499  -29.8042    3.8583 H         1 UNK         0.3028 
     86 H86       -53.3882  -28.2941    5.5934 H         1 UNK         0.0864 
     87 H87       -50.7260  -29.6914    6.1932 H         1 UNK         0.0720 
     88 H88       -51.8045  -29.0287    7.4023 H         1 UNK         0.0720 
     89 H89       -50.6022  -32.0988    6.7873 H         1 UNK         0.0814 
     90 H90       -51.9338  -33.1841    7.0946 H         1 UNK         0.0814 
     91 H91       -49.4720  -31.1946    8.7013 H         1 UNK         0.1469 
     92 H92       -51.3501  -31.1824   12.5588 H         1 UNK         0.1381 
     93 H93       -53.5072  -32.5766    9.1272 H         1 UNK         0.1206 
     94 H94       -54.4977  -32.8079   11.3050 H         1 UNK         0.0813 
     95 H95       -53.4646  -32.6974   12.7059 H         1 UNK         0.0813 
     96 H96       -56.0240  -31.0685   10.4314 H         1 UNK         0.0638 
     97 H97       -56.4141  -29.5508   11.1916 H         1 UNK         0.0638 
     98 H98       -54.1226  -30.1009    9.2683 H         1 UNK         0.0568 
     99 H99       -55.0008  -27.0745    8.4265 H         1 UNK         0.3450 
    100 H100      -56.1938  -27.5154    7.2299 H         1 UNK         0.3450 
    101 H101      -52.9188  -28.5539   10.1473 H         1 UNK         0.2987 
    102 H102      -52.3137  -27.0029   11.7851 H         1 UNK         0.0766 
    103 H103      -52.0827  -26.3294    9.3917 H         1 UNK         0.0798 
    104 H104      -51.5966  -25.0099   10.4303 H         1 UNK         0.0798 
    105 H105      -53.1719  -24.9705    9.6447 H         1 UNK         0.0798 
    106 H106      -53.6058  -24.4221   12.0164 H         1 UNK         0.3198 
    107 H107      -53.4878  -23.5168   14.0124 H         1 UNK         0.0843 
    108 H108      -55.8810  -23.9561   13.7883 H         1 UNK         0.0831 
    109 H109      -55.5702  -23.2796   15.3796 H         1 UNK         0.0831 
    110 H110      -55.8844  -25.0060   15.1902 H         1 UNK         0.0831 
    111 H111      -52.2725  -23.8583   15.7812 H         1 UNK         0.3133 
    112 H112      -52.4803  -23.7588   18.2922 H         1 UNK         0.0566 
    113 H113      -52.1992  -25.2800   20.2372 H         1 UNK         0.0814 
    114 H114      -52.8500  -26.6259   19.3025 H         1 UNK         0.0814 
    115 H115      -53.8683  -25.2496   19.6940 H         1 UNK         0.0814 
    116 H116      -50.3864  -24.3266   17.8805 H         1 UNK         0.3091 
    117 H117      -48.4923  -26.1890   18.2810 H         1 UNK         0.0702 
    118 H118      -47.3158  -27.6064   16.5979 H         1 UNK         0.0785 
    119 H119      -48.8232  -27.8098   15.7078 H         1 UNK         0.0785 
    120 H120      -48.6612  -28.4623   17.3326 H         1 UNK         0.0785 
    121 H121      -48.2305  -25.4092   15.4931 H         1 UNK         0.2998 
    122 H122      -48.2634  -21.9017   16.1287 H         1 UNK         0.0697 
    123 H123      -45.9697  -23.7495   15.2723 H         1 UNK         0.0825 
    124 H124      -45.9041  -22.5917   16.5944 H         1 UNK         0.0825 
    125 H125      -46.0873  -22.0229   14.9424 H         1 UNK         0.0825 
    126 H126      -47.8890  -23.2979   13.7053 H         1 UNK         0.3029 
    127 H127      -51.3390  -23.8413   12.8962 H         1 UNK         0.0897 
    128 H128      -49.0911  -22.1177   11.7458 H         1 UNK         0.0792 
    129 H129      -50.7197  -21.5835   12.1236 H         1 UNK         0.0792 
    130 H130      -50.4596  -22.7473   10.8330 H         1 UNK         0.0792 
    131 H131      -49.0367  -24.6908   11.5116 H         1 UNK         0.3086 
    132 H132      -48.5433  -27.8181   13.1931 H         1 UNK         0.0583 
    133 H133      -50.3254  -28.2876   11.5536 H         1 UNK         0.1020 
    134 H134      -49.6448  -27.1469   10.4198 H         1 UNK         0.1020 
    135 H135      -48.2245  -31.4305   11.2423 H         1 UNK         0.0694 
    136 H136      -49.0958  -30.4514   12.3955 H         1 UNK         0.0694 
    137 H137      -47.2132  -26.4177   11.0553 H         1 UNK         0.2989 
    138 H138      -44.7549  -24.8824   13.1225 H         1 UNK         0.1055 
    139 H139      -44.5730  -27.2288   11.1483 H         1 UNK         0.0806 
    140 H140      -43.2524  -26.1501   11.6010 H         1 UNK         0.0806 
    141 H141      -43.9550  -27.2289   12.7940 H         1 UNK         0.0806 
    142 H142      -45.1467  -24.9487   10.2843 H         1 UNK         0.3061 
    143 H143      -47.3535  -22.1589   10.0770 H         1 UNK         0.0734 
    144 H144      -44.3916  -22.4345    9.3351 H         1 UNK         0.0832 
    145 H145      -45.5331  -21.2700    8.6610 H         1 UNK         0.0832 
    146 H146      -45.0719  -21.1715   10.3509 H         1 UNK         0.0832 
    147 H147      -46.1918  -23.6046    7.9882 H         1 UNK         0.3156 
    148 H148      -47.4959  -24.8175    6.6583 H         1 UNK         0.0589 
    149 H149      -47.4085  -27.2945    6.6633 H         1 UNK         0.0808 
    150 H150      -46.2717  -26.6586    7.8412 H         1 UNK         0.0808 
    151 H151      -47.8024  -27.3341    8.3786 H         1 UNK         0.0808 
    152 H152      -49.8249  -26.3972    7.3730 H         1 UNK         0.3098 
    153 H153      -52.1670  -24.4771    7.3576 H         1 UNK         0.0720 
    154 H154      -53.3297  -24.2037    5.1591 H         1 UNK         0.0791 
    155 H155      -51.7759  -24.2736    4.3301 H         1 UNK         0.0791 
    156 H156      -52.1364  -22.9473    5.4261 H         1 UNK         0.0791 
    157 H157      -52.7873  -26.5520    6.9242 H         1 UNK         0.3028 
@<TRIPOS>BOND
     1    1    2 1    
     2    1   82 1    
     3    1   83 1    
     4    1   84 1    
     5    2    3 2    
     6    2    4 am   BACKBONE|DICT|INTERRES
     7    4    5 1    
     8    4   85 1    
     9    5    6 1    
    10    5   80 1    
    11    5   86 1    
    12    6    7 1    
    13    6   87 1    
    14    6   88 1    
    15    7    8 1    
    16    8    9 1    
    17    8   89 1    
    18    8   90 1    
    19    9   10 ar   
    20    9   14 ar   
    21   10   11 ar   
    22   10   91 1    
    23   11   12 ar   
    24   11   58 1    
    25   12   13 ar   
    26   12   92 1    
    27   13   14 ar   
    28   13   15 1    
    29   14   93 1    
    30   15   16 1    
    31   15   94 1    
    32   15   95 1    
    33   16   17 1    
    34   17   18 1    
    35   17   96 1    
    36   17   97 1    
    37   18   19 1    
    38   18   22 1    
    39   18   98 1    
    40   19   20 am   BACKBONE|DICT|INTERRES
    41   19   21 2    
    42   20   99 1    
    43   20  100 1    
    44   22   23 am   BACKBONE|DICT|INTERRES
    45   22  101 1    
    46   23   24 2    
    47   23   25 1    
    48   25   26 1    
    49   25   27 1    
    50   25  102 1    
    51   26  103 1    
    52   26  104 1    
    53   26  105 1    
    54   27   28 am   BACKBONE|DICT|INTERRES
    55   27  106 1    
    56   28   29 2    
    57   28   30 1    
    58   30   31 1    
    59   30   32 1    
    60   30  107 1    
    61   31  108 1    
    62   31  109 1    
    63   31  110 1    
    64   32   33 am   BACKBONE|DICT|INTERRES
    65   32  111 1    
    66   33   34 2    
    67   33   35 1    
    68   35   36 1    
    69   35   37 1    
    70   35  112 1    
    71   36  113 1    
    72   36  114 1    
    73   36  115 1    
    74   37   38 am   BACKBONE|DICT|INTERRES
    75   37  116 1    
    76   38   39 2    
    77   38   40 1    
    78   40   41 1    
    79   40   42 1    
    80   40  117 1    
    81   41  118 1    
    82   41  119 1    
    83   41  120 1    
    84   42   43 am   BACKBONE|DICT|INTERRES
    85   42  121 1    
    86   43   44 2    
    87   43   45 1    
    88   45   46 1    
    89   45   47 1    
    90   45  122 1    
    91   46  123 1    
    92   46  124 1    
    93   46  125 1    
    94   47   48 am   BACKBONE|DICT|INTERRES
    95   47  126 1    
    96   48   49 2    
    97   48   50 1    
    98   50   51 1    
    99   50   52 1    
   100   50  127 1    
   101   51  128 1    
   102   51  129 1    
   103   51  130 1    
   104   52   53 am   BACKBONE|DICT|INTERRES
   105   52  131 1    
   106   53   54 2    
   107   53   55 1    
   108   55   56 1    
   109   55   59 1    
   110   55  132 1    
   111   56   57 1    
   112   56  133 1    
   113   56  134 1    
   114   57   58 1    
   115   58  135 1    
   116   58  136 1    
   117   59   60 am   BACKBONE|DICT|INTERRES
   118   59  137 1    
   119   60   61 2    
   120   60   62 1    
   121   62   63 1    
   122   62   64 1    
   123   62  138 1    
   124   63  139 1    
   125   63  140 1    
   126   63  141 1    
   127   64   65 am   BACKBONE|DICT|INTERRES
   128   64  142 1    
   129   65   66 2    
   130   65   67 1    
   131   67   68 1    
   132   67   69 1    
   133   67  143 1    
   134   68  144 1    
   135   68  145 1    
   136   68  146 1    
   137   69   70 am   BACKBONE|DICT|INTERRES
   138   69  147 1    
   139   70   71 2    
   140   70   72 1    
   141   72   73 1    
   142   72   74 1    
   143   72  148 1    
   144   73  149 1    
   145   73  150 1    
   146   73  151 1    
   147   74   75 am   BACKBONE|DICT|INTERRES
   148   74  152 1    
   149   75   76 2    
   150   75   77 1    
   151   77   78 1    
   152   77   79 1    
   153   77  153 1    
   154   78  154 1    
   155   78  155 1    
   156   78  156 1    
   157   79   80 am   BACKBONE|DICT|INTERRES
   158   79  157 1    
   159   80   81 2    
@<TRIPOS>SUBSTRUCTURE
     1 UNK         1 GROUP             0       ****    0 ROOT    
