@<TRIPOS>MOLECULE
3R207
157   159    1
SMALL
USER_CHARGES


@<TRIPOS>ATOM
      1 CA        -49.7404  -31.4667    2.7426 C.3       0 UNK        -0.1975 
      2 C         -49.4106  -30.3521    3.7248 C.2       0 UNK         0.4852 
      3 O         -49.4020  -29.1814    3.3407 O.2       0 UNK        -0.5216 
      4 N         -49.1487  -30.7064    4.9892 N.am      1 UNK        -0.4461 
      5 CA        -48.7708  -29.7762    6.0587 C.3       1 UNK         0.0864 
      6 C6        -48.9183  -30.4194    7.4613 C.3       14 UNK        -0.0898 
      7 S7        -50.6138  -30.9972    7.8243 S.3       14 UNK        -0.2598 
      8 C8        -51.1277  -29.9008    9.1886 C.3       14 UNK         0.0286 
      9 C9        -52.0282  -28.7685    8.7139 C.ar      14 UNK        -0.0844 
     10 C10       -51.5272  -27.7634    7.8823 C.ar      14 UNK        -0.0881 
     11 C11       -52.3495  -26.7182    7.4527 C.ar      14 UNK        -0.0643 
     12 C12       -53.6759  -26.6638    7.8880 C.ar      14 UNK        -0.0930 
     13 C13       -54.1870  -27.6531    8.7318 C.ar      14 UNK        -0.0827 
     14 C14       -53.3628  -28.7111    9.1285 C.ar      14 UNK        -0.1249 
     15 C15       -55.6301  -27.5714    9.2078 C.3       14 UNK         0.0141 
     16 S16       -55.7308  -26.9714   10.9244 S.3       14 UNK        -0.2313 
     17 C17       -55.5166  -28.5233   11.8610 C.3       14 UNK        -0.0915 
     18 CA        -56.4544  -28.6026   13.0932 C.3       13 UNK         0.0968 
     19 C         -56.4637  -30.0322   13.7115 C.2       13 UNK         0.5732 
     20 N         -56.1457  -30.2270   14.9865 N.am      13 UNK        -0.7310 
     21 O         -56.7858  -30.9940   13.0178 O.2       13 UNK        -0.5035 
     22 N         -56.1493  -27.5421   14.0624 N.am      13 UNK        -0.4233 
     23 C         -57.0407  -26.9769   14.8849 C.2       13 UNK         0.4989 
     24 O         -58.2497  -27.2142   14.8444 O.2       13 UNK        -0.4996 
     25 CA        -56.4917  -25.9821   15.9309 C.3       12 UNK         0.0216 
     26 CB        -57.4202  -25.8360   17.1552 C.3       12 UNK        -0.1964 
     27 N         -55.1186  -26.2716   16.3648 N.am      12 UNK        -0.4276 
     28 C         -54.6573  -27.4066   16.9084 C.2       12 UNK         0.5020 
     29 O         -55.3453  -28.4067   17.1248 O.2       12 UNK        -0.5489 
     30 CA        -53.1519  -27.4379   17.2184 C.3       11 UNK         0.0294 
     31 CB        -52.8872  -28.0240   18.6159 C.3       11 UNK        -0.2019 
     32 N         -52.3464  -28.1732   16.2372 N.am      11 UNK        -0.4493 
     33 C         -52.4192  -28.1303   14.8984 C.2       11 UNK         0.4932 
     34 O         -53.2939  -27.5482   14.2586 O.2       11 UNK        -0.5029 
     35 CA        -51.2390  -28.7772   14.1543 C.3       10 UNK         0.0280 
     36 CB        -51.4988  -28.9500   12.6472 C.3       10 UNK        -0.1976 
     37 N         -50.0633  -27.9292   14.3348 N.am      10 UNK        -0.4242 
     38 C         -49.2917  -27.9135   15.4303 C.2       10 UNK         0.5072 
     39 O         -49.3767  -28.7374   16.3426 O.2       10 UNK        -0.5224 
     40 CA        -48.3216  -26.7334   15.5591 C.3       9 UNK         0.0343 
     41 CB        -47.0704  -26.9540   14.6949 C.3       9 UNK        -0.2003 
     42 N         -48.9832  -25.4771   15.1919 N.am      9 UNK        -0.4272 
     43 C         -49.8136  -24.8029   16.0017 C.2       9 UNK         0.4988 
     44 O         -50.0805  -25.1480   17.1532 O.2       9 UNK        -0.5108 
     45 CA        -50.4388  -23.5189   15.4380 C.3       8 UNK         0.0248 
     46 CB        -49.3635  -22.5189   14.9765 C.3       8 UNK        -0.2001 
     47 N         -51.3506  -23.7967   14.3315 N.am      8 UNK        -0.4140 
     48 C         -52.6115  -24.2303   14.4427 C.2       8 UNK         0.5028 
     49 O         -53.1639  -24.4435   15.5230 O.2       8 UNK        -0.5428 
     50 CA        -53.4223  -24.4487   13.1460 C.3       7 UNK         0.0264 
     51 CB        -54.3296  -23.2374   12.8584 C.3       7 UNK        -0.1988 
     52 N         -52.6455  -24.8248   11.9523 N.am      7 UNK        -0.4454 
     53 C         -51.7192  -24.1102   11.2971 C.2       7 UNK         0.5027 
     54 O         -51.3550  -22.9806   11.6300 O.2       7 UNK        -0.5083 
     55 CA        -51.0538  -24.7787   10.0814 C.3       6 UNK         0.0844 
     56 C56       -51.3858  -23.9900    8.7866 C.3       14 UNK        -0.0967 
     57 S57       -50.5139  -24.6379    7.3165 S.3       14 UNK        -0.2604 
     58 C58       -51.8058  -25.6426    6.5239 C.3       14 UNK         0.0134 
     59 N         -49.6080  -24.9095   10.2642 N.am      6 UNK        -0.4116 
     60 C         -48.9495  -25.4729   11.2850 C.2       5 UNK         0.5034 
     61 O         -49.4833  -25.9678   12.2798 O.2       5 UNK        -0.5045 
     62 CA        -47.4173  -25.4884   11.1669 C.3       5 UNK         0.0224 
     63 CB        -46.9414  -26.8308   10.5897 C.3       5 UNK        -0.1978 
     64 N         -46.9108  -24.3860   10.3412 N.am      5 UNK        -0.4737 
     65 C         -46.7668  -23.1301   10.7915 C.2       4 UNK         0.5027 
     66 O         -46.9992  -22.8102   11.9576 O.2       4 UNK        -0.5211 
     67 CA        -46.3340  -22.0312    9.7975 C.3       4 UNK         0.0297 
     68 CB        -45.1731  -21.1797   10.3541 C.3       4 UNK        -0.1993 
     69 N         -46.0464  -22.4974    8.4336 N.am      4 UNK        -0.4486 
     70 C         -45.0381  -23.2785    8.0240 C.2       3 UNK         0.4961 
     71 O         -44.1581  -23.7332    8.7569 O.2       3 UNK        -0.5105 
     72 CA        -45.0335  -23.6316    6.5275 C.3       3 UNK         0.0299 
     73 CB        -43.8230  -22.9993    5.8212 C.3       3 UNK        -0.1972 
     74 N         -45.0267  -25.0793    6.3080 N.am      3 UNK        -0.4305 
     75 C         -45.9720  -25.9261    6.7360 C.2       2 UNK         0.5006 
     76 O         -46.9728  -25.5852    7.3748 O.2       2 UNK        -0.5106 
     77 CA        -45.7529  -27.4060    6.4078 C.3       2 UNK         0.0296 
     78 CB        -44.7857  -28.0575    7.4152 C.3       2 UNK        -0.2002 
     79 N         -47.0476  -28.0787    6.4381 N.am      2 UNK        -0.4032 
     80 C         -47.3302  -29.2550    5.8675 C.2       1 UNK         0.5000 
     81 O         -46.5016  -29.9345    5.2532 O.2       1 UNK        -0.5238 
     82 H82       -50.7309  -31.3102    2.3162 H         1 UNK         0.0889 
     83 H83       -49.7276  -32.4469    3.2190 H         1 UNK         0.0889 
     84 H84       -49.0158  -31.4757    1.9289 H         1 UNK         0.0889 
     85 H85       -49.1602  -31.6825    5.2470 H         1 UNK         0.3028 
     86 H86       -49.4418  -28.9191    5.9907 H         1 UNK         0.0864 
     87 H87       -48.2518  -31.2794    7.5532 H         1 UNK         0.0720 
     88 H88       -48.6007  -29.7194    8.2357 H         1 UNK         0.0720 
     89 H89       -50.2632  -29.4869    9.7080 H         1 UNK         0.0814 
     90 H90       -51.6505  -30.5108    9.9267 H         1 UNK         0.0814 
     91 H91       -50.4931  -27.7842    7.5760 H         1 UNK         0.1469 
     92 H92       -54.3115  -25.8482    7.5714 H         1 UNK         0.1381 
     93 H93       -53.7573  -29.4823    9.7749 H         1 UNK         0.1206 
     94 H94       -56.1183  -28.5414    9.1063 H         1 UNK         0.0813 
     95 H95       -56.1965  -26.8877    8.5737 H         1 UNK         0.0813 
     96 H96       -54.4727  -28.6054   12.1609 H         1 UNK         0.0638 
     97 H97       -55.7063  -29.3645   11.1931 H         1 UNK         0.0638 
     98 H98       -57.4713  -28.4459   12.7289 H         1 UNK         0.0568 
     99 H99       -56.1708  -31.1636   15.3551 H         1 UNK         0.3450 
    100 H100      -55.8945  -29.4568   15.5997 H         1 UNK         0.3450 
    101 H101      -55.1592  -27.3465   14.1884 H         1 UNK         0.2987 
    102 H102      -56.4499  -25.0145   15.4287 H         1 UNK         0.0766 
    103 H103      -58.4108  -25.4884   16.8594 H         1 UNK         0.0798 
    104 H104      -57.0255  -25.1121   17.8681 H         1 UNK         0.0798 
    105 H105      -57.5501  -26.7847   17.6773 H         1 UNK         0.0798 
    106 H106      -54.4304  -25.5469   16.1492 H         1 UNK         0.3198 
    107 H107      -52.7806  -26.4116   17.2234 H         1 UNK         0.0843 
    108 H108      -53.1561  -29.0799   18.6676 H         1 UNK         0.0831 
    109 H109      -53.4706  -27.5015   19.3753 H         1 UNK         0.0831 
    110 H110      -51.8373  -27.9294   18.8941 H         1 UNK         0.0831 
    111 H111      -51.5367  -28.6498   16.6165 H         1 UNK         0.3133 
    112 H112      -51.0554  -29.7643   14.5837 H         1 UNK         0.0566 
    113 H113      -50.6369  -29.3984   12.1543 H         1 UNK         0.0814 
    114 H114      -51.7069  -27.9994   12.1541 H         1 UNK         0.0814 
    115 H115      -52.3502  -29.6078   12.4724 H         1 UNK         0.0814 
    116 H116      -49.9262  -27.1984   13.6400 H         1 UNK         0.3091 
    117 H117      -48.0015  -26.6666   16.6014 H         1 UNK         0.0702 
    118 H118      -46.4971  -27.8066   15.0610 H         1 UNK         0.0785 
    119 H119      -46.4104  -26.0866   14.7159 H         1 UNK         0.0785 
    120 H120      -47.3257  -27.1642   13.6573 H         1 UNK         0.0785 
    121 H121      -48.8788  -25.1687   14.2343 H         1 UNK         0.2998 
    122 H122      -51.0068  -23.0468   16.2427 H         1 UNK         0.0697 
    123 H123      -48.8048  -22.8821   14.1129 H         1 UNK         0.0825 
    124 H124      -48.6443  -22.3216   15.7727 H         1 UNK         0.0825 
    125 H125      -49.8093  -21.5630   14.7009 H         1 UNK         0.0825 
    126 H126      -51.0238  -23.5816   13.3944 H         1 UNK         0.3029 
    127 H127      -54.0822  -25.2948   13.3385 H         1 UNK         0.0897 
    128 H128      -53.7539  -22.3329   12.6604 H         1 UNK         0.0792 
    129 H129      -54.9786  -23.0276   13.7097 H         1 UNK         0.0792 
    130 H130      -54.9740  -23.4221   11.9988 H         1 UNK         0.0792 
    131 H131      -52.8372  -25.7586   11.6146 H         1 UNK         0.3086 
    132 H132      -51.4500  -25.7907    9.9864 H         1 UNK         0.0583 
    133 H133      -52.4618  -23.9877    8.6027 H         1 UNK         0.1020 
    134 H134      -51.1009  -22.9411    8.8942 H         1 UNK         0.1020 
    135 H135      -52.6040  -24.9850    6.1762 H         1 UNK         0.0694 
    136 H136      -51.3887  -26.1160    5.6340 H         1 UNK         0.0694 
    137 H137      -49.0534  -24.5509    9.5012 H         1 UNK         0.2989 
    138 H138      -47.0057  -25.3835   12.1723 H         1 UNK         0.1055 
    139 H139      -47.3434  -27.0096    9.5924 H         1 UNK         0.0806 
    140 H140      -47.2612  -27.6627   11.2185 H         1 UNK         0.0806 
    141 H141      -45.8538  -26.8705   10.5285 H         1 UNK         0.0806 
    142 H142      -46.7051  -24.5900    9.3697 H         1 UNK         0.3061 
    143 H143      -47.1987  -21.3725    9.7021 H         1 UNK         0.0734 
    144 H144      -44.2853  -21.7809   10.5519 H         1 UNK         0.0832 
    145 H145      -44.8945  -20.3851    9.6621 H         1 UNK         0.0832 
    146 H146      -45.4536  -20.7035   11.2945 H         1 UNK         0.0832 
    147 H147      -46.7236  -22.2136    7.7379 H         1 UNK         0.3156 
    148 H148      -45.9403  -23.2361    6.0646 H         1 UNK         0.0589 
    149 H149      -43.8425  -23.1908    4.7481 H         1 UNK         0.0808 
    150 H150      -43.8153  -21.9167    5.9555 H         1 UNK         0.0808 
    151 H151      -42.8803  -23.3821    6.2147 H         1 UNK         0.0808 
    152 H152      -44.2235  -25.4553    5.8252 H         1 UNK         0.3098 
    153 H153      -45.3390  -27.4783    5.3996 H         1 UNK         0.0720 
    154 H154      -45.1899  -28.0433    8.4274 H         1 UNK         0.0791 
    155 H155      -43.8283  -27.5355    7.4383 H         1 UNK         0.0791 
    156 H156      -44.5785  -29.0955    7.1547 H         1 UNK         0.0791 
    157 H157      -47.7702  -27.5380    6.8981 H         1 UNK         0.3028 
@<TRIPOS>BOND
     1    1    2 1    
     2    1   82 1    
     3    1   83 1    
     4    1   84 1    
     5    2    3 2    
     6    2    4 am   BACKBONE|DICT|INTERRES
     7    4    5 1    
     8    4   85 1    
     9    5    6 1    
    10    5   80 1    
    11    5   86 1    
    12    6    7 1    
    13    6   87 1    
    14    6   88 1    
    15    7    8 1    
    16    8    9 1    
    17    8   89 1    
    18    8   90 1    
    19    9   10 ar   
    20    9   14 ar   
    21   10   11 ar   
    22   10   91 1    
    23   11   12 ar   
    24   11   58 1    
    25   12   13 ar   
    26   12   92 1    
    27   13   14 ar   
    28   13   15 1    
    29   14   93 1    
    30   15   16 1    
    31   15   94 1    
    32   15   95 1    
    33   16   17 1    
    34   17   18 1    
    35   17   96 1    
    36   17   97 1    
    37   18   19 1    
    38   18   22 1    
    39   18   98 1    
    40   19   20 am   BACKBONE|DICT|INTERRES
    41   19   21 2    
    42   20   99 1    
    43   20  100 1    
    44   22   23 am   BACKBONE|DICT|INTERRES
    45   22  101 1    
    46   23   24 2    
    47   23   25 1    
    48   25   26 1    
    49   25   27 1    
    50   25  102 1    
    51   26  103 1    
    52   26  104 1    
    53   26  105 1    
    54   27   28 am   BACKBONE|DICT|INTERRES
    55   27  106 1    
    56   28   29 2    
    57   28   30 1    
    58   30   31 1    
    59   30   32 1    
    60   30  107 1    
    61   31  108 1    
    62   31  109 1    
    63   31  110 1    
    64   32   33 am   BACKBONE|DICT|INTERRES
    65   32  111 1    
    66   33   34 2    
    67   33   35 1    
    68   35   36 1    
    69   35   37 1    
    70   35  112 1    
    71   36  113 1    
    72   36  114 1    
    73   36  115 1    
    74   37   38 am   BACKBONE|DICT|INTERRES
    75   37  116 1    
    76   38   39 2    
    77   38   40 1    
    78   40   41 1    
    79   40   42 1    
    80   40  117 1    
    81   41  118 1    
    82   41  119 1    
    83   41  120 1    
    84   42   43 am   BACKBONE|DICT|INTERRES
    85   42  121 1    
    86   43   44 2    
    87   43   45 1    
    88   45   46 1    
    89   45   47 1    
    90   45  122 1    
    91   46  123 1    
    92   46  124 1    
    93   46  125 1    
    94   47   48 am   BACKBONE|DICT|INTERRES
    95   47  126 1    
    96   48   49 2    
    97   48   50 1    
    98   50   51 1    
    99   50   52 1    
   100   50  127 1    
   101   51  128 1    
   102   51  129 1    
   103   51  130 1    
   104   52   53 am   BACKBONE|DICT|INTERRES
   105   52  131 1    
   106   53   54 2    
   107   53   55 1    
   108   55   56 1    
   109   55   59 1    
   110   55  132 1    
   111   56   57 1    
   112   56  133 1    
   113   56  134 1    
   114   57   58 1    
   115   58  135 1    
   116   58  136 1    
   117   59   60 am   BACKBONE|DICT|INTERRES
   118   59  137 1    
   119   60   61 2    
   120   60   62 1    
   121   62   63 1    
   122   62   64 1    
   123   62  138 1    
   124   63  139 1    
   125   63  140 1    
   126   63  141 1    
   127   64   65 am   BACKBONE|DICT|INTERRES
   128   64  142 1    
   129   65   66 2    
   130   65   67 1    
   131   67   68 1    
   132   67   69 1    
   133   67  143 1    
   134   68  144 1    
   135   68  145 1    
   136   68  146 1    
   137   69   70 am   BACKBONE|DICT|INTERRES
   138   69  147 1    
   139   70   71 2    
   140   70   72 1    
   141   72   73 1    
   142   72   74 1    
   143   72  148 1    
   144   73  149 1    
   145   73  150 1    
   146   73  151 1    
   147   74   75 am   BACKBONE|DICT|INTERRES
   148   74  152 1    
   149   75   76 2    
   150   75   77 1    
   151   77   78 1    
   152   77   79 1    
   153   77  153 1    
   154   78  154 1    
   155   78  155 1    
   156   78  156 1    
   157   79   80 am   BACKBONE|DICT|INTERRES
   158   79  157 1    
   159   80   81 2    
@<TRIPOS>SUBSTRUCTURE
     1 UNK         1 GROUP             0       ****    0 ROOT    
