@<TRIPOS>MOLECULE
3R207
157   159    1
SMALL
USER_CHARGES


@<TRIPOS>ATOM
      1 CA        -46.4825  -33.2668    7.4444 C.3       0 UNK        -0.1975 
      2 C         -47.6959  -32.3924    7.1637 C.2       0 UNK         0.4852 
      3 O         -48.7199  -32.8968    6.7009 O.2       0 UNK        -0.5216 
      4 N         -47.5878  -31.0888    7.4376 N.am      1 UNK        -0.4461 
      5 CA        -48.6189  -30.0792    7.2136 C.3       1 UNK         0.0864 
      6 C6        -49.6640  -30.0726    8.3598 C.3       14 UNK        -0.0898 
      7 S7        -51.1579  -29.0973    7.9827 S.3       14 UNK        -0.2598 
      8 C8        -51.3979  -28.2303    9.5655 C.3       14 UNK         0.0286 
      9 C9        -52.5006  -27.1890    9.4873 C.ar      14 UNK        -0.0844 
     10 C10       -52.3371  -26.0708    8.6668 C.ar      14 UNK        -0.0881 
     11 C11       -53.3061  -25.0653    8.6371 C.ar      14 UNK        -0.0643 
     12 C12       -54.4641  -25.2013    9.4067 C.ar      14 UNK        -0.0930 
     13 C13       -54.6442  -26.3197   10.2248 C.ar      14 UNK        -0.0827 
     14 C14       -53.6527  -27.3061   10.2710 C.ar      14 UNK        -0.1249 
     15 C15       -55.8901  -26.4294   11.0911 C.3       14 UNK         0.0141 
     16 S16       -57.3096  -27.1306   10.1900 S.3       14 UNK        -0.2313 
     17 C17       -56.8507  -28.8904   10.0264 C.3       14 UNK        -0.0915 
     18 CA        -57.5111  -29.7946   11.1002 C.3       13 UNK         0.0968 
     19 C         -57.2927  -31.3011   10.7700 C.2       13 UNK         0.5732 
     20 N         -56.6206  -32.0810   11.6088 N.am      13 UNK        -0.7310 
     21 O         -57.7529  -31.7742    9.7334 O.2       13 UNK        -0.5035 
     22 N         -57.1070  -29.4043   12.4613 N.am      13 UNK        -0.4233 
     23 C         -57.7872  -29.6841   13.5777 C.2       13 UNK         0.4989 
     24 O         -58.8554  -30.2985   13.5921 O.2       13 UNK        -0.4996 
     25 CA        -57.1441  -29.2147   14.8976 C.3       12 UNK         0.0216 
     26 CB        -58.0316  -29.4992   16.1246 C.3       12 UNK        -0.1964 
     27 N         -55.8297  -29.8297   15.1088 N.am      12 UNK        -0.4276 
     28 C         -54.6892  -29.4241   14.5387 C.2       12 UNK         0.5020 
     29 O         -54.6155  -28.4857   13.7417 O.2       12 UNK        -0.5489 
     30 CA        -53.4303  -30.2254   14.8710 C.3       11 UNK         0.0294 
     31 CB        -53.2669  -31.4122   13.9036 C.3       11 UNK        -0.2019 
     32 N         -52.2809  -29.3332   14.7646 N.am      11 UNK        -0.4493 
     33 C         -51.1270  -29.4831   15.4226 C.2       11 UNK         0.4932 
     34 O         -50.8873  -30.4319   16.1709 O.2       11 UNK        -0.5029 
     35 CA        -50.0431  -28.4101   15.2131 C.3       10 UNK         0.0280 
     36 CB        -49.0688  -28.8605   14.1152 C.3       10 UNK        -0.1976 
     37 N         -50.5386  -27.0671   14.8919 N.am      10 UNK        -0.4242 
     38 C         -51.3008  -26.3061   15.6911 C.2       10 UNK         0.5072 
     39 O         -51.7996  -26.6961   16.7488 O.2       10 UNK        -0.5224 
     40 CA        -51.4695  -24.8413   15.2424 C.3       9 UNK         0.0343 
     41 CB        -52.3367  -23.9995   16.2019 C.3       9 UNK        -0.2003 
     42 N         -50.1657  -24.2058   15.0125 N.am      9 UNK        -0.4272 
     43 C         -49.1614  -24.0501   15.8914 C.2       9 UNK         0.4988 
     44 O         -49.2436  -24.3168   17.0909 O.2       9 UNK        -0.5108 
     45 CA        -47.8133  -23.5436   15.3434 C.3       8 UNK         0.0248 
     46 CB        -46.8383  -24.7214   15.1833 C.3       8 UNK        -0.2001 
     47 N         -47.9198  -22.8314   14.0670 N.am      8 UNK        -0.4140 
     48 C         -48.4528  -21.6093   13.9269 C.2       8 UNK         0.5028 
     49 O         -48.8581  -20.9253   14.8676 O.2       8 UNK        -0.5428 
     50 CA        -48.5790  -21.0665   12.4940 C.3       7 UNK         0.0264 
     51 CB        -47.2536  -20.4417   12.0296 C.3       7 UNK        -0.1988 
     52 N         -49.0065  -22.0808   11.5272 N.am      7 UNK        -0.4454 
     53 C         -50.1893  -22.7154   11.5469 C.2       7 UNK         0.5027 
     54 O         -51.0602  -22.5178   12.3946 O.2       7 UNK        -0.5083 
     55 CA        -50.4127  -23.7853   10.4592 C.3       6 UNK         0.0844 
     56 C56       -50.6392  -23.1409    9.0639 C.3       14 UNK        -0.0967 
     57 S57       -52.3289  -22.4968    8.8213 S.3       14 UNK        -0.2604 
     58 C58       -53.0836  -23.8105    7.8108 C.3       14 UNK         0.0134 
     59 N         -49.3133  -24.7562   10.4419 N.am      6 UNK        -0.4116 
     60 C         -48.9547  -25.5550   11.4592 C.2       5 UNK         0.5034 
     61 O         -49.5958  -25.6797   12.5029 O.2       5 UNK        -0.5045 
     62 CA        -47.6274  -26.3180   11.3112 C.3       5 UNK         0.0224 
     63 CB        -47.8443  -27.7035   10.6988 C.3       5 UNK        -0.1978 
     64 N         -46.6504  -25.5936   10.5009 N.am      5 UNK        -0.4737 
     65 C         -46.0027  -24.4944   10.9050 C.2       4 UNK         0.5027 
     66 O         -46.1396  -23.9883   12.0185 O.2       4 UNK        -0.5211 
     67 CA        -45.0981  -23.8220    9.8604 C.3       4 UNK         0.0297 
     68 CB        -43.7695  -24.5810    9.7168 C.3       4 UNK        -0.1993 
     69 N         -45.7529  -23.7119    8.5524 N.am      4 UNK        -0.4486 
     70 C         -46.8432  -22.9667    8.3269 C.2       3 UNK         0.4961 
     71 O         -47.3864  -22.2766    9.1886 O.2       3 UNK        -0.5105 
     72 CA        -47.4522  -23.0062    6.9169 C.3       3 UNK         0.0299 
     73 CB        -46.8031  -21.9328    6.0292 C.3       3 UNK        -0.1972 
     74 N         -47.3820  -24.3053    6.2404 N.am      3 UNK        -0.4305 
     75 C         -47.9051  -25.4622    6.6740 C.2       2 UNK         0.5006 
     76 O         -48.4228  -25.6095    7.7835 O.2       2 UNK        -0.5106 
     77 CA        -47.8854  -26.6127    5.6480 C.3       2 UNK         0.0296 
     78 CB        -46.4879  -26.8209    5.0178 C.3       2 UNK        -0.2002 
     79 N         -48.4401  -27.8812    6.1426 N.am      2 UNK        -0.4032 
     80 C         -47.8851  -28.7382    7.0115 C.2       1 UNK         0.5000 
     81 O         -46.8170  -28.5410    7.6005 O.2       1 UNK        -0.5238 
     82 H82       -46.1441  -33.7454    6.5258 H         1 UNK         0.0889 
     83 H83       -46.7398  -34.0465    8.1608 H         1 UNK         0.0889 
     84 H84       -45.6518  -32.6917    7.8533 H         1 UNK         0.0889 
     85 H85       -46.7157  -30.6977    7.7754 H         1 UNK         0.3028 
     86 H86       -49.1259  -30.3234    6.2770 H         1 UNK         0.0864 
     87 H87       -50.0041  -31.0913    8.5522 H         1 UNK         0.0720 
     88 H88       -49.2091  -29.7396    9.2922 H         1 UNK         0.0720 
     89 H89       -50.4792  -27.7191    9.8429 H         1 UNK         0.0814 
     90 H90       -51.6018  -28.9602   10.3508 H         1 UNK         0.0814 
     91 H91       -51.4358  -25.9736    8.0767 H         1 UNK         0.1469 
     92 H92       -55.2153  -24.4234    9.3872 H         1 UNK         0.1381 
     93 H93       -53.7727  -28.1570   10.9278 H         1 UNK         0.1206 
     94 H94       -55.6871  -27.0202   11.9813 H         1 UNK         0.0813 
     95 H95       -56.1668  -25.4383   11.4535 H         1 UNK         0.0813 
     96 H96       -57.1635  -29.1992    9.0272 H         1 UNK         0.0638 
     97 H97       -55.7679  -29.0048   10.0441 H         1 UNK         0.0638 
     98 H98       -58.5895  -29.6402   11.0294 H         1 UNK         0.0568 
     99 H99       -56.2546  -31.7098   12.4687 H         1 UNK         0.3450 
    100 H100      -56.4943  -33.0544   11.3811 H         1 UNK         0.3450 
    101 H101      -56.2134  -28.9350   12.5581 H         1 UNK         0.2987 
    102 H102      -57.0198  -28.1317   14.8260 H         1 UNK         0.0766 
    103 H103      -57.5841  -29.1060   17.0376 H         1 UNK         0.0798 
    104 H104      -58.1991  -30.5678   16.2659 H         1 UNK         0.0798 
    105 H105      -59.0094  -29.0272   16.0175 H         1 UNK         0.0798 
    106 H106      -55.8070  -30.6348   15.7192 H         1 UNK         0.3198 
    107 H107      -53.5106  -30.5923   15.8969 H         1 UNK         0.0843 
    108 H108      -53.1947  -31.0792   12.8671 H         1 UNK         0.0831 
    109 H109      -54.1146  -32.0948   13.9709 H         1 UNK         0.0831 
    110 H110      -52.3708  -31.9899   14.1312 H         1 UNK         0.0831 
    111 H111      -52.4415  -28.5058   14.2028 H         1 UNK         0.3133 
    112 H112      -49.4847  -28.3271   16.1477 H         1 UNK         0.0566 
    113 H113      -48.2631  -28.1404   13.9724 H         1 UNK         0.0814 
    114 H114      -48.6079  -29.8159   14.3698 H         1 UNK         0.0814 
    115 H115      -49.5844  -28.9927   13.1642 H         1 UNK         0.0814 
    116 H116      -50.1824  -26.6397   14.0393 H         1 UNK         0.3091 
    117 H117      -51.9745  -24.8668   14.2752 H         1 UNK         0.0702 
    118 H118      -53.3364  -24.4252   16.2956 H         1 UNK         0.0785 
    119 H119      -52.4506  -22.9788   15.8367 H         1 UNK         0.0785 
    120 H120      -51.9090  -23.9518   17.2037 H         1 UNK         0.0785 
    121 H121      -49.9738  -23.9779   14.0452 H         1 UNK         0.2998 
    122 H122      -47.3967  -22.8549   16.0814 H         1 UNK         0.0697 
    123 H123      -47.2132  -25.4576   14.4724 H         1 UNK         0.0825 
    124 H124      -46.6863  -25.2354   16.1334 H         1 UNK         0.0825 
    125 H125      -45.8608  -24.3859   14.8364 H         1 UNK         0.0825 
    126 H126      -47.5249  -23.2899   13.2499 H         1 UNK         0.3029 
    127 H127      -49.3398  -20.2831   12.5061 H         1 UNK         0.0897 
    128 H128      -47.3584  -19.9741   11.0503 H         1 UNK         0.0792 
    129 H129      -46.4592  -21.1858   11.9592 H         1 UNK         0.0792 
    130 H130      -46.9197  -19.6698   12.7243 H         1 UNK         0.0792 
    131 H131      -48.3584  -22.2790   10.7663 H         1 UNK         0.3086 
    132 H132      -51.3087  -24.3465   10.7324 H         1 UNK         0.0583 
    133 H133      -49.9462  -22.3183    8.8869 H         1 UNK         0.1020 
    134 H134      -50.4299  -23.8619    8.2739 H         1 UNK         0.1020 
    135 H135      -54.0368  -23.4523    7.4189 H         1 UNK         0.0694 
    136 H136      -52.4568  -24.0220    6.9430 H         1 UNK         0.0694 
    137 H137      -48.7625  -24.8035    9.5913 H         1 UNK         0.2989 
    138 H138      -47.2117  -26.4509   12.3116 H         1 UNK         0.1055 
    139 H139      -48.5815  -28.2769   11.2574 H         1 UNK         0.0806 
    140 H140      -46.9214  -28.2836   10.6864 H         1 UNK         0.0806 
    141 H141      -48.1978  -27.6192    9.6730 H         1 UNK         0.0806 
    142 H142      -46.5185  -25.9157    9.5517 H         1 UNK         0.3061 
    143 H143      -44.8782  -22.8122   10.2141 H         1 UNK         0.0734 
    144 H144      -43.0884  -24.0639    9.0406 H         1 UNK         0.0832 
    145 H145      -43.2644  -24.6650   10.6802 H         1 UNK         0.0832 
    146 H146      -43.9164  -25.5929    9.3372 H         1 UNK         0.0832 
    147 H147      -45.3688  -24.2510    7.7901 H         1 UNK         0.3156 
    148 H148      -48.5100  -22.7585    7.0136 H         1 UNK         0.0589 
    149 H149      -45.7484  -22.1421    5.8455 H         1 UNK         0.0808 
    150 H150      -47.3046  -21.8571    5.0641 H         1 UNK         0.0808 
    151 H151      -46.8627  -20.9496    6.4987 H         1 UNK         0.0808 
    152 H152      -46.9801  -24.2937    5.3141 H         1 UNK         0.3098 
    153 H153      -48.5595  -26.3048    4.8473 H         1 UNK         0.0720 
    154 H154      -46.4806  -27.6808    4.3478 H         1 UNK         0.0791 
    155 H155      -45.7195  -26.9833    5.7746 H         1 UNK         0.0791 
    156 H156      -46.1807  -25.9596    4.4243 H         1 UNK         0.0791 
    157 H157      -49.3474  -28.1220    5.7681 H         1 UNK         0.3028 
@<TRIPOS>BOND
     1    1    2 1    
     2    1   82 1    
     3    1   83 1    
     4    1   84 1    
     5    2    3 2    
     6    2    4 am   BACKBONE|DICT|INTERRES
     7    4    5 1    
     8    4   85 1    
     9    5    6 1    
    10    5   80 1    
    11    5   86 1    
    12    6    7 1    
    13    6   87 1    
    14    6   88 1    
    15    7    8 1    
    16    8    9 1    
    17    8   89 1    
    18    8   90 1    
    19    9   10 ar   
    20    9   14 ar   
    21   10   11 ar   
    22   10   91 1    
    23   11   12 ar   
    24   11   58 1    
    25   12   13 ar   
    26   12   92 1    
    27   13   14 ar   
    28   13   15 1    
    29   14   93 1    
    30   15   16 1    
    31   15   94 1    
    32   15   95 1    
    33   16   17 1    
    34   17   18 1    
    35   17   96 1    
    36   17   97 1    
    37   18   19 1    
    38   18   22 1    
    39   18   98 1    
    40   19   20 am   BACKBONE|DICT|INTERRES
    41   19   21 2    
    42   20   99 1    
    43   20  100 1    
    44   22   23 am   BACKBONE|DICT|INTERRES
    45   22  101 1    
    46   23   24 2    
    47   23   25 1    
    48   25   26 1    
    49   25   27 1    
    50   25  102 1    
    51   26  103 1    
    52   26  104 1    
    53   26  105 1    
    54   27   28 am   BACKBONE|DICT|INTERRES
    55   27  106 1    
    56   28   29 2    
    57   28   30 1    
    58   30   31 1    
    59   30   32 1    
    60   30  107 1    
    61   31  108 1    
    62   31  109 1    
    63   31  110 1    
    64   32   33 am   BACKBONE|DICT|INTERRES
    65   32  111 1    
    66   33   34 2    
    67   33   35 1    
    68   35   36 1    
    69   35   37 1    
    70   35  112 1    
    71   36  113 1    
    72   36  114 1    
    73   36  115 1    
    74   37   38 am   BACKBONE|DICT|INTERRES
    75   37  116 1    
    76   38   39 2    
    77   38   40 1    
    78   40   41 1    
    79   40   42 1    
    80   40  117 1    
    81   41  118 1    
    82   41  119 1    
    83   41  120 1    
    84   42   43 am   BACKBONE|DICT|INTERRES
    85   42  121 1    
    86   43   44 2    
    87   43   45 1    
    88   45   46 1    
    89   45   47 1    
    90   45  122 1    
    91   46  123 1    
    92   46  124 1    
    93   46  125 1    
    94   47   48 am   BACKBONE|DICT|INTERRES
    95   47  126 1    
    96   48   49 2    
    97   48   50 1    
    98   50   51 1    
    99   50   52 1    
   100   50  127 1    
   101   51  128 1    
   102   51  129 1    
   103   51  130 1    
   104   52   53 am   BACKBONE|DICT|INTERRES
   105   52  131 1    
   106   53   54 2    
   107   53   55 1    
   108   55   56 1    
   109   55   59 1    
   110   55  132 1    
   111   56   57 1    
   112   56  133 1    
   113   56  134 1    
   114   57   58 1    
   115   58  135 1    
   116   58  136 1    
   117   59   60 am   BACKBONE|DICT|INTERRES
   118   59  137 1    
   119   60   61 2    
   120   60   62 1    
   121   62   63 1    
   122   62   64 1    
   123   62  138 1    
   124   63  139 1    
   125   63  140 1    
   126   63  141 1    
   127   64   65 am   BACKBONE|DICT|INTERRES
   128   64  142 1    
   129   65   66 2    
   130   65   67 1    
   131   67   68 1    
   132   67   69 1    
   133   67  143 1    
   134   68  144 1    
   135   68  145 1    
   136   68  146 1    
   137   69   70 am   BACKBONE|DICT|INTERRES
   138   69  147 1    
   139   70   71 2    
   140   70   72 1    
   141   72   73 1    
   142   72   74 1    
   143   72  148 1    
   144   73  149 1    
   145   73  150 1    
   146   73  151 1    
   147   74   75 am   BACKBONE|DICT|INTERRES
   148   74  152 1    
   149   75   76 2    
   150   75   77 1    
   151   77   78 1    
   152   77   79 1    
   153   77  153 1    
   154   78  154 1    
   155   78  155 1    
   156   78  156 1    
   157   79   80 am   BACKBONE|DICT|INTERRES
   158   79  157 1    
   159   80   81 2    
@<TRIPOS>SUBSTRUCTURE
     1 UNK         1 GROUP             0       ****    0 ROOT    
