@<TRIPOS>MOLECULE
3R207
157   159    1
SMALL
USER_CHARGES


@<TRIPOS>ATOM
      1 CA        -47.2914  -32.4511    4.5508 C.3       0 UNK        -0.1975 
      2 C         -47.8340  -31.0493    4.7833 C.2       0 UNK         0.4852 
      3 O         -48.1053  -30.6895    5.9271 O.2       0 UNK        -0.5216 
      4 N         -47.9652  -30.2585    3.7086 N.am      1 UNK        -0.4461 
      5 CA        -48.5138  -28.8940    3.5948 C.3       1 UNK         0.0864 
      6 C6        -50.0675  -28.8321    3.7257 C.3       14 UNK        -0.0898 
      7 S7        -50.7503  -28.5342    5.3959 S.3       14 UNK        -0.2598 
      8 C8        -51.4900  -30.1466    5.7954 C.3       14 UNK         0.0286 
      9 C9        -51.8388  -30.2182    7.2734 C.ar      14 UNK        -0.0844 
     10 C10       -50.8176  -30.3718    8.2137 C.ar      14 UNK        -0.0881 
     11 C11       -51.1043  -30.3973    9.5805 C.ar      14 UNK        -0.0643 
     12 C12       -52.4322  -30.3053   10.0052 C.ar      14 UNK        -0.0930 
     13 C13       -53.4657  -30.1655    9.0738 C.ar      14 UNK        -0.0827 
     14 C14       -53.1640  -30.1160    7.7081 C.ar      14 UNK        -0.1249 
     15 C15       -54.9060  -30.0694    9.5496 C.3       14 UNK         0.0141 
     16 S16       -55.2830  -28.4046   10.1720 S.3       14 UNK        -0.2313 
     17 C17       -57.0436  -28.6198   10.5865 C.3       14 UNK        -0.0915 
     18 CA        -57.6717  -27.3304   11.1712 C.3       13 UNK         0.0968 
     19 C         -59.2099  -27.4853   11.3200 C.2       13 UNK         0.5732 
     20 N         -59.9670  -27.1757   10.2763 N.am      13 UNK        -0.7310 
     21 O         -59.7189  -27.9194   12.3524 O.2       13 UNK        -0.5035 
     22 N         -57.0250  -26.9492   12.4328 N.am      13 UNK        -0.4233 
     23 C         -57.1610  -25.7711   13.0463 C.2       13 UNK         0.4989 
     24 O         -57.7961  -24.8272   12.5736 O.2       13 UNK        -0.4996 
     25 CA        -56.4646  -25.5853   14.4085 C.3       12 UNK         0.0216 
     26 CB        -57.4343  -25.9003   15.5643 C.3       12 UNK        -0.1964 
     27 N         -55.1862  -26.2954   14.5828 N.am      12 UNK        -0.4276 
     28 C         -54.9407  -27.6135   14.6519 C.2       12 UNK         0.5020 
     29 O         -55.7951  -28.4820   14.4716 O.2       12 UNK        -0.5489 
     30 CA        -53.4911  -28.0412   14.9571 C.3       11 UNK         0.0294 
     31 CB        -52.7916  -28.4837   13.6622 C.3       11 UNK        -0.2019 
     32 N         -52.6960  -26.9961   15.6181 N.am      11 UNK        -0.4493 
     33 C         -52.9152  -26.5604   16.8692 C.2       11 UNK         0.4932 
     34 O         -53.7522  -27.0600   17.6232 O.2       11 UNK        -0.5029 
     35 CA        -52.1004  -25.3382   17.3326 C.3       10 UNK         0.0280 
     36 CB        -52.2678  -25.0240   18.8352 C.3       10 UNK        -0.1976 
     37 N         -50.6855  -25.4053   16.9589 N.am      10 UNK        -0.4242 
     38 C         -49.7627  -26.2798   17.3895 C.2       10 UNK         0.5072 
     39 O         -50.0019  -27.1873   18.1877 O.2       10 UNK        -0.5224 
     40 CA        -48.3224  -26.1338   16.8521 C.3       9 UNK         0.0343 
     41 CB        -47.9020  -27.3988   16.0849 C.3       9 UNK        -0.2003 
     42 N         -48.1201  -24.9662   15.9887 N.am      9 UNK        -0.4272 
     43 C         -48.0277  -23.6954   16.4047 C.2       9 UNK         0.4988 
     44 O         -48.0167  -23.3624   17.5900 O.2       9 UNK        -0.5108 
     45 CA        -47.9941  -22.6077   15.3134 C.3       8 UNK         0.0248 
     46 CB        -46.5537  -22.3440   14.8472 C.3       8 UNK        -0.2001 
     47 N         -48.8455  -22.9186   14.1570 N.am      8 UNK        -0.4140 
     48 C         -50.1782  -23.0689   14.2184 C.2       8 UNK         0.5028 
     49 O         -50.8348  -22.9180   15.2484 O.2       8 UNK        -0.5428 
     50 CA        -50.8988  -23.5272   12.9404 C.3       7 UNK         0.0264 
     51 CB        -51.0821  -22.3565   11.9622 C.3       7 UNK        -0.1988 
     52 N         -50.2112  -24.6401   12.2808 N.am      7 UNK        -0.4454 
     53 C         -50.0482  -25.8560   12.8238 C.2       7 UNK         0.5027 
     54 O         -50.5538  -26.1840   13.8980 O.2       7 UNK        -0.5083 
     55 CA        -49.1252  -26.8550   12.0934 C.3       6 UNK         0.0844 
     56 C56       -49.8861  -27.7145   11.0611 C.3       14 UNK        -0.0967 
     57 S57       -48.8371  -29.0916   10.4779 S.3       14 UNK        -0.2604 
     58 C58       -49.9732  -30.5094   10.5910 C.3       14 UNK         0.0134 
     59 N         -47.9575  -26.1949   11.5041 N.am      6 UNK        -0.4116 
     60 C         -46.9836  -25.6088   12.2113 C.2       5 UNK         0.5034 
     61 O         -46.9449  -25.5891   13.4401 O.2       5 UNK        -0.5045 
     62 CA        -45.8974  -24.8757   11.4135 C.3       5 UNK         0.0224 
     63 CB        -44.8403  -25.8600   10.8886 C.3       5 UNK        -0.1978 
     64 N         -46.4697  -24.1107   10.3039 N.am      5 UNK        -0.4737 
     65 C         -47.2071  -23.0027   10.4626 C.2       4 UNK         0.5027 
     66 O         -47.4463  -22.4936   11.5577 O.2       4 UNK        -0.5211 
     67 CA        -47.8077  -22.3805    9.1906 C.3       4 UNK         0.0297 
     68 CB        -46.7821  -21.4691    8.4988 C.3       4 UNK        -0.1993 
     69 N         -48.2986  -23.3824    8.2396 N.am      4 UNK        -0.4486 
     70 C         -49.3290  -24.2063    8.4774 C.2       3 UNK         0.4961 
     71 O         -49.9838  -24.2001    9.5172 O.2       3 UNK        -0.5105 
     72 CA        -49.6661  -25.2410    7.3937 C.3       3 UNK         0.0299 
     73 CB        -50.5880  -24.6275    6.3285 C.3       3 UNK        -0.1972 
     74 N         -48.4977  -25.8394    6.7442 N.am      3 UNK        -0.4305 
     75 C         -47.4997  -26.4864    7.3617 C.2       2 UNK         0.5006 
     76 O         -47.3748  -26.5366    8.5869 O.2       2 UNK        -0.5106 
     77 CA        -46.4834  -27.1996    6.4477 C.3       2 UNK         0.0296 
     78 CB        -45.4247  -27.9860    7.2427 C.3       2 UNK        -0.2002 
     79 N         -47.1546  -28.1169    5.5234 N.am      2 UNK        -0.4032 
     80 C         -47.7762  -27.7836    4.3859 C.2       1 UNK         0.5000 
     81 O         -47.7998  -26.6279    3.9560 O.2       1 UNK        -0.5238 
     82 H82       -46.3653  -32.5913    5.1075 H         1 UNK         0.0889 
     83 H83       -47.0871  -32.6425    3.4975 H         1 UNK         0.0889 
     84 H84       -48.0119  -33.1920    4.8963 H         1 UNK         0.0889 
     85 H85       -47.6664  -30.6410    2.8218 H         1 UNK         0.3028 
     86 H86       -48.3024  -28.6464    2.5530 H         1 UNK         0.0864 
     87 H87       -50.4337  -28.0132    3.1040 H         1 UNK         0.0720 
     88 H88       -50.5190  -29.7295    3.3001 H         1 UNK         0.0720 
     89 H89       -50.7923  -30.9476    5.5491 H         1 UNK         0.0814 
     90 H90       -52.3752  -30.3028    5.1772 H         1 UNK         0.0814 
     91 H91       -49.7899  -30.4355    7.8821 H         1 UNK         0.1469 
     92 H92       -52.6643  -30.3303   11.0606 H         1 UNK         0.1381 
     93 H93       -53.9591  -29.9937    6.9851 H         1 UNK         0.1206 
     94 H94       -55.0827  -30.8011   10.3395 H         1 UNK         0.0813 
     95 H95       -55.5923  -30.3174    8.7384 H         1 UNK         0.0813 
     96 H96       -57.1428  -29.4485   11.2904 H         1 UNK         0.0638 
     97 H97       -57.5648  -28.9204    9.6755 H         1 UNK         0.0638 
     98 H98       -57.4934  -26.5191   10.4623 H         1 UNK         0.0568 
     99 H99       -60.9667  -27.2835   10.3479 H         1 UNK         0.3450 
    100 H100      -59.5607  -26.8307    9.4206 H         1 UNK         0.3450 
    101 H101      -56.5446  -27.6863   12.9407 H         1 UNK         0.2987 
    102 H102      -56.2149  -24.5252   14.4768 H         1 UNK         0.0766 
    103 H103      -56.9777  -25.6949   16.5326 H         1 UNK         0.0798 
    104 H104      -57.7503  -26.9441   15.5572 H         1 UNK         0.0798 
    105 H105      -58.3357  -25.2899   15.4941 H         1 UNK         0.0798 
    106 H106      -54.3829  -25.6934   14.6951 H         1 UNK         0.3198 
    107 H107      -53.5398  -28.9006   15.6293 H         1 UNK         0.0843 
    108 H108      -52.7480  -27.6734   12.9335 H         1 UNK         0.0831 
    109 H109      -53.3290  -29.3100   13.1952 H         1 UNK         0.0831 
    110 H110      -51.7739  -28.8242   13.8540 H         1 UNK         0.0831 
    111 H111      -51.9422  -26.5809   15.0713 H         1 UNK         0.3133 
    112 H112      -52.5088  -24.4891   16.7833 H         1 UNK         0.0566 
    113 H113      -51.6991  -24.1389   19.1205 H         1 UNK         0.0814 
    114 H114      -53.3128  -24.8283   19.0788 H         1 UNK         0.0814 
    115 H115      -51.9392  -25.8520   19.4639 H         1 UNK         0.0814 
    116 H116      -50.3946  -24.7030   16.2878 H         1 UNK         0.3091 
    117 H117      -47.6663  -26.0309   17.7187 H         1 UNK         0.0702 
    118 H118      -46.8795  -27.3200   15.7152 H         1 UNK         0.0785 
    119 H119      -48.5548  -27.5847   15.2324 H         1 UNK         0.0785 
    120 H120      -47.9470  -28.2798   16.7264 H         1 UNK         0.0785 
    121 H121      -48.0235  -25.1531   14.9944 H         1 UNK         0.2998 
    122 H122      -48.3769  -21.6873   15.7591 H         1 UNK         0.0697 
    123 H123      -46.1103  -23.2241   14.3818 H         1 UNK         0.0825 
    124 H124      -45.9170  -22.0644   15.6876 H         1 UNK         0.0825 
    125 H125      -46.5136  -21.5286   14.1245 H         1 UNK         0.0825 
    126 H126      -48.3811  -23.0119   13.2578 H         1 UNK         0.3029 
    127 H127      -51.8909  -23.8794   13.2311 H         1 UNK         0.0897 
    128 H128      -51.6750  -22.6538   11.0970 H         1 UNK         0.0792 
    129 H129      -51.6020  -21.5254   12.4406 H         1 UNK         0.0792 
    130 H130      -50.1270  -21.9781   11.5978 H         1 UNK         0.0792 
    131 H131      -49.8552  -24.4633   11.3432 H         1 UNK         0.3086 
    132 H132      -48.7494  -27.5333   12.8620 H         1 UNK         0.0583 
    133 H133      -50.7994  -28.1211   11.4969 H         1 UNK         0.1020 
    134 H134      -50.1960  -27.1155   10.2028 H         1 UNK         0.1020 
    135 H135      -49.4143  -31.4261   10.3983 H         1 UNK         0.0694 
    136 H136      -50.3561  -30.5875   11.6099 H         1 UNK         0.0694 
    137 H137      -47.8819  -26.2148   10.4909 H         1 UNK         0.2989 
    138 H138      -45.4032  -24.1754   12.0908 H         1 UNK         0.1055 
    139 H139      -44.3602  -26.3876   11.7139 H         1 UNK         0.0806 
    140 H140      -44.0562  -25.3444   10.3341 H         1 UNK         0.0806 
    141 H141      -45.2759  -26.6149   10.2336 H         1 UNK         0.0806 
    142 H142      -46.3875  -24.5128    9.3803 H         1 UNK         0.3061 
    143 H143      -48.6573  -21.7655    9.4950 H         1 UNK         0.0734 
    144 H144      -47.2213  -20.9526    7.6452 H         1 UNK         0.0832 
    145 H145      -46.4177  -20.7034    9.1853 H         1 UNK         0.0832 
    146 H146      -45.9147  -22.0279    8.1451 H         1 UNK         0.0832 
    147 H147      -47.8131  -23.4635    7.3580 H         1 UNK         0.3156 
    148 H148      -50.2081  -26.0554    7.8790 H         1 UNK         0.0589 
    149 H149      -50.0897  -23.8349    5.7691 H         1 UNK         0.0808 
    150 H150      -50.9259  -25.3801    5.6157 H         1 UNK         0.0808 
    151 H151      -51.4790  -24.1951    6.7861 H         1 UNK         0.0808 
    152 H152      -48.4998  -25.8619    5.7298 H         1 UNK         0.3098 
    153 H153      -45.9666  -26.4299    5.8710 H         1 UNK         0.0720 
    154 H154      -44.7123  -28.4760    6.5790 H         1 UNK         0.0791 
    155 H155      -45.8815  -28.7528    7.8704 H         1 UNK         0.0791 
    156 H156      -44.8546  -27.3241    7.8954 H         1 UNK         0.0791 
    157 H157      -47.3020  -29.0710    5.8486 H         1 UNK         0.3028 
@<TRIPOS>BOND
     1    1    2 1    
     2    1   82 1    
     3    1   83 1    
     4    1   84 1    
     5    2    3 2    
     6    2    4 am   BACKBONE|DICT|INTERRES
     7    4    5 1    
     8    4   85 1    
     9    5    6 1    
    10    5   80 1    
    11    5   86 1    
    12    6    7 1    
    13    6   87 1    
    14    6   88 1    
    15    7    8 1    
    16    8    9 1    
    17    8   89 1    
    18    8   90 1    
    19    9   10 ar   
    20    9   14 ar   
    21   10   11 ar   
    22   10   91 1    
    23   11   12 ar   
    24   11   58 1    
    25   12   13 ar   
    26   12   92 1    
    27   13   14 ar   
    28   13   15 1    
    29   14   93 1    
    30   15   16 1    
    31   15   94 1    
    32   15   95 1    
    33   16   17 1    
    34   17   18 1    
    35   17   96 1    
    36   17   97 1    
    37   18   19 1    
    38   18   22 1    
    39   18   98 1    
    40   19   20 am   BACKBONE|DICT|INTERRES
    41   19   21 2    
    42   20   99 1    
    43   20  100 1    
    44   22   23 am   BACKBONE|DICT|INTERRES
    45   22  101 1    
    46   23   24 2    
    47   23   25 1    
    48   25   26 1    
    49   25   27 1    
    50   25  102 1    
    51   26  103 1    
    52   26  104 1    
    53   26  105 1    
    54   27   28 am   BACKBONE|DICT|INTERRES
    55   27  106 1    
    56   28   29 2    
    57   28   30 1    
    58   30   31 1    
    59   30   32 1    
    60   30  107 1    
    61   31  108 1    
    62   31  109 1    
    63   31  110 1    
    64   32   33 am   BACKBONE|DICT|INTERRES
    65   32  111 1    
    66   33   34 2    
    67   33   35 1    
    68   35   36 1    
    69   35   37 1    
    70   35  112 1    
    71   36  113 1    
    72   36  114 1    
    73   36  115 1    
    74   37   38 am   BACKBONE|DICT|INTERRES
    75   37  116 1    
    76   38   39 2    
    77   38   40 1    
    78   40   41 1    
    79   40   42 1    
    80   40  117 1    
    81   41  118 1    
    82   41  119 1    
    83   41  120 1    
    84   42   43 am   BACKBONE|DICT|INTERRES
    85   42  121 1    
    86   43   44 2    
    87   43   45 1    
    88   45   46 1    
    89   45   47 1    
    90   45  122 1    
    91   46  123 1    
    92   46  124 1    
    93   46  125 1    
    94   47   48 am   BACKBONE|DICT|INTERRES
    95   47  126 1    
    96   48   49 2    
    97   48   50 1    
    98   50   51 1    
    99   50   52 1    
   100   50  127 1    
   101   51  128 1    
   102   51  129 1    
   103   51  130 1    
   104   52   53 am   BACKBONE|DICT|INTERRES
   105   52  131 1    
   106   53   54 2    
   107   53   55 1    
   108   55   56 1    
   109   55   59 1    
   110   55  132 1    
   111   56   57 1    
   112   56  133 1    
   113   56  134 1    
   114   57   58 1    
   115   58  135 1    
   116   58  136 1    
   117   59   60 am   BACKBONE|DICT|INTERRES
   118   59  137 1    
   119   60   61 2    
   120   60   62 1    
   121   62   63 1    
   122   62   64 1    
   123   62  138 1    
   124   63  139 1    
   125   63  140 1    
   126   63  141 1    
   127   64   65 am   BACKBONE|DICT|INTERRES
   128   64  142 1    
   129   65   66 2    
   130   65   67 1    
   131   67   68 1    
   132   67   69 1    
   133   67  143 1    
   134   68  144 1    
   135   68  145 1    
   136   68  146 1    
   137   69   70 am   BACKBONE|DICT|INTERRES
   138   69  147 1    
   139   70   71 2    
   140   70   72 1    
   141   72   73 1    
   142   72   74 1    
   143   72  148 1    
   144   73  149 1    
   145   73  150 1    
   146   73  151 1    
   147   74   75 am   BACKBONE|DICT|INTERRES
   148   74  152 1    
   149   75   76 2    
   150   75   77 1    
   151   77   78 1    
   152   77   79 1    
   153   77  153 1    
   154   78  154 1    
   155   78  155 1    
   156   78  156 1    
   157   79   80 am   BACKBONE|DICT|INTERRES
   158   79  157 1    
   159   80   81 2    
@<TRIPOS>SUBSTRUCTURE
     1 UNK         1 GROUP             0       ****    0 ROOT    
