@<TRIPOS>MOLECULE
3R207
157   159    1
SMALL
USER_CHARGES


@<TRIPOS>ATOM
      1 CA        -48.9751  -24.6769    2.2778 C.3       0 UNK        -0.1975 
      2 C         -48.6257  -24.8545    3.7474 C.2       0 UNK         0.4852 
      3 O         -47.6194  -24.3106    4.2055 O.2       0 UNK        -0.5216 
      4 N         -49.4384  -25.6280    4.4838 N.am      1 UNK        -0.4461 
      5 CA        -49.3289  -25.8766    5.9305 C.3       1 UNK         0.0864 
      6 C6        -50.4336  -26.8264    6.4438 C.3       14 UNK        -0.0898 
      7 S7        -52.1435  -26.3455    6.0242 S.3       14 UNK        -0.2598 
      8 C8        -53.0260  -27.9269    6.2879 C.3       14 UNK         0.0286 
      9 C9        -53.0135  -28.3387    7.7547 C.ar      14 UNK        -0.0844 
     10 C10       -51.8948  -28.9813    8.2882 C.ar      14 UNK        -0.0881 
     11 C11       -51.7875  -29.2185    9.6601 C.ar      14 UNK        -0.0643 
     12 C12       -52.8755  -28.9201   10.4869 C.ar      14 UNK        -0.0930 
     13 C13       -54.0383  -28.3511    9.9544 C.ar      14 UNK        -0.0827 
     14 C14       -54.0937  -28.0448    8.5903 C.ar      14 UNK        -0.1249 
     15 C15       -55.2240  -28.0262   10.8506 C.3       14 UNK         0.0141 
     16 S16       -56.3473  -29.4503   11.0023 S.3       14 UNK        -0.2313 
     17 C17       -55.6623  -30.3128   12.4594 C.3       14 UNK        -0.0915 
     18 CA        -56.6356  -30.2964   13.6695 C.3       13 UNK         0.0968 
     19 C         -56.0781  -31.1189   14.8684 C.2       13 UNK         0.5732 
     20 N         -55.9900  -30.5791   16.0799 N.am      13 UNK        -0.7310 
     21 O         -55.7311  -32.2855   14.7003 O.2       13 UNK        -0.5035 
     22 N         -57.0310  -28.9283   14.0345 N.am      13 UNK        -0.4233 
     23 C         -58.2436  -28.5755   14.4821 C.2       13 UNK         0.4989 
     24 O         -59.1929  -29.3575   14.5639 O.2       13 UNK        -0.4996 
     25 CA        -58.4332  -27.1020   14.9091 C.3       12 UNK         0.0216 
     26 CB        -59.5544  -26.9281   15.9566 C.3       12 UNK        -0.1964 
     27 N         -57.1962  -26.4516   15.3653 N.am      12 UNK        -0.4276 
     28 C         -56.4047  -26.8515   16.3701 C.2       12 UNK         0.5020 
     29 O         -56.6367  -27.8212   17.0970 O.2       12 UNK        -0.5489 
     30 CA        -55.0947  -26.0705   16.5511 C.3       11 UNK         0.0294 
     31 CB        -55.0996  -25.2825   17.8704 C.3       11 UNK        -0.2019 
     32 N         -53.9368  -26.9641   16.5232 N.am      11 UNK        -0.4493 
     33 C         -53.6035  -27.7780   15.5124 C.2       11 UNK         0.4932 
     34 O         -54.2311  -27.8572   14.4538 O.2       11 UNK        -0.5029 
     35 CA        -52.3342  -28.6176   15.7274 C.3       10 UNK         0.0280 
     36 CB        -52.1032  -29.6471   14.6069 C.3       10 UNK        -0.1976 
     37 N         -51.1691  -27.7403   15.8118 N.am      10 UNK        -0.4242 
     38 C         -50.7567  -27.0934   16.9094 C.2       10 UNK         0.5072 
     39 O         -51.2918  -27.2079   18.0132 O.2       10 UNK        -0.5224 
     40 CA        -49.5824  -26.1228   16.7275 C.3       9 UNK         0.0343 
     41 CB        -48.2768  -26.8757   16.4184 C.3       9 UNK        -0.2003 
     42 N         -49.8705  -25.1718   15.6541 N.am      9 UNK        -0.4272 
     43 C         -50.5270  -24.0140   15.8181 C.2       9 UNK         0.4988 
     44 O         -50.9002  -23.5855   16.9105 O.2       9 UNK        -0.5108 
     45 CA        -50.8144  -23.1855   14.5527 C.3       8 UNK         0.0248 
     46 CB        -49.6802  -22.1792   14.2995 C.3       8 UNK        -0.2001 
     47 N         -51.0032  -24.0225   13.3651 N.am      8 UNK        -0.4140 
     48 C         -52.1080  -24.7499   13.1344 C.2       8 UNK         0.5028 
     49 O         -53.1145  -24.6893   13.8397 O.2       8 UNK        -0.5428 
     50 CA        -52.1061  -25.7076   11.9258 C.3       7 UNK         0.0264 
     51 CB        -52.8599  -25.0694   10.7476 C.3       7 UNK        -0.1988 
     52 N         -50.7735  -26.1084   11.4663 N.am      7 UNK        -0.4454 
     53 C         -49.8485  -26.7487   12.1959 C.2       7 UNK         0.5027 
     54 O         -50.0460  -27.1502   13.3421 O.2       7 UNK        -0.5083 
     55 CA        -48.4368  -26.9001   11.5882 C.3       6 UNK         0.0844 
     56 C56       -48.1575  -28.3562   11.1385 C.3       14 UNK        -0.0967 
     57 S57       -49.0246  -28.8593    9.6136 S.3       14 UNK        -0.2604 
     58 C58       -50.4876  -29.7698   10.2386 C.3       14 UNK         0.0134 
     59 N         -48.1016  -25.8952   10.5645 N.am      6 UNK        -0.4116 
     60 C         -48.1215  -24.5659   10.7580 C.2       5 UNK         0.5034 
     61 O         -48.4785  -24.0340   11.8114 O.2       5 UNK        -0.5045 
     62 CA        -47.6716  -23.7002    9.5709 C.3       5 UNK         0.0224 
     63 CB        -47.8516  -22.1855    9.8130 C.3       5 UNK        -0.1978 
     64 N         -46.2976  -24.0264    9.1737 N.am      5 UNK        -0.4737 
     65 C         -45.1718  -23.8458    9.8827 C.2       4 UNK         0.5027 
     66 O         -45.1298  -23.3051   10.9878 O.2       4 UNK        -0.5211 
     67 CA        -43.8586  -24.3716    9.2726 C.3       4 UNK         0.0297 
     68 CB        -43.4030  -25.6422   10.0095 C.3       4 UNK        -0.1993 
     69 N         -43.9461  -24.6690    7.8421 N.am      4 UNK        -0.4486 
     70 C         -44.0387  -23.7768    6.8496 C.2       3 UNK         0.4961 
     71 O         -44.0116  -22.5586    7.0250 O.2       3 UNK        -0.5105 
     72 CA        -44.2140  -24.3275    5.4199 C.3       3 UNK         0.0299 
     73 CB        -42.8496  -24.5447    4.7371 C.3       3 UNK        -0.1972 
     74 N         -45.0688  -25.5230    5.3207 N.am      3 UNK        -0.4305 
     75 C         -44.8521  -26.7613    5.7987 C.2       2 UNK         0.5006 
     76 O         -43.8237  -27.0857    6.3947 O.2       2 UNK        -0.5106 
     77 CA        -45.9782  -27.8020    5.6215 C.3       2 UNK         0.0296 
     78 CB        -45.9758  -28.8688    6.7390 C.3       2 UNK        -0.2002 
     79 N         -47.3124  -27.2074    5.4817 N.am      2 UNK        -0.4032 
     80 C         -47.9599  -26.4394    6.3736 C.2       1 UNK         0.5000 
     81 O         -47.5221  -26.1565    7.4910 O.2       1 UNK        -0.5238 
     82 H82       -49.8831  -25.2149    2.0060 H         1 UNK         0.0889 
     83 H83       -48.1621  -25.0440    1.6519 H         1 UNK         0.0889 
     84 H84       -49.1268  -23.6211    2.0547 H         1 UNK         0.0889 
     85 H85       -50.2537  -26.0354    4.0469 H         1 UNK         0.3028 
     86 H86       -49.4505  -24.9110    6.4253 H         1 UNK         0.0864 
     87 H87       -50.3721  -26.8916    7.5318 H         1 UNK         0.0720 
     88 H88       -50.2625  -27.8317    6.0541 H         1 UNK         0.0720 
     89 H89       -54.0537  -27.8194    5.9378 H         1 UNK         0.0814 
     90 H90       -52.5762  -28.7080    5.6730 H         1 UNK         0.0814 
     91 H91       -51.0659  -29.2371    7.6449 H         1 UNK         0.1469 
     92 H92       -52.8160  -29.1178   11.5463 H         1 UNK         0.1381 
     93 H93       -54.9722  -27.5636    8.1825 H         1 UNK         0.1206 
     94 H94       -54.8866  -27.6982   11.8344 H         1 UNK         0.0813 
     95 H95       -55.7824  -27.1867   10.4338 H         1 UNK         0.0813 
     96 H96       -54.7034  -29.8752   12.7364 H         1 UNK         0.0638 
     97 H97       -55.4473  -31.3391   12.1569 H         1 UNK         0.0638 
     98 H98       -57.5301  -30.8350   13.3518 H         1 UNK         0.0568 
     99 H99       -56.2854  -29.6252   16.2589 H         1 UNK         0.3450 
    100 H100      -55.6384  -31.1410   16.8378 H         1 UNK         0.3450 
    101 H101      -56.2748  -28.2541   14.0522 H         1 UNK         0.2987 
    102 H102      -58.7407  -26.5705   14.0073 H         1 UNK         0.0766 
    103 H103      -59.6832  -25.8810   16.2304 H         1 UNK         0.0798 
    104 H104      -59.3465  -27.4898   16.8679 H         1 UNK         0.0798 
    105 H105      -60.5121  -27.2790   15.5701 H         1 UNK         0.0798 
    106 H106      -56.8942  -25.6605   14.8120 H         1 UNK         0.3198 
    107 H107      -54.9800  -25.3628   15.7274 H         1 UNK         0.0843 
    108 H108      -55.1805  -25.9437   18.7344 H         1 UNK         0.0831 
    109 H109      -55.9426  -24.5914   17.9086 H         1 UNK         0.0831 
    110 H110      -54.1903  -24.6911   17.9826 H         1 UNK         0.0831 
    111 H111      -53.3387  -26.9677   17.3409 H         1 UNK         0.3133 
    112 H112      -52.4505  -29.1647   16.6652 H         1 UNK         0.0566 
    113 H113      -51.2293  -30.2652   14.8122 H         1 UNK         0.0814 
    114 H114      -52.9583  -30.3165   14.5072 H         1 UNK         0.0814 
    115 H115      -51.9475  -29.1610   13.6445 H         1 UNK         0.0814 
    116 H116      -50.7018  -27.5422   14.9271 H         1 UNK         0.3091 
    117 H117      -49.4416  -25.5818   17.6660 H         1 UNK         0.0702 
    118 H118      -47.4335  -26.1884   16.3491 H         1 UNK         0.0785 
    119 H119      -48.3319  -27.4300   15.4808 H         1 UNK         0.0785 
    120 H120      -48.0456  -27.5924   17.2076 H         1 UNK         0.0785 
    121 H121      -49.6532  -25.4739   14.7137 H         1 UNK         0.2998 
    122 H122      -51.7331  -22.6209   14.7260 H         1 UNK         0.0697 
    123 H123      -48.7218  -22.6781   14.1501 H         1 UNK         0.0825 
    124 H124      -49.5653  -21.5013   15.1463 H         1 UNK         0.0825 
    125 H125      -49.8795  -21.5682   13.4189 H         1 UNK         0.0825 
    126 H126      -50.2119  -24.0979   12.7314 H         1 UNK         0.3029 
    127 H127      -52.6333  -26.6120   12.2349 H         1 UNK         0.0897 
    128 H128      -52.8825  -25.7293    9.8807 H         1 UNK         0.0792 
    129 H129      -52.4017  -24.1294   10.4376 H         1 UNK         0.0792 
    130 H130      -53.8946  -24.8555   11.0187 H         1 UNK         0.0792 
    131 H131      -50.5217  -25.8355   10.5283 H         1 UNK         0.3086 
    132 H132      -47.7530  -26.7011   12.4163 H         1 UNK         0.0583 
    133 H133      -47.0887  -28.4664   10.9489 H         1 UNK         0.1020 
    134 H134      -48.3731  -29.0619   11.9433 H         1 UNK         0.1020 
    135 H135      -50.3942  -30.8213    9.9650 H         1 UNK         0.0694 
    136 H136      -50.5153  -29.7337   11.3285 H         1 UNK         0.0694 
    137 H137      -47.8210  -26.2483    9.6557 H         1 UNK         0.2989 
    138 H138      -48.3146  -23.9668    8.7313 H         1 UNK         0.1055 
    139 H139      -48.8996  -21.9451    9.9965 H         1 UNK         0.0806 
    140 H140      -47.5318  -21.6053    8.9475 H         1 UNK         0.0806 
    141 H141      -47.2874  -21.8363   10.6781 H         1 UNK         0.0806 
    142 H142      -46.2218  -24.5498    8.3095 H         1 UNK         0.3061 
    143 H143      -43.1001  -23.5987    9.4129 H         1 UNK         0.0734 
    144 H144      -42.4383  -25.9914    9.6408 H         1 UNK         0.0832 
    145 H145      -43.2914  -25.4562   11.0787 H         1 UNK         0.0832 
    146 H146      -44.1216  -26.4547    9.8929 H         1 UNK         0.0832 
    147 H147      -43.9266  -25.6494    7.5702 H         1 UNK         0.3156 
    148 H148      -44.7398  -23.5550    4.8562 H         1 UNK         0.0589 
    149 H149      -42.2436  -25.2871    5.2570 H         1 UNK         0.0808 
    150 H150      -42.9707  -24.8729    3.7048 H         1 UNK         0.0808 
    151 H151      -42.2751  -23.6177    4.7170 H         1 UNK         0.0808 
    152 H152      -45.9720  -25.3407    4.8928 H         1 UNK         0.3098 
    153 H153      -45.7702  -28.3100    4.6789 H         1 UNK         0.0720 
    154 H154      -46.7780  -29.5932    6.5985 H         1 UNK         0.0791 
    155 H155      -46.0997  -28.4228    7.7266 H         1 UNK         0.0791 
    156 H156      -45.0377  -29.4251    6.7500 H         1 UNK         0.0791 
    157 H157      -47.7683  -27.3641    4.5935 H         1 UNK         0.3028 
@<TRIPOS>BOND
     1    1    2 1    
     2    1   82 1    
     3    1   83 1    
     4    1   84 1    
     5    2    3 2    
     6    2    4 am   BACKBONE|DICT|INTERRES
     7    4    5 1    
     8    4   85 1    
     9    5    6 1    
    10    5   80 1    
    11    5   86 1    
    12    6    7 1    
    13    6   87 1    
    14    6   88 1    
    15    7    8 1    
    16    8    9 1    
    17    8   89 1    
    18    8   90 1    
    19    9   10 ar   
    20    9   14 ar   
    21   10   11 ar   
    22   10   91 1    
    23   11   12 ar   
    24   11   58 1    
    25   12   13 ar   
    26   12   92 1    
    27   13   14 ar   
    28   13   15 1    
    29   14   93 1    
    30   15   16 1    
    31   15   94 1    
    32   15   95 1    
    33   16   17 1    
    34   17   18 1    
    35   17   96 1    
    36   17   97 1    
    37   18   19 1    
    38   18   22 1    
    39   18   98 1    
    40   19   20 am   BACKBONE|DICT|INTERRES
    41   19   21 2    
    42   20   99 1    
    43   20  100 1    
    44   22   23 am   BACKBONE|DICT|INTERRES
    45   22  101 1    
    46   23   24 2    
    47   23   25 1    
    48   25   26 1    
    49   25   27 1    
    50   25  102 1    
    51   26  103 1    
    52   26  104 1    
    53   26  105 1    
    54   27   28 am   BACKBONE|DICT|INTERRES
    55   27  106 1    
    56   28   29 2    
    57   28   30 1    
    58   30   31 1    
    59   30   32 1    
    60   30  107 1    
    61   31  108 1    
    62   31  109 1    
    63   31  110 1    
    64   32   33 am   BACKBONE|DICT|INTERRES
    65   32  111 1    
    66   33   34 2    
    67   33   35 1    
    68   35   36 1    
    69   35   37 1    
    70   35  112 1    
    71   36  113 1    
    72   36  114 1    
    73   36  115 1    
    74   37   38 am   BACKBONE|DICT|INTERRES
    75   37  116 1    
    76   38   39 2    
    77   38   40 1    
    78   40   41 1    
    79   40   42 1    
    80   40  117 1    
    81   41  118 1    
    82   41  119 1    
    83   41  120 1    
    84   42   43 am   BACKBONE|DICT|INTERRES
    85   42  121 1    
    86   43   44 2    
    87   43   45 1    
    88   45   46 1    
    89   45   47 1    
    90   45  122 1    
    91   46  123 1    
    92   46  124 1    
    93   46  125 1    
    94   47   48 am   BACKBONE|DICT|INTERRES
    95   47  126 1    
    96   48   49 2    
    97   48   50 1    
    98   50   51 1    
    99   50   52 1    
   100   50  127 1    
   101   51  128 1    
   102   51  129 1    
   103   51  130 1    
   104   52   53 am   BACKBONE|DICT|INTERRES
   105   52  131 1    
   106   53   54 2    
   107   53   55 1    
   108   55   56 1    
   109   55   59 1    
   110   55  132 1    
   111   56   57 1    
   112   56  133 1    
   113   56  134 1    
   114   57   58 1    
   115   58  135 1    
   116   58  136 1    
   117   59   60 am   BACKBONE|DICT|INTERRES
   118   59  137 1    
   119   60   61 2    
   120   60   62 1    
   121   62   63 1    
   122   62   64 1    
   123   62  138 1    
   124   63  139 1    
   125   63  140 1    
   126   63  141 1    
   127   64   65 am   BACKBONE|DICT|INTERRES
   128   64  142 1    
   129   65   66 2    
   130   65   67 1    
   131   67   68 1    
   132   67   69 1    
   133   67  143 1    
   134   68  144 1    
   135   68  145 1    
   136   68  146 1    
   137   69   70 am   BACKBONE|DICT|INTERRES
   138   69  147 1    
   139   70   71 2    
   140   70   72 1    
   141   72   73 1    
   142   72   74 1    
   143   72  148 1    
   144   73  149 1    
   145   73  150 1    
   146   73  151 1    
   147   74   75 am   BACKBONE|DICT|INTERRES
   148   74  152 1    
   149   75   76 2    
   150   75   77 1    
   151   77   78 1    
   152   77   79 1    
   153   77  153 1    
   154   78  154 1    
   155   78  155 1    
   156   78  156 1    
   157   79   80 am   BACKBONE|DICT|INTERRES
   158   79  157 1    
   159   80   81 2    
@<TRIPOS>SUBSTRUCTURE
     1 UNK         1 GROUP             0       ****    0 ROOT    
