@<TRIPOS>MOLECULE
3R207
157   159    1
SMALL
USER_CHARGES


@<TRIPOS>ATOM
      1 CA        -52.1262  -24.2075    2.9596 C.3       0 UNK        -0.1975 
      2 C         -51.7445  -25.2791    3.9700 C.2       0 UNK         0.4852 
      3 O         -51.6151  -24.9796    5.1577 O.2       0 UNK        -0.5216 
      4 N         -51.5707  -26.5260    3.5095 N.am      1 UNK        -0.4461 
      5 CA        -51.1290  -27.6582    4.3288 C.3       1 UNK         0.0864 
      6 C6        -51.4923  -29.0081    3.6593 C.3       14 UNK        -0.0898 
      7 S7        -51.2344  -30.4929    4.6964 S.3       14 UNK        -0.2598 
      8 C8        -52.7012  -30.5143    5.7816 C.3       14 UNK         0.0286 
      9 C9        -52.4408  -29.7708    7.0852 C.ar      14 UNK        -0.0844 
     10 C10       -52.9631  -28.4899    7.2907 C.ar      14 UNK        -0.0881 
     11 C11       -52.6699  -27.7721    8.4535 C.ar      14 UNK        -0.0643 
     12 C12       -51.8923  -28.3874    9.4400 C.ar      14 UNK        -0.0930 
     13 C13       -51.3885  -29.6777    9.2713 C.ar      14 UNK        -0.0827 
     14 C14       -51.6614  -30.3631    8.0846 C.ar      14 UNK        -0.1249 
     15 C15       -50.4946  -30.3030   10.3384 C.3       14 UNK         0.0141 
     16 S16       -51.0806  -30.0292   12.0473 S.3       14 UNK        -0.2313 
     17 C17       -52.4671  -31.2111   12.1379 C.3       14 UNK        -0.0915 
     18 CA        -53.7087  -30.6971   12.9160 C.3       13 UNK         0.0968 
     19 C         -53.4703  -30.5546   14.4501 C.2       13 UNK         0.5732 
     20 N         -53.8692  -29.4665   15.0990 N.am      13 UNK        -0.7310 
     21 O         -52.9301  -31.4652   15.0740 O.2       13 UNK        -0.5035 
     22 N         -54.3162  -29.5208   12.2733 N.am      13 UNK        -0.4233 
     23 C         -55.6270  -29.2525   12.2932 C.2       13 UNK         0.4989 
     24 O         -56.4684  -29.9984   12.7996 O.2       13 UNK        -0.4996 
     25 CA        -56.0677  -27.9265   11.6424 C.3       12 UNK         0.0216 
     26 CB        -57.5848  -27.6771   11.7791 C.3       12 UNK        -0.1964 
     27 N         -55.3363  -26.7409   12.1105 N.am      12 UNK        -0.4276 
     28 C         -55.1091  -26.3450   13.3727 C.2       12 UNK         0.5020 
     29 O         -55.3474  -27.0286   14.3692 O.2       12 UNK        -0.5489 
     30 CA        -54.5637  -24.9135   13.5094 C.3       11 UNK         0.0294 
     31 CB        -55.7035  -23.8749   13.4740 C.3       11 UNK        -0.2019 
     32 N         -53.6667  -24.7084   14.6501 N.am      11 UNK        -0.4493 
     33 C         -53.9457  -24.5680   15.9531 C.2       11 UNK         0.4932 
     34 O         -55.0741  -24.6292   16.4451 O.2       11 UNK        -0.5029 
     35 CA        -52.7306  -24.2378   16.8433 C.3       10 UNK         0.0280 
     36 CB        -53.0786  -24.1135   18.3430 C.3       10 UNK        -0.1976 
     37 N         -51.6048  -25.1532   16.6264 N.am      10 UNK        -0.4242 
     38 C         -51.5544  -26.4647   16.9057 C.2       10 UNK         0.5072 
     39 O         -52.4766  -27.0931   17.4276 O.2       10 UNK        -0.5224 
     40 CA        -50.2582  -27.2213   16.5553 C.3       9 UNK         0.0343 
     41 CB        -50.5429  -28.3471   15.5479 C.3       9 UNK        -0.2003 
     42 N         -49.1913  -26.3689   16.0223 N.am      9 UNK        -0.4272 
     43 C         -48.3621  -25.6190   16.7602 C.2       9 UNK         0.4988 
     44 O         -48.4222  -25.5390   17.9875 O.2       9 UNK        -0.5108 
     45 CA        -47.2854  -24.8184   16.0044 C.3       8 UNK         0.0248 
     46 CB        -46.0871  -25.7171   15.6598 C.3       8 UNK        -0.2001 
     47 N         -47.7787  -24.1666   14.7865 N.am      8 UNK        -0.4140 
     48 C         -48.6999  -23.1915   14.7686 C.2       8 UNK         0.5028 
     49 O         -49.2437  -22.7424   15.7783 O.2       8 UNK        -0.5428 
     50 CA        -49.1112  -22.6431   13.3907 C.3       7 UNK         0.0264 
     51 CB        -48.0410  -21.6923   12.8307 C.3       7 UNK        -0.1988 
     52 N         -49.3916  -23.7000   12.4176 N.am      7 UNK        -0.4454 
     53 C         -50.3614  -24.6156   12.5553 C.2       7 UNK         0.5027 
     54 O         -51.1506  -24.6370   13.5000 O.2       7 UNK        -0.5083 
     55 CA        -50.4212  -25.7303   11.4934 C.3       6 UNK         0.0844 
     56 C56       -51.0791  -25.2397   10.1713 C.3       14 UNK        -0.0967 
     57 S57       -52.8890  -25.4785   10.1606 S.3       14 UNK        -0.2604 
     58 C58       -53.1824  -26.3333    8.5688 C.3       14 UNK         0.0134 
     59 N         -49.1076  -26.3392   11.2654 N.am      6 UNK        -0.4116 
     60 C         -48.3312  -26.9048   12.2011 C.2       5 UNK         0.5034 
     61 O         -48.6608  -27.0492   13.3745 O.2       5 UNK        -0.5045 
     62 CA        -46.9131  -27.3132   11.7780 C.3       5 UNK         0.0224 
     63 CB        -46.8974  -28.7109   11.1424 C.3       5 UNK        -0.1978 
     64 N         -46.3192  -26.3346   10.8663 N.am      5 UNK        -0.4737 
     65 C         -45.9476  -25.1003   11.2334 C.2       4 UNK         0.5027 
     66 O         -46.0002  -24.6864   12.3921 O.2       4 UNK        -0.5211 
     67 CA        -45.4861  -24.1591   10.1082 C.3       4 UNK         0.0297 
     68 CB        -44.0141  -24.4196    9.7518 C.3       4 UNK        -0.1993 
     69 N         -46.3157  -24.2713    8.9036 N.am      4 UNK        -0.4486 
     70 C         -47.6048  -23.9083    8.8440 C.2       3 UNK         0.4961 
     71 O         -48.2193  -23.4131    9.7891 O.2       3 UNK        -0.5105 
     72 CA        -48.3497  -24.1765    7.5235 C.3       3 UNK         0.0299 
     73 CB        -48.1295  -23.0216    6.5344 C.3       3 UNK        -0.1972 
     74 N         -48.0266  -25.4513    6.8684 N.am      3 UNK        -0.4305 
     75 C         -48.1120  -26.6617    7.4375 C.2       2 UNK         0.5006 
     76 O         -48.3568  -26.8416    8.6292 O.2       2 UNK        -0.5106 
     77 CA        -47.9752  -27.8712    6.5041 C.3       2 UNK         0.0296 
     78 CB        -47.5935  -29.1584    7.2578 C.3       2 UNK        -0.2002 
     79 N         -49.2680  -28.0710    5.8597 N.am      2 UNK        -0.4032 
     80 C         -49.6361  -27.5231    4.6965 C.2       1 UNK         0.5000 
     81 O         -48.8625  -26.9141    3.9506 O.2       1 UNK        -0.5238 
     82 H82       -51.3702  -23.4229    2.9433 H         1 UNK         0.0889 
     83 H83       -53.0798  -23.7569    3.2333 H         1 UNK         0.0889 
     84 H84       -52.2184  -24.6111    1.9515 H         1 UNK         0.0889 
     85 H85       -51.6562  -26.7053    2.5192 H         1 UNK         0.3028 
     86 H86       -51.6844  -27.5866    5.2592 H         1 UNK         0.0864 
     87 H87       -50.9139  -29.1367    2.7425 H         1 UNK         0.0720 
     88 H88       -52.5380  -28.9973    3.3477 H         1 UNK         0.0720 
     89 H89       -52.9517  -31.5515    6.0087 H         1 UNK         0.0814 
     90 H90       -53.5656  -30.1032    5.2580 H         1 UNK         0.0814 
     91 H91       -53.5731  -28.0310    6.5240 H         1 UNK         0.1469 
     92 H92       -51.6535  -27.8689   10.3496 H         1 UNK         0.1381 
     93 H93       -51.2537  -31.3526    7.9276 H         1 UNK         0.1206 
     94 H94       -50.3784  -31.3747   10.1701 H         1 UNK         0.0813 
     95 H95       -49.5011  -29.8676   10.2430 H         1 UNK         0.0813 
     96 H96       -52.0953  -32.1379   12.5780 H         1 UNK         0.0638 
     97 H97       -52.7724  -31.4743   11.1240 H         1 UNK         0.0638 
     98 H98       -54.4359  -31.5081   12.8457 H         1 UNK         0.0568 
     99 H99       -54.3627  -28.7124   14.6318 H         1 UNK         0.3450 
    100 H100      -53.6983  -29.3974   16.0890 H         1 UNK         0.3450 
    101 H101      -53.6758  -28.8587   11.8622 H         1 UNK         0.2987 
    102 H102      -55.8449  -28.0254   10.5786 H         1 UNK         0.0766 
    103 H103      -57.8876  -26.7718   11.2530 H         1 UNK         0.0798 
    104 H104      -57.8814  -27.5721   12.8235 H         1 UNK         0.0798 
    105 H105      -58.1600  -28.5021   11.3565 H         1 UNK         0.0798 
    106 H106      -55.0325  -26.1171   11.3737 H         1 UNK         0.3198 
    107 H107      -53.9311  -24.7189   12.6454 H         1 UNK         0.0843 
    108 H108      -55.3199  -22.8584   13.5608 H         1 UNK         0.0831 
    109 H109      -56.4243  -24.0337   14.2766 H         1 UNK         0.0831 
    110 H110      -56.2547  -23.9334   12.5347 H         1 UNK         0.0831 
    111 H111      -52.6820  -24.6699   14.3827 H         1 UNK         0.3133 
    112 H112      -52.3773  -23.2585   16.5162 H         1 UNK         0.0566 
    113 H113      -52.1993  -23.8590   18.9346 H         1 UNK         0.0814 
    114 H114      -53.8172  -23.3277   18.5057 H         1 UNK         0.0814 
    115 H115      -53.4979  -25.0369   18.7432 H         1 UNK         0.0814 
    116 H116      -50.7962  -24.7470   16.1733 H         1 UNK         0.3091 
    117 H117      -49.8983  -27.6830   17.4770 H         1 UNK         0.0702 
    118 H118      -51.2261  -29.0828   15.9714 H         1 UNK         0.0785 
    119 H119      -49.6323  -28.8794   15.2727 H         1 UNK         0.0785 
    120 H120      -50.9964  -27.9641   14.6323 H         1 UNK         0.0785 
    121 H121      -49.0373  -26.4270   15.0159 H         1 UNK         0.2998 
    122 H122      -46.9325  -24.0312   16.6740 H         1 UNK         0.0697 
    123 H123      -45.2872  -25.1484   15.1850 H         1 UNK         0.0825 
    124 H124      -45.6712  -26.1750   16.5582 H         1 UNK         0.0825 
    125 H125      -46.3701  -26.5241   14.9837 H         1 UNK         0.0825 
    126 H126      -47.3559  -24.4546   13.9089 H         1 UNK         0.3029 
    127 H127      -50.0322  -22.0721   13.5273 H         1 UNK         0.0897 
    128 H128      -48.3667  -21.2382   11.8946 H         1 UNK         0.0792 
    129 H129      -47.8341  -20.8817   13.5306 H         1 UNK         0.0792 
    130 H130      -47.0994  -22.2077   12.6394 H         1 UNK         0.0792 
    131 H131      -48.8146  -23.7205   11.5793 H         1 UNK         0.3086 
    132 H132      -51.0335  -26.5220   11.9285 H         1 UNK         0.0583 
    133 H133      -50.8582  -24.1901    9.9670 H         1 UNK         0.1020 
    134 H134      -50.6682  -25.7830    9.3201 H         1 UNK         0.1020 
    135 H135      -54.2584  -26.3353    8.3889 H         1 UNK         0.0694 
    136 H136      -52.7390  -25.7372    7.7694 H         1 UNK         0.0694 
    137 H137      -48.7619  -26.3351   10.3077 H         1 UNK         0.2989 
    138 H138      -46.3003  -27.3500   12.6812 H         1 UNK         0.1055 
    139 H139      -47.3507  -29.4467   11.8084 H         1 UNK         0.0806 
    140 H140      -45.8790  -29.0415   10.9384 H         1 UNK         0.0806 
    141 H141      -47.4500  -28.7349   10.2051 H         1 UNK         0.0806 
    142 H142      -46.3155  -26.5703    9.8840 H         1 UNK         0.3061 
    143 H143      -45.5701  -23.1355   10.4802 H         1 UNK         0.0734 
    144 H144      -43.6512  -23.7030    9.0148 H         1 UNK         0.0832 
    145 H145      -43.3786  -24.3242   10.6335 H         1 UNK         0.0832 
    146 H146      -43.8636  -25.4221    9.3496 H         1 UNK         0.0832 
    147 H147      -45.8897  -24.6723    8.0806 H         1 UNK         0.3156 
    148 H148      -49.4150  -24.2094    7.7594 H         1 UNK         0.0589 
    149 H149      -47.0923  -22.9643    6.2022 H         1 UNK         0.0808 
    150 H150      -48.7611  -23.1307    5.6522 H         1 UNK         0.0808 
    151 H151      -48.3797  -22.0629    6.9914 H         1 UNK         0.0808 
    152 H152      -47.8559  -25.4119    5.8725 H         1 UNK         0.3098 
    153 H153      -47.1984  -27.6627    5.7653 H         1 UNK         0.0720 
    154 H154      -48.3524  -29.4431    7.9876 H         1 UNK         0.0791 
    155 H155      -46.6512  -29.0333    7.7926 H         1 UNK         0.0791 
    156 H156      -47.4678  -29.9941    6.5693 H         1 UNK         0.0791 
    157 H157      -49.9678  -28.5509    6.4105 H         1 UNK         0.3028 
@<TRIPOS>BOND
     1    1    2 1    
     2    1   82 1    
     3    1   83 1    
     4    1   84 1    
     5    2    3 2    
     6    2    4 am   BACKBONE|DICT|INTERRES
     7    4    5 1    
     8    4   85 1    
     9    5    6 1    
    10    5   80 1    
    11    5   86 1    
    12    6    7 1    
    13    6   87 1    
    14    6   88 1    
    15    7    8 1    
    16    8    9 1    
    17    8   89 1    
    18    8   90 1    
    19    9   10 ar   
    20    9   14 ar   
    21   10   11 ar   
    22   10   91 1    
    23   11   12 ar   
    24   11   58 1    
    25   12   13 ar   
    26   12   92 1    
    27   13   14 ar   
    28   13   15 1    
    29   14   93 1    
    30   15   16 1    
    31   15   94 1    
    32   15   95 1    
    33   16   17 1    
    34   17   18 1    
    35   17   96 1    
    36   17   97 1    
    37   18   19 1    
    38   18   22 1    
    39   18   98 1    
    40   19   20 am   BACKBONE|DICT|INTERRES
    41   19   21 2    
    42   20   99 1    
    43   20  100 1    
    44   22   23 am   BACKBONE|DICT|INTERRES
    45   22  101 1    
    46   23   24 2    
    47   23   25 1    
    48   25   26 1    
    49   25   27 1    
    50   25  102 1    
    51   26  103 1    
    52   26  104 1    
    53   26  105 1    
    54   27   28 am   BACKBONE|DICT|INTERRES
    55   27  106 1    
    56   28   29 2    
    57   28   30 1    
    58   30   31 1    
    59   30   32 1    
    60   30  107 1    
    61   31  108 1    
    62   31  109 1    
    63   31  110 1    
    64   32   33 am   BACKBONE|DICT|INTERRES
    65   32  111 1    
    66   33   34 2    
    67   33   35 1    
    68   35   36 1    
    69   35   37 1    
    70   35  112 1    
    71   36  113 1    
    72   36  114 1    
    73   36  115 1    
    74   37   38 am   BACKBONE|DICT|INTERRES
    75   37  116 1    
    76   38   39 2    
    77   38   40 1    
    78   40   41 1    
    79   40   42 1    
    80   40  117 1    
    81   41  118 1    
    82   41  119 1    
    83   41  120 1    
    84   42   43 am   BACKBONE|DICT|INTERRES
    85   42  121 1    
    86   43   44 2    
    87   43   45 1    
    88   45   46 1    
    89   45   47 1    
    90   45  122 1    
    91   46  123 1    
    92   46  124 1    
    93   46  125 1    
    94   47   48 am   BACKBONE|DICT|INTERRES
    95   47  126 1    
    96   48   49 2    
    97   48   50 1    
    98   50   51 1    
    99   50   52 1    
   100   50  127 1    
   101   51  128 1    
   102   51  129 1    
   103   51  130 1    
   104   52   53 am   BACKBONE|DICT|INTERRES
   105   52  131 1    
   106   53   54 2    
   107   53   55 1    
   108   55   56 1    
   109   55   59 1    
   110   55  132 1    
   111   56   57 1    
   112   56  133 1    
   113   56  134 1    
   114   57   58 1    
   115   58  135 1    
   116   58  136 1    
   117   59   60 am   BACKBONE|DICT|INTERRES
   118   59  137 1    
   119   60   61 2    
   120   60   62 1    
   121   62   63 1    
   122   62   64 1    
   123   62  138 1    
   124   63  139 1    
   125   63  140 1    
   126   63  141 1    
   127   64   65 am   BACKBONE|DICT|INTERRES
   128   64  142 1    
   129   65   66 2    
   130   65   67 1    
   131   67   68 1    
   132   67   69 1    
   133   67  143 1    
   134   68  144 1    
   135   68  145 1    
   136   68  146 1    
   137   69   70 am   BACKBONE|DICT|INTERRES
   138   69  147 1    
   139   70   71 2    
   140   70   72 1    
   141   72   73 1    
   142   72   74 1    
   143   72  148 1    
   144   73  149 1    
   145   73  150 1    
   146   73  151 1    
   147   74   75 am   BACKBONE|DICT|INTERRES
   148   74  152 1    
   149   75   76 2    
   150   75   77 1    
   151   77   78 1    
   152   77   79 1    
   153   77  153 1    
   154   78  154 1    
   155   78  155 1    
   156   78  156 1    
   157   79   80 am   BACKBONE|DICT|INTERRES
   158   79  157 1    
   159   80   81 2    
@<TRIPOS>SUBSTRUCTURE
     1 UNK         1 GROUP             0       ****    0 ROOT    
