@<TRIPOS>MOLECULE
3R207
157   159    1
SMALL
USER_CHARGES


@<TRIPOS>ATOM
      1 CA        -49.8622  -30.9588    2.7588 C.3       0 UNK        -0.1975 
      2 C         -49.6187  -29.9852    3.9028 C.2       0 UNK         0.4852 
      3 O         -49.7410  -28.7745    3.7109 O.2       0 UNK        -0.5216 
      4 N         -49.2834  -30.5052    5.0911 N.am      1 UNK        -0.4461 
      5 CA        -48.9468  -29.7206    6.2829 C.3       1 UNK         0.0864 
      6 C6        -49.1008  -30.5890    7.5619 C.3       14 UNK        -0.0898 
      7 S7        -48.9746  -29.6764    9.1410 S.3       14 UNK        -0.2598 
      8 C8        -50.6548  -29.7788    9.8698 C.3       14 UNK         0.0286 
      9 C9        -51.6650  -28.7209    9.4116 C.ar      14 UNK        -0.0844 
     10 C10       -51.3817  -27.7882    8.4088 C.ar      14 UNK        -0.0881 
     11 C11       -52.3339  -26.8545    7.9929 C.ar      14 UNK        -0.0643 
     12 C12       -53.5861  -26.8370    8.6092 C.ar      14 UNK        -0.0930 
     13 C13       -53.8844  -27.7416    9.6314 C.ar      14 UNK        -0.0827 
     14 C14       -52.9238  -28.6821   10.0229 C.ar      14 UNK        -0.1249 
     15 C15       -55.2553  -27.7086   10.2889 C.3       14 UNK         0.0141 
     16 S16       -55.4003  -26.3199   11.4573 S.3       14 UNK        -0.2313 
     17 C17       -57.1302  -26.5106   12.0141 C.3       14 UNK        -0.0915 
     18 CA        -57.2356  -27.0198   13.4750 C.3       13 UNK         0.0968 
     19 C         -58.7149  -27.0986   13.9378 C.2       13 UNK         0.5732 
     20 N         -59.2851  -25.9863   14.3803 N.am      13 UNK        -0.7310 
     21 O         -59.3598  -28.1438   13.8657 O.2       13 UNK        -0.5035 
     22 N         -56.5325  -28.2966   13.6386 N.am      13 UNK        -0.4233 
     23 C         -56.1034  -28.8096   14.7949 C.2       13 UNK         0.4989 
     24 O         -56.2296  -28.2495   15.8855 O.2       13 UNK        -0.4996 
     25 CA        -55.4216  -30.1848   14.7235 C.3       12 UNK         0.0216 
     26 CB        -55.0432  -30.6369   13.2926 C.3       12 UNK        -0.1964 
     27 N         -54.2304  -30.1821   15.5692 N.am      12 UNK        -0.4276 
     28 C         -53.6892  -31.2746   16.1229 C.2       12 UNK         0.5020 
     29 O         -54.1974  -32.3956   16.0429 O.2       12 UNK        -0.5489 
     30 CA        -52.3602  -31.0986   16.8890 C.3       11 UNK         0.0294 
     31 CB        -51.5292  -32.3990   16.9378 C.3       11 UNK        -0.2019 
     32 N         -51.5335  -29.9843   16.4072 N.am      11 UNK        -0.4493 
     33 C         -51.0485  -29.7931   15.1704 C.2       11 UNK         0.4932 
     34 O         -51.2268  -30.5567   14.2199 O.2       11 UNK        -0.5029 
     35 CA        -50.2279  -28.5059   14.9747 C.3       10 UNK         0.0280 
     36 CB        -48.9845  -28.7674   14.1099 C.3       10 UNK        -0.1976 
     37 N         -50.9821  -27.3889   14.3959 N.am      10 UNK        -0.4242 
     38 C         -52.1708  -26.9079   14.7929 C.2       10 UNK         0.5072 
     39 O         -52.9012  -27.4487   15.6268 O.2       10 UNK        -0.5224 
     40 CA        -52.5650  -25.5466   14.1847 C.3       9 UNK         0.0343 
     41 CB        -53.8521  -24.9558   14.7943 C.3       9 UNK        -0.2003 
     42 N         -51.4586  -24.5820   14.2568 N.am      9 UNK        -0.4272 
     43 C         -50.8192  -24.1465   15.3552 C.2       9 UNK         0.4988 
     44 O         -51.1691  -24.4055   16.5072 O.2       9 UNK        -0.5108 
     45 CA        -49.5402  -23.3120   15.1483 C.3       8 UNK         0.0248 
     46 CB        -48.3001  -24.1888   15.3891 C.3       8 UNK        -0.2001 
     47 N         -49.4385  -22.6975   13.8221 N.am      8 UNK        -0.4140 
     48 C         -50.1688  -21.6510   13.4127 C.2       8 UNK         0.5028 
     49 O         -50.9640  -21.0452   14.1322 O.2       8 UNK        -0.5428 
     50 CA        -50.0085  -21.2272   11.9423 C.3       7 UNK         0.0264 
     51 CB        -48.7761  -20.3270   11.7590 C.3       7 UNK        -0.1988 
     52 N         -49.9301  -22.3652   11.0215 N.am      7 UNK        -0.4454 
     53 C         -50.9169  -23.2548   10.8230 C.2       7 UNK         0.5027 
     54 O         -52.0096  -23.2070   11.3869 O.2       7 UNK        -0.5083 
     55 CA        -50.6212  -24.4019    9.8395 C.3       6 UNK         0.0844 
     56 C56       -50.7534  -23.8650    8.3874 C.3       14 UNK        -0.0967 
     57 S57       -50.4014  -25.0699    7.0692 S.3       14 UNK        -0.2604 
     58 C58       -52.0171  -25.8834    6.8627 C.3       14 UNK         0.0134 
     59 N         -49.3288  -25.0283   10.1447 N.am      6 UNK        -0.4116 
     60 C         -49.0276  -25.6506   11.2972 C.2       5 UNK         0.5034 
     61 O         -49.8464  -25.8916   12.1842 O.2       5 UNK        -0.5045 
     62 CA        -47.5521  -26.0003   11.5549 C.3       5 UNK         0.0224 
     63 CB        -47.1976  -27.4094   11.0662 C.3       5 UNK        -0.1978 
     64 N         -46.6356  -25.0335   10.9556 N.am      5 UNK        -0.4737 
     65 C         -46.4170  -23.8026   11.4322 C.2       4 UNK         0.5027 
     66 O         -46.9474  -23.3629   12.4515 O.2       4 UNK        -0.5211 
     67 CA        -45.4734  -22.9047   10.6144 C.3       4 UNK         0.0297 
     68 CB        -44.0149  -23.1238   11.0454 C.3       4 UNK        -0.1993 
     69 N         -45.5977  -23.1222    9.1696 N.am      4 UNK        -0.4486 
     70 C         -46.6835  -22.7938    8.4567 C.2       3 UNK         0.4961 
     71 O         -47.6747  -22.2420    8.9383 O.2       3 UNK        -0.5105 
     72 CA        -46.6794  -23.1873    6.9666 C.3       3 UNK         0.0299 
     73 CB        -45.8905  -22.1588    6.1405 C.3       3 UNK        -0.1972 
     74 N         -46.1855  -24.5437    6.6716 N.am      3 UNK        -0.4305 
     75 C         -46.6607  -25.6663    7.2285 C.2       2 UNK         0.5006 
     76 O         -47.4410  -25.6757    8.1787 O.2       2 UNK        -0.5106 
     77 CA        -46.2086  -27.0125    6.6553 C.3       2 UNK         0.0296 
     78 CB        -45.0166  -27.5754    7.4515 C.3       2 UNK        -0.2002 
     79 N         -47.3665  -27.9001    6.7485 N.am      2 UNK        -0.4032 
     80 C         -47.5473  -29.0721    6.1303 C.2       1 UNK         0.5000 
     81 O         -46.6782  -29.6303    5.4532 O.2       1 UNK        -0.5238 
     82 H82       -49.1658  -30.7613    1.9443 H         1 UNK         0.0889 
     83 H83       -50.8760  -30.8428    2.3766 H         1 UNK         0.0889 
     84 H84       -49.7340  -31.9953    3.0705 H         1 UNK         0.0889 
     85 H85       -49.1629  -31.5043    5.1764 H         1 UNK         0.3028 
     86 H86       -49.6775  -28.9142    6.3249 H         1 UNK         0.0864 
     87 H87       -48.3494  -31.3806    7.5714 H         1 UNK         0.0720 
     88 H88       -50.0658  -31.0978    7.5414 H         1 UNK         0.0720 
     89 H89       -51.0665  -30.7728    9.6906 H         1 UNK         0.0814 
     90 H90       -50.5449  -29.6890   10.9517 H         1 UNK         0.0814 
     91 H91       -50.4107  -27.7618    7.9478 H         1 UNK         0.1469 
     92 H92       -54.3312  -26.1174    8.2983 H         1 UNK         0.1381 
     93 H93       -53.1553  -29.3901   10.8064 H         1 UNK         0.1206 
     94 H94       -56.0232  -27.6162    9.5191 H         1 UNK         0.0813 
     95 H95       -55.4509  -28.6469   10.8084 H         1 UNK         0.0813 
     96 H96       -57.6104  -25.5350   11.9198 H         1 UNK         0.0638 
     97 H97       -57.6652  -27.1761   11.3340 H         1 UNK         0.0638 
     98 H98       -56.7442  -26.2899   14.1185 H         1 UNK         0.0568 
     99 H99       -60.2495  -26.0141   14.6724 H         1 UNK         0.3450 
    100 H100      -58.7713  -25.1206   14.4329 H         1 UNK         0.3450 
    101 H101      -56.4203  -28.8442   12.8009 H         1 UNK         0.2987 
    102 H102      -56.1415  -30.8973   15.1313 H         1 UNK         0.0766 
    103 H103      -55.9200  -30.7302   12.6510 H         1 UNK         0.0798 
    104 H104      -54.5627  -31.6155   13.3022 H         1 UNK         0.0798 
    105 H105      -54.3476  -29.9395   12.8246 H         1 UNK         0.0798 
    106 H106      -53.7863  -29.2762   15.7088 H         1 UNK         0.3198 
    107 H107      -52.6404  -30.8482   17.9133 H         1 UNK         0.0843 
    108 H108      -51.2642  -32.7448   15.9381 H         1 UNK         0.0831 
    109 H109      -52.0842  -33.2027   17.4232 H         1 UNK         0.0831 
    110 H110      -50.6064  -32.2606   17.5011 H         1 UNK         0.0831 
    111 H111      -51.3692  -29.2509   17.0839 H         1 UNK         0.3133 
    112 H112      -49.8784  -28.1735   15.9540 H         1 UNK         0.0566 
    113 H113      -49.2621  -29.0497   13.0941 H         1 UNK         0.0814 
    114 H114      -48.3846  -29.5801   14.5213 H         1 UNK         0.0814 
    115 H115      -48.3441  -27.8873   14.0555 H         1 UNK         0.0814 
    116 H116      -50.5091  -26.8707   13.6585 H         1 UNK         0.3091 
    117 H117      -52.7507  -25.7254   13.1243 H         1 UNK         0.0702 
    118 H118      -54.1432  -24.0358   14.2877 H         1 UNK         0.0785 
    119 H119      -53.7402  -24.7385   15.8566 H         1 UNK         0.0785 
    120 H120      -54.6775  -25.6584   14.6965 H         1 UNK         0.0785 
    121 H121      -51.0626  -24.3304   13.3601 H         1 UNK         0.2998 
    122 H122      -49.5438  -22.5142   15.8940 H         1 UNK         0.0697 
    123 H123      -47.3797  -23.6122   15.2936 H         1 UNK         0.0825 
    124 H124      -48.2519  -25.0175   14.6824 H         1 UNK         0.0825 
    125 H125      -48.3120  -24.6169   16.3923 H         1 UNK         0.0825 
    126 H126      -48.7338  -23.0758   13.1941 H         1 UNK         0.3029 
    127 H127      -50.8939  -20.6480   11.6712 H         1 UNK         0.0897 
    128 H128      -48.8364  -19.4485   12.4027 H         1 UNK         0.0792 
    129 H129      -48.6938  -19.9716   10.7315 H         1 UNK         0.0792 
    130 H130      -47.8515  -20.8488   12.0060 H         1 UNK         0.0792 
    131 H131      -49.0753  -22.4581   10.4810 H         1 UNK         0.3086 
    132 H132      -51.3867  -25.1643    9.9936 H         1 UNK         0.0583 
    133 H133      -51.7566  -23.4657    8.2253 H         1 UNK         0.1020 
    134 H134      -50.0771  -23.0240    8.2278 H         1 UNK         0.1020 
    135 H135      -52.7949  -25.1249    6.7625 H         1 UNK         0.0694 
    136 H136      -52.0063  -26.4405    5.9249 H         1 UNK         0.0694 
    137 H137      -48.6125  -24.9770    9.4242 H         1 UNK         0.2989 
    138 H138      -47.4028  -25.9804   12.6361 H         1 UNK         0.1055 
    139 H139      -47.8805  -28.1507   11.4776 H         1 UNK         0.0806 
    140 H140      -46.1904  -27.6933   11.3707 H         1 UNK         0.0806 
    141 H141      -47.2522  -27.4878    9.9821 H         1 UNK         0.0806 
    142 H142      -46.2427  -25.2820   10.0581 H         1 UNK         0.3061 
    143 H143      -45.7394  -21.8667   10.8261 H         1 UNK         0.0734 
    144 H144      -43.6807  -24.1426   10.8448 H         1 UNK         0.0832 
    145 H145      -43.3409  -22.4399   10.5293 H         1 UNK         0.0832 
    146 H146      -43.8957  -22.9472   12.1155 H         1 UNK         0.0832 
    147 H147      -44.8296  -23.5779    8.6984 H         1 UNK         0.3156 
    148 H148      -47.7185  -23.1554    6.6318 H         1 UNK         0.0589 
    149 H149      -45.9994  -22.3400    5.0711 H         1 UNK         0.0808 
    150 H150      -44.8262  -22.1779    6.3784 H         1 UNK         0.0808 
    151 H151      -46.2491  -21.1462    6.3320 H         1 UNK         0.0808 
    152 H152      -45.5262  -24.6254    5.9106 H         1 UNK         0.3098 
    153 H153      -45.9363  -26.8887    5.6054 H         1 UNK         0.0720 
    154 H154      -44.1661  -26.8936    7.4172 H         1 UNK         0.0791 
    155 H155      -44.6806  -28.5295    7.0457 H         1 UNK         0.0791 
    156 H156      -45.2701  -27.7313    8.5006 H         1 UNK         0.0791 
    157 H157      -48.1114  -27.5090    7.3132 H         1 UNK         0.3028 
@<TRIPOS>BOND
     1    1    2 1    
     2    1   82 1    
     3    1   83 1    
     4    1   84 1    
     5    2    3 2    
     6    2    4 am   BACKBONE|DICT|INTERRES
     7    4    5 1    
     8    4   85 1    
     9    5    6 1    
    10    5   80 1    
    11    5   86 1    
    12    6    7 1    
    13    6   87 1    
    14    6   88 1    
    15    7    8 1    
    16    8    9 1    
    17    8   89 1    
    18    8   90 1    
    19    9   10 ar   
    20    9   14 ar   
    21   10   11 ar   
    22   10   91 1    
    23   11   12 ar   
    24   11   58 1    
    25   12   13 ar   
    26   12   92 1    
    27   13   14 ar   
    28   13   15 1    
    29   14   93 1    
    30   15   16 1    
    31   15   94 1    
    32   15   95 1    
    33   16   17 1    
    34   17   18 1    
    35   17   96 1    
    36   17   97 1    
    37   18   19 1    
    38   18   22 1    
    39   18   98 1    
    40   19   20 am   BACKBONE|DICT|INTERRES
    41   19   21 2    
    42   20   99 1    
    43   20  100 1    
    44   22   23 am   BACKBONE|DICT|INTERRES
    45   22  101 1    
    46   23   24 2    
    47   23   25 1    
    48   25   26 1    
    49   25   27 1    
    50   25  102 1    
    51   26  103 1    
    52   26  104 1    
    53   26  105 1    
    54   27   28 am   BACKBONE|DICT|INTERRES
    55   27  106 1    
    56   28   29 2    
    57   28   30 1    
    58   30   31 1    
    59   30   32 1    
    60   30  107 1    
    61   31  108 1    
    62   31  109 1    
    63   31  110 1    
    64   32   33 am   BACKBONE|DICT|INTERRES
    65   32  111 1    
    66   33   34 2    
    67   33   35 1    
    68   35   36 1    
    69   35   37 1    
    70   35  112 1    
    71   36  113 1    
    72   36  114 1    
    73   36  115 1    
    74   37   38 am   BACKBONE|DICT|INTERRES
    75   37  116 1    
    76   38   39 2    
    77   38   40 1    
    78   40   41 1    
    79   40   42 1    
    80   40  117 1    
    81   41  118 1    
    82   41  119 1    
    83   41  120 1    
    84   42   43 am   BACKBONE|DICT|INTERRES
    85   42  121 1    
    86   43   44 2    
    87   43   45 1    
    88   45   46 1    
    89   45   47 1    
    90   45  122 1    
    91   46  123 1    
    92   46  124 1    
    93   46  125 1    
    94   47   48 am   BACKBONE|DICT|INTERRES
    95   47  126 1    
    96   48   49 2    
    97   48   50 1    
    98   50   51 1    
    99   50   52 1    
   100   50  127 1    
   101   51  128 1    
   102   51  129 1    
   103   51  130 1    
   104   52   53 am   BACKBONE|DICT|INTERRES
   105   52  131 1    
   106   53   54 2    
   107   53   55 1    
   108   55   56 1    
   109   55   59 1    
   110   55  132 1    
   111   56   57 1    
   112   56  133 1    
   113   56  134 1    
   114   57   58 1    
   115   58  135 1    
   116   58  136 1    
   117   59   60 am   BACKBONE|DICT|INTERRES
   118   59  137 1    
   119   60   61 2    
   120   60   62 1    
   121   62   63 1    
   122   62   64 1    
   123   62  138 1    
   124   63  139 1    
   125   63  140 1    
   126   63  141 1    
   127   64   65 am   BACKBONE|DICT|INTERRES
   128   64  142 1    
   129   65   66 2    
   130   65   67 1    
   131   67   68 1    
   132   67   69 1    
   133   67  143 1    
   134   68  144 1    
   135   68  145 1    
   136   68  146 1    
   137   69   70 am   BACKBONE|DICT|INTERRES
   138   69  147 1    
   139   70   71 2    
   140   70   72 1    
   141   72   73 1    
   142   72   74 1    
   143   72  148 1    
   144   73  149 1    
   145   73  150 1    
   146   73  151 1    
   147   74   75 am   BACKBONE|DICT|INTERRES
   148   74  152 1    
   149   75   76 2    
   150   75   77 1    
   151   77   78 1    
   152   77   79 1    
   153   77  153 1    
   154   78  154 1    
   155   78  155 1    
   156   78  156 1    
   157   79   80 am   BACKBONE|DICT|INTERRES
   158   79  157 1    
   159   80   81 2    
@<TRIPOS>SUBSTRUCTURE
     1 UNK         1 GROUP             0       ****    0 ROOT    
