@<TRIPOS>MOLECULE
3R207
157   159    1
SMALL
USER_CHARGES


@<TRIPOS>ATOM
      1 CA        -47.6468  -30.3217   12.1416 C.3       0 UNK        -0.1975 
      2 C         -47.5250  -29.4524   10.8993 C.2       0 UNK         0.4852 
      3 O         -47.0519  -28.3223   10.9939 O.2       0 UNK        -0.5216 
      4 N         -47.9198  -29.9866    9.7338 N.am      1 UNK        -0.4461 
      5 CA        -48.0025  -29.3150    8.4244 C.3       1 UNK         0.0864 
      6 C6        -49.1695  -28.2854    8.3635 C.3       14 UNK        -0.0898 
      7 S7        -49.9598  -28.2451    6.7165 S.3       14 UNK        -0.2598 
      8 C8        -51.3489  -29.4044    6.9257 C.3       14 UNK         0.0286 
      9 C9        -52.6154  -28.6895    7.3703 C.ar      14 UNK        -0.0844 
     10 C10       -53.3593  -27.9539    6.4429 C.ar      14 UNK        -0.0881 
     11 C11       -54.5174  -27.2779    6.8364 C.ar      14 UNK        -0.0643 
     12 C12       -54.9541  -27.3732    8.1600 C.ar      14 UNK        -0.0930 
     13 C13       -54.2058  -28.0861    9.1004 C.ar      14 UNK        -0.0827 
     14 C14       -53.0416  -28.7502    8.7002 C.ar      14 UNK        -0.1249 
     15 C15       -54.6218  -28.0748   10.5602 C.3       14 UNK         0.0141 
     16 S16       -53.8166  -26.6813   11.4059 S.3       14 UNK        -0.2313 
     17 C17       -55.1887  -25.8977   12.3163 C.3       14 UNK        -0.0915 
     18 CA        -54.7724  -25.5597   13.7748 C.3       13 UNK         0.0968 
     19 C         -55.7225  -24.5404   14.4753 C.2       13 UNK         0.5732 
     20 N         -55.8438  -24.5552   15.7976 N.am      13 UNK        -0.7310 
     21 O         -56.3284  -23.6940   13.8228 O.2       13 UNK        -0.5035 
     22 N         -54.4401  -26.7611   14.5609 N.am      13 UNK        -0.4233 
     23 C         -55.2989  -27.6756   15.0337 C.2       13 UNK         0.4989 
     24 O         -56.5177  -27.6329   14.8559 O.2       13 UNK        -0.4996 
     25 CA        -54.6841  -28.8103   15.8776 C.3       12 UNK         0.0216 
     26 CB        -55.6794  -29.9470   16.1986 C.3       12 UNK        -0.1964 
     27 N         -53.4375  -29.3313   15.3057 N.am      12 UNK        -0.4276 
     28 C         -53.2829  -29.9775   14.1380 C.2       12 UNK         0.5020 
     29 O         -54.2199  -30.3039   13.4086 O.2       12 UNK        -0.5489 
     30 CA        -51.8457  -30.3209   13.6969 C.3       11 UNK         0.0294 
     31 CB        -51.6027  -29.8936   12.2386 C.3       11 UNK        -0.2019 
     32 N         -50.8425  -29.6822   14.5540 N.am      11 UNK        -0.4493 
     33 C         -50.1442  -30.3046   15.5153 C.2       11 UNK         0.4932 
     34 O         -50.2108  -31.5146   15.7309 O.2       11 UNK        -0.5029 
     35 CA        -49.2257  -29.4443   16.4079 C.3       10 UNK         0.0280 
     36 CB        -47.7571  -29.5899   15.9763 C.3       10 UNK        -0.1976 
     37 N         -49.5742  -28.0210   16.4430 N.am      10 UNK        -0.4242 
     38 C         -50.7103  -27.5117   16.9407 C.2       10 UNK         0.5072 
     39 O         -51.5993  -28.1902   17.4552 O.2       10 UNK        -0.5224 
     40 CA        -50.9268  -25.9987   16.7499 C.3       9 UNK         0.0343 
     41 CB        -50.2931  -25.2100   17.9062 C.3       9 UNK        -0.2003 
     42 N         -50.4197  -25.4895   15.4679 N.am      9 UNK        -0.4272 
     43 C         -50.8030  -25.9420   14.2664 C.2       9 UNK         0.4988 
     44 O         -51.6210  -26.8506   14.1163 O.2       9 UNK        -0.5108 
     45 CA        -50.1365  -25.3174   13.0343 C.3       8 UNK         0.0248 
     46 CB        -49.5187  -26.4085   12.1467 C.3       8 UNK        -0.2001 
     47 N         -51.0946  -24.5507   12.2414 N.am      8 UNK        -0.4140 
     48 C         -51.6142  -23.3678   12.6039 C.2       8 UNK         0.5028 
     49 O         -51.3291  -22.8061   13.6625 O.2       8 UNK        -0.5428 
     50 CA        -52.5972  -22.6796   11.6372 C.3       7 UNK         0.0264 
     51 CB        -52.2769  -21.1823   11.4623 C.3       7 UNK        -0.1988 
     52 N         -52.6154  -23.3285   10.3282 N.am      7 UNK        -0.4454 
     53 C         -53.6499  -23.3999    9.4857 C.2       7 UNK         0.5027 
     54 O         -54.7382  -22.8675    9.7113 O.2       7 UNK        -0.5083 
     55 CA        -53.4365  -24.2008    8.1745 C.3       6 UNK         0.0844 
     56 C56       -54.5761  -23.9559    7.1442 C.3       14 UNK        -0.0967 
     57 S57       -54.3621  -24.8364    5.5545 S.3       14 UNK        -0.2604 
     58 C58       -55.2591  -26.3970    5.8441 C.3       14 UNK         0.0134 
     59 N         -52.1003  -24.0378    7.5841 N.am      6 UNK        -0.4116 
     60 C         -50.9615  -24.5627    8.0561 C.2       5 UNK         0.5034 
     61 O         -50.8924  -25.1786    9.1224 O.2       5 UNK        -0.5045 
     62 CA        -49.6730  -24.3400    7.2432 C.3       5 UNK         0.0224 
     63 CB        -49.8412  -23.4555    5.9859 C.3       5 UNK        -0.1978 
     64 N         -48.6023  -23.8403    8.1107 N.am      5 UNK        -0.4737 
     65 C         -48.5735  -22.6909    8.7973 C.2       4 UNK         0.5027 
     66 O         -49.4311  -21.8136    8.6919 O.2       4 UNK        -0.5211 
     67 CA        -47.4007  -22.4568    9.7750 C.3       4 UNK         0.0297 
     68 CB        -47.8883  -22.5908   11.2316 C.3       4 UNK        -0.1993 
     69 N         -46.1814  -23.2608    9.5608 N.am      4 UNK        -0.4486 
     70 C         -46.0312  -24.5902    9.6457 C.2       3 UNK         0.4961 
     71 O         -46.9608  -25.3746    9.8293 O.2       3 UNK        -0.5105 
     72 CA        -44.6072  -25.1344    9.4893 C.3       3 UNK         0.0299 
     73 CB        -43.7845  -24.9123   10.7706 C.3       3 UNK        -0.1972 
     74 N         -44.6840  -26.5653    9.2058 N.am      3 UNK        -0.4305 
     75 C         -43.8747  -27.2387    8.3799 C.2       2 UNK         0.5006 
     76 O         -42.9071  -26.7293    7.8120 O.2       2 UNK        -0.5106 
     77 CA        -44.1717  -28.7327    8.1371 C.3       2 UNK         0.0296 
     78 CB        -43.1679  -29.6092    8.9051 C.3       2 UNK        -0.2002 
     79 N         -45.5314  -29.1516    8.4904 N.am      2 UNK        -0.4032 
     80 C         -46.6583  -28.7579    7.8783 C.2       1 UNK         0.5000 
     81 O         -46.6539  -28.0080    6.9003 O.2       1 UNK        -0.5238 
     82 H82       -48.3385  -29.8624   12.8459 H         1 UNK         0.0889 
     83 H83       -46.6775  -30.4194   12.6298 H         1 UNK         0.0889 
     84 H84       -48.0137  -31.3213   11.9096 H         1 UNK         0.0889 
     85 H85       -48.2540  -30.9408    9.7338 H         1 UNK         0.3028 
     86 H86       -48.2483  -30.1299    7.7416 H         1 UNK         0.0864 
     87 H87       -49.9390  -28.5241    9.0996 H         1 UNK         0.0720 
     88 H88       -48.8255  -27.2829    8.6267 H         1 UNK         0.0720 
     89 H89       -51.5353  -29.9005    5.9721 H         1 UNK         0.0814 
     90 H90       -51.0772  -30.1943    7.6277 H         1 UNK         0.0814 
     91 H91       -53.0167  -27.8778    5.4199 H         1 UNK         0.1469 
     92 H92       -55.8399  -26.8384    8.4744 H         1 UNK         0.1381 
     93 H93       -52.4548  -29.2913    9.4286 H         1 UNK         0.1206 
     94 H94       -54.3364  -29.0076   11.0468 H         1 UNK         0.0813 
     95 H95       -55.7074  -28.0073   10.6368 H         1 UNK         0.0813 
     96 H96       -55.4562  -24.9963   11.7626 H         1 UNK         0.0638 
     97 H97       -56.0731  -26.5354   12.3128 H         1 UNK         0.0638 
     98 H98       -53.8340  -25.0102   13.7112 H         1 UNK         0.0568 
     99 H99       -55.3478  -25.2339   16.3512 H         1 UNK         0.3450 
    100 H100      -56.4500  -23.8848   16.2430 H         1 UNK         0.3450 
    101 H101      -53.4433  -26.9216   14.6711 H         1 UNK         0.2987 
    102 H102      -54.4040  -28.3528   16.8276 H         1 UNK         0.0766 
    103 H103      -55.2134  -30.7228   16.8061 H         1 UNK         0.0798 
    104 H104      -56.5351  -29.5683   16.7588 H         1 UNK         0.0798 
    105 H105      -56.0684  -30.4160   15.2945 H         1 UNK         0.0798 
    106 H106      -52.6041  -29.1195   15.8434 H         1 UNK         0.3198 
    107 H107      -51.7497  -31.4074   13.7473 H         1 UNK         0.0843 
    108 H108      -52.2702  -30.4287   11.5627 H         1 UNK         0.0831 
    109 H109      -50.5849  -30.1085   11.9180 H         1 UNK         0.0831 
    110 H110      -51.7852  -28.8284   12.0989 H         1 UNK         0.0831 
    111 H111      -50.7766  -28.6736   14.4623 H         1 UNK         0.3133 
    112 H112      -49.3187  -29.8310   17.4250 H         1 UNK         0.0566 
    113 H113      -47.5725  -29.1349   15.0031 H         1 UNK         0.0814 
    114 H114      -47.4691  -30.6401   15.9068 H         1 UNK         0.0814 
    115 H115      -47.0859  -29.1211   16.6961 H         1 UNK         0.0814 
    116 H116      -48.9094  -27.3811   16.0333 H         1 UNK         0.3091 
    117 H117      -52.0040  -25.8200   16.7666 H         1 UNK         0.0702 
    118 H118      -50.5261  -24.1472   17.8357 H         1 UNK         0.0785 
    119 H119      -49.2077  -25.3160   17.9231 H         1 UNK         0.0785 
    120 H120      -50.6701  -25.5586   18.8689 H         1 UNK         0.0785 
    121 H121      -49.7635  -24.7225   15.5107 H         1 UNK         0.2998 
    122 H122      -49.3375  -24.6485   13.3598 H         1 UNK         0.0697 
    123 H123      -50.2734  -27.0866   11.7487 H         1 UNK         0.0825 
    124 H124      -48.7961  -27.0072   12.7018 H         1 UNK         0.0825 
    125 H125      -48.9948  -25.9778   11.2947 H         1 UNK         0.0825 
    126 H126      -51.4133  -24.9974   11.3915 H         1 UNK         0.3029 
    127 H127      -53.5866  -22.7753   12.0901 H         1 UNK         0.0897 
    128 H128      -53.0127  -20.6903   10.8261 H         1 UNK         0.0792 
    129 H129      -52.2823  -20.6610   12.4203 H         1 UNK         0.0792 
    130 H130      -51.2940  -21.0352   11.0127 H         1 UNK         0.0792 
    131 H131      -51.7666  -23.8114   10.0449 H         1 UNK         0.3086 
    132 H132      -53.4962  -25.2418    8.4850 H         1 UNK         0.0583 
    133 H133      -55.5411  -24.2356    7.5713 H         1 UNK         0.1020 
    134 H134      -54.6508  -22.8904    6.9188 H         1 UNK         0.1020 
    135 H135      -56.2723  -26.1826    6.1879 H         1 UNK         0.0694 
    136 H136      -55.3623  -26.9273    4.8964 H         1 UNK         0.0694 
    137 H137      -52.0660  -23.5211    6.7183 H         1 UNK         0.2989 
    138 H138      -49.3557  -25.3288    6.9100 H         1 UNK         0.1055 
    139 H139      -48.8933  -23.3461    5.4589 H         1 UNK         0.0806 
    140 H140      -50.1997  -22.4540    6.2259 H         1 UNK         0.0806 
    141 H141      -50.5438  -23.9021    5.2809 H         1 UNK         0.0806 
    142 H142      -47.9228  -24.5362    8.4047 H         1 UNK         0.3061 
    143 H143      -47.0950  -21.4196    9.6279 H         1 UNK         0.0734 
    144 H144      -48.7338  -21.9295   11.4263 H         1 UNK         0.0832 
    145 H145      -48.2173  -23.6058   11.4516 H         1 UNK         0.0832 
    146 H146      -47.1030  -22.3305   11.9409 H         1 UNK         0.0832 
    147 H147      -45.3536  -22.7172    9.3559 H         1 UNK         0.3156 
    148 H148      -44.1359  -24.6122    8.6539 H         1 UNK         0.0589 
    149 H149      -44.2396  -25.4077   11.6295 H         1 UNK         0.0808 
    150 H150      -42.7705  -25.2975   10.6613 H         1 UNK         0.0808 
    151 H151      -43.7029  -23.8514   11.0099 H         1 UNK         0.0808 
    152 H152      -45.5008  -27.0252    9.5973 H         1 UNK         0.3098 
    153 H153      -44.0372  -28.9159    7.0690 H         1 UNK         0.0720 
    154 H154      -43.3033  -30.6659    8.6736 H         1 UNK         0.0791 
    155 H155      -42.1412  -29.3516    8.6407 H         1 UNK         0.0791 
    156 H156      -43.2673  -29.4842    9.9842 H         1 UNK         0.0791 
    157 H157      -45.6259  -29.7497    9.2980 H         1 UNK         0.3028 
@<TRIPOS>BOND
     1    1    2 1    
     2    1   82 1    
     3    1   83 1    
     4    1   84 1    
     5    2    3 2    
     6    2    4 am   BACKBONE|DICT|INTERRES
     7    4    5 1    
     8    4   85 1    
     9    5    6 1    
    10    5   80 1    
    11    5   86 1    
    12    6    7 1    
    13    6   87 1    
    14    6   88 1    
    15    7    8 1    
    16    8    9 1    
    17    8   89 1    
    18    8   90 1    
    19    9   10 ar   
    20    9   14 ar   
    21   10   11 ar   
    22   10   91 1    
    23   11   12 ar   
    24   11   58 1    
    25   12   13 ar   
    26   12   92 1    
    27   13   14 ar   
    28   13   15 1    
    29   14   93 1    
    30   15   16 1    
    31   15   94 1    
    32   15   95 1    
    33   16   17 1    
    34   17   18 1    
    35   17   96 1    
    36   17   97 1    
    37   18   19 1    
    38   18   22 1    
    39   18   98 1    
    40   19   20 am   BACKBONE|DICT|INTERRES
    41   19   21 2    
    42   20   99 1    
    43   20  100 1    
    44   22   23 am   BACKBONE|DICT|INTERRES
    45   22  101 1    
    46   23   24 2    
    47   23   25 1    
    48   25   26 1    
    49   25   27 1    
    50   25  102 1    
    51   26  103 1    
    52   26  104 1    
    53   26  105 1    
    54   27   28 am   BACKBONE|DICT|INTERRES
    55   27  106 1    
    56   28   29 2    
    57   28   30 1    
    58   30   31 1    
    59   30   32 1    
    60   30  107 1    
    61   31  108 1    
    62   31  109 1    
    63   31  110 1    
    64   32   33 am   BACKBONE|DICT|INTERRES
    65   32  111 1    
    66   33   34 2    
    67   33   35 1    
    68   35   36 1    
    69   35   37 1    
    70   35  112 1    
    71   36  113 1    
    72   36  114 1    
    73   36  115 1    
    74   37   38 am   BACKBONE|DICT|INTERRES
    75   37  116 1    
    76   38   39 2    
    77   38   40 1    
    78   40   41 1    
    79   40   42 1    
    80   40  117 1    
    81   41  118 1    
    82   41  119 1    
    83   41  120 1    
    84   42   43 am   BACKBONE|DICT|INTERRES
    85   42  121 1    
    86   43   44 2    
    87   43   45 1    
    88   45   46 1    
    89   45   47 1    
    90   45  122 1    
    91   46  123 1    
    92   46  124 1    
    93   46  125 1    
    94   47   48 am   BACKBONE|DICT|INTERRES
    95   47  126 1    
    96   48   49 2    
    97   48   50 1    
    98   50   51 1    
    99   50   52 1    
   100   50  127 1    
   101   51  128 1    
   102   51  129 1    
   103   51  130 1    
   104   52   53 am   BACKBONE|DICT|INTERRES
   105   52  131 1    
   106   53   54 2    
   107   53   55 1    
   108   55   56 1    
   109   55   59 1    
   110   55  132 1    
   111   56   57 1    
   112   56  133 1    
   113   56  134 1    
   114   57   58 1    
   115   58  135 1    
   116   58  136 1    
   117   59   60 am   BACKBONE|DICT|INTERRES
   118   59  137 1    
   119   60   61 2    
   120   60   62 1    
   121   62   63 1    
   122   62   64 1    
   123   62  138 1    
   124   63  139 1    
   125   63  140 1    
   126   63  141 1    
   127   64   65 am   BACKBONE|DICT|INTERRES
   128   64  142 1    
   129   65   66 2    
   130   65   67 1    
   131   67   68 1    
   132   67   69 1    
   133   67  143 1    
   134   68  144 1    
   135   68  145 1    
   136   68  146 1    
   137   69   70 am   BACKBONE|DICT|INTERRES
   138   69  147 1    
   139   70   71 2    
   140   70   72 1    
   141   72   73 1    
   142   72   74 1    
   143   72  148 1    
   144   73  149 1    
   145   73  150 1    
   146   73  151 1    
   147   74   75 am   BACKBONE|DICT|INTERRES
   148   74  152 1    
   149   75   76 2    
   150   75   77 1    
   151   77   78 1    
   152   77   79 1    
   153   77  153 1    
   154   78  154 1    
   155   78  155 1    
   156   78  156 1    
   157   79   80 am   BACKBONE|DICT|INTERRES
   158   79  157 1    
   159   80   81 2    
@<TRIPOS>SUBSTRUCTURE
     1 UNK         1 GROUP             0       ****    0 ROOT    
