@<TRIPOS>MOLECULE
3R207
157   159    1
SMALL
USER_CHARGES


@<TRIPOS>ATOM
      1 CA        -52.9675  -23.4465    2.7837 C.3       0 UNK        -0.1975 
      2 C         -52.3883  -24.6056    3.5814 C.2       0 UNK         0.4852 
      3 O         -52.2296  -25.6986    3.0372 O.2       0 UNK        -0.5216 
      4 N         -52.0710  -24.3692    4.8639 N.am      1 UNK        -0.4461 
      5 CA        -51.5042  -25.3411    5.8123 C.3       1 UNK         0.0864 
      6 C6        -52.4851  -26.5112    6.1203 C.3       14 UNK        -0.0898 
      7 S7        -52.4019  -27.0561    7.8581 S.3       14 UNK        -0.2598 
      8 C8        -51.7886  -28.7578    7.6673 C.3       14 UNK         0.0286 
      9 C9        -51.3146  -29.3457    8.9886 C.ar      14 UNK        -0.0844 
     10 C10       -49.9755  -29.7099    9.1597 C.ar      14 UNK        -0.0881 
     11 C11       -49.5437  -30.3029   10.3503 C.ar      14 UNK        -0.0643 
     12 C12       -50.4633  -30.5220   11.3808 C.ar      14 UNK        -0.0930 
     13 C13       -51.8048  -30.1587   11.2234 C.ar      14 UNK        -0.0827 
     14 C14       -52.2218  -29.5664   10.0275 C.ar      14 UNK        -0.1249 
     15 C15       -52.7992  -30.3811   12.3520 C.3       14 UNK         0.0141 
     16 S16       -54.2287  -31.3859   11.8411 S.3       14 UNK        -0.2313 
     17 C17       -55.3813  -31.0424   13.2129 C.3       14 UNK        -0.0915 
     18 CA        -56.3921  -29.9157   12.8709 C.3       13 UNK         0.0968 
     19 C         -57.4764  -29.8032   13.9743 C.2       13 UNK         0.5732 
     20 N         -57.3109  -28.9548   14.9813 N.am      13 UNK        -0.7310 
     21 O         -58.4919  -30.4921   13.9095 O.2       13 UNK        -0.5035 
     22 N         -55.7125  -28.6347   12.6196 N.am      13 UNK        -0.4233 
     23 C         -55.8074  -27.9190   11.4912 C.2       13 UNK         0.4989 
     24 O         -56.5021  -28.2536   10.5296 O.2       13 UNK        -0.4996 
     25 CA        -54.9628  -26.6283   11.3951 C.3       12 UNK         0.0216 
     26 CB        -55.5738  -25.5840   10.4377 C.3       12 UNK        -0.1964 
     27 N         -54.6373  -26.0136   12.6872 N.am      12 UNK        -0.4276 
     28 C         -55.4805  -25.5784   13.6323 C.2       12 UNK         0.5020 
     29 O         -56.7079  -25.5965   13.5209 O.2       12 UNK        -0.5489 
     30 CA        -54.8264  -25.0762   14.9386 C.3       11 UNK         0.0294 
     31 CB        -55.8526  -24.8840   16.0745 C.3       11 UNK        -0.2019 
     32 N         -53.7112  -25.9111   15.4166 N.am      11 UNK        -0.4493 
     33 C         -53.7120  -27.2398   15.6142 C.2       11 UNK         0.4932 
     34 O         -54.6599  -27.9680   15.3156 O.2       11 UNK        -0.5029 
     35 CA        -52.4612  -27.8741   16.2521 C.3       10 UNK         0.0280 
     36 CB        -52.0895  -29.2137   15.5985 C.3       10 UNK        -0.1976 
     37 N         -51.2919  -26.9944   16.2084 N.am      10 UNK        -0.4242 
     38 C         -50.8197  -26.3013   17.2523 C.2       10 UNK         0.5072 
     39 O         -51.3224  -26.3191   18.3768 O.2       10 UNK        -0.5224 
     40 CA        -49.5823  -25.4230   17.0016 C.3       9 UNK         0.0343 
     41 CB        -48.2986  -26.2570   17.1331 C.3       9 UNK        -0.2003 
     42 N         -49.5933  -24.7266   15.7104 N.am      9 UNK        -0.4272 
     43 C         -50.5247  -23.8344   15.3377 C.2       9 UNK         0.4988 
     44 O         -51.5138  -23.5486   16.0138 O.2       9 UNK        -0.5108 
     45 CA        -50.3320  -23.1531   13.9751 C.3       8 UNK         0.0248 
     46 CB        -49.2302  -22.0845   14.0538 C.3       8 UNK        -0.2001 
     47 N         -50.0340  -24.1084   12.9072 N.am      8 UNK        -0.4140 
     48 C         -50.9072  -25.0232   12.4601 C.2       8 UNK         0.5028 
     49 O         -52.0595  -25.1269   12.8756 O.2       8 UNK        -0.5428 
     50 CA        -50.4069  -26.0226   11.4068 C.3       7 UNK         0.0264 
     51 CB        -50.2857  -25.3434   10.0359 C.3       7 UNK        -0.1988 
     52 N         -49.1328  -26.6390   11.7779 N.am      7 UNK        -0.4454 
     53 C         -48.9270  -27.3343   12.9086 C.2       7 UNK         0.5027 
     54 O         -49.8019  -27.5638   13.7452 O.2       7 UNK        -0.5083 
     55 CA        -47.4878  -27.7912   13.2066 C.3       6 UNK         0.0844 
     56 C56       -47.1970  -29.2311   12.7181 C.3       14 UNK        -0.0967 
     57 S57       -46.9704  -29.3903   10.9154 S.3       14 UNK        -0.2604 
     58 C58       -48.0970  -30.7560   10.4934 C.3       14 UNK         0.0134 
     59 N         -46.4958  -26.8070   12.7642 N.am      6 UNK        -0.4116 
     60 C         -46.3203  -25.6138   13.3498 C.2       5 UNK         0.5034 
     61 O         -46.9678  -25.2230   14.3228 O.2       5 UNK        -0.5045 
     62 CA        -45.2654  -24.6863   12.7255 C.3       5 UNK         0.0224 
     63 CB        -43.8522  -25.2822   12.8433 C.3       5 UNK        -0.1978 
     64 N         -45.5508  -24.3554   11.3272 N.am      5 UNK        -0.4737 
     65 C         -46.6455  -23.7061   10.9074 C.2       4 UNK         0.5027 
     66 O         -47.5500  -23.3321   11.6511 O.2       4 UNK        -0.5211 
     67 CA        -46.7659  -23.4298    9.4003 C.3       4 UNK         0.0297 
     68 CB        -46.0456  -22.1206    9.0410 C.3       4 UNK        -0.1993 
     69 N         -46.2935  -24.4995    8.5159 N.am      4 UNK        -0.4486 
     70 C         -46.6209  -25.7976    8.5731 C.2       3 UNK         0.4961 
     71 O         -47.2643  -26.3126    9.4883 O.2       3 UNK        -0.5105 
     72 CA        -46.1950  -26.6326    7.3532 C.3       3 UNK         0.0299 
     73 CB        -46.2877  -28.1468    7.5995 C.3       3 UNK        -0.1972 
     74 N         -47.0331  -26.2866    6.2052 N.am      3 UNK        -0.4305 
     75 C         -46.8665  -25.2218    5.4130 C.2       2 UNK         0.5006 
     76 O         -45.9327  -24.4267    5.5331 O.2       2 UNK        -0.5106 
     77 CA        -47.9258  -24.9809    4.3233 C.3       2 UNK         0.0296 
     78 CB        -47.8244  -26.0258    3.1939 C.3       2 UNK        -0.2002 
     79 N         -49.3005  -24.8599    4.8330 N.am      2 UNK        -0.4032 
     80 C         -50.0752  -25.7928    5.4126 C.2       1 UNK         0.5000 
     81 O         -49.6988  -26.9467    5.6287 O.2       1 UNK        -0.5238 
     82 H82       -53.0562  -22.5408    3.3834 H         1 UNK         0.0889 
     83 H83       -53.9589  -23.7055    2.4130 H         1 UNK         0.0889 
     84 H84       -52.3307  -23.2253    1.9276 H         1 UNK         0.0889 
     85 H85       -52.2388  -23.4471    5.2438 H         1 UNK         0.3028 
     86 H86       -51.3698  -24.7706    6.7330 H         1 UNK         0.0864 
     87 H87       -52.3399  -27.3501    5.4371 H         1 UNK         0.0720 
     88 H88       -53.5145  -26.1867    5.9604 H         1 UNK         0.0720 
     89 H89       -50.9801  -28.7746    6.9362 H         1 UNK         0.0814 
     90 H90       -52.5850  -29.3816    7.2592 H         1 UNK         0.0814 
     91 H91       -49.2696  -29.5514    8.3571 H         1 UNK         0.1469 
     92 H92       -50.1354  -30.9832   12.3020 H         1 UNK         0.1381 
     93 H93       -53.2587  -29.2864    9.8995 H         1 UNK         0.1206 
     94 H94       -53.1351  -29.4064   12.7042 H         1 UNK         0.0813 
     95 H95       -52.3213  -30.8785   13.1965 H         1 UNK         0.0813 
     96 H96       -54.8179  -30.7981   14.1155 H         1 UNK         0.0638 
     97 H97       -55.9095  -31.9732   13.4283 H         1 UNK         0.0638 
     98 H98       -56.9224  -30.2286   11.9696 H         1 UNK         0.0568 
     99 H99       -58.0259  -28.8820   15.6865 H         1 UNK         0.3450 
    100 H100      -56.4391  -28.4447   15.0883 H         1 UNK         0.3450 
    101 H101      -55.1849  -28.2605   13.4000 H         1 UNK         0.2987 
    102 H102      -54.0064  -26.9364   10.9693 H         1 UNK         0.0766 
    103 H103      -54.9420  -24.6989   10.3633 H         1 UNK         0.0798 
    104 H104      -56.5633  -25.2655   10.7673 H         1 UNK         0.0798 
    105 H105      -55.6781  -25.9883    9.4300 H         1 UNK         0.0798 
    106 H106      -53.6407  -25.8596   12.8600 H         1 UNK         0.3198 
    107 H107      -54.3978  -24.0998   14.7064 H         1 UNK         0.0843 
    108 H108      -56.3398  -25.8235   16.3384 H         1 UNK         0.0831 
    109 H109      -56.6344  -24.1814   15.7833 H         1 UNK         0.0831 
    110 H110      -55.3805  -24.4863   16.9728 H         1 UNK         0.0831 
    111 H111      -52.8656  -25.4038   15.6482 H         1 UNK         0.3133 
    112 H112      -52.7320  -28.0880   17.2877 H         1 UNK         0.0566 
    113 H113      -51.2805  -29.7033   16.1405 H         1 UNK         0.0814 
    114 H114      -52.9325  -29.9055   15.5860 H         1 UNK         0.0814 
    115 H115      -51.7562  -29.0682   14.5733 H         1 UNK         0.0814 
    116 H116      -50.7954  -26.9521   15.3207 H         1 UNK         0.3091 
    117 H117      -49.5654  -24.6564   17.7791 H         1 UNK         0.0702 
    118 H118      -47.4087  -25.6332   17.0481 H         1 UNK         0.0785 
    119 H119      -48.2423  -27.0297   16.3665 H         1 UNK         0.0785 
    120 H120      -48.2532  -26.7550   18.1026 H         1 UNK         0.0785 
    121 H121      -48.8003  -24.8944   15.0976 H         1 UNK         0.2998 
    122 H122      -51.2680  -22.6514   13.7202 H         1 UNK         0.0697 
    123 H123      -48.2538  -22.5246   14.2618 H         1 UNK         0.0825 
    124 H124      -49.4399  -21.3622   14.8438 H         1 UNK         0.0825 
    125 H125      -49.1516  -21.5290   13.1191 H         1 UNK         0.0825 
    126 H126      -49.1052  -24.0559   12.4945 H         1 UNK         0.3029 
    127 H127      -51.1433  -26.8255   11.3261 H         1 UNK         0.0897 
    128 H128      -49.5635  -24.5295   10.0518 H         1 UNK         0.0792 
    129 H129      -51.2429  -24.9243    9.7237 H         1 UNK         0.0792 
    130 H130      -49.9734  -26.0536    9.2700 H         1 UNK         0.0792 
    131 H131      -48.3663  -26.5320   11.1176 H         1 UNK         0.3086 
    132 H132      -47.4129  -27.8318   14.2950 H         1 UNK         0.0583 
    133 H133      -46.2814  -29.5891   13.1913 H         1 UNK         0.1020 
    134 H134      -47.9795  -29.9103   13.0609 H         1 UNK         0.1020 
    135 H135      -47.7666  -31.1926    9.5497 H         1 UNK         0.0694 
    136 H136      -48.0091  -31.5506   11.2359 H         1 UNK         0.0694 
    137 H137      -45.9796  -27.0330   11.9260 H         1 UNK         0.2989 
    138 H138      -45.2851  -23.7532   13.2934 H         1 UNK         0.1055 
    139 H139      -43.6256  -25.5472   13.8772 H         1 UNK         0.0806 
    140 H140      -43.0945  -24.5671   12.5224 H         1 UNK         0.0806 
    141 H141      -43.7353  -26.1846   12.2421 H         1 UNK         0.0806 
    142 H142      -44.8722  -24.6388   10.6353 H         1 UNK         0.3061 
    143 H143      -47.8257  -23.2919    9.1821 H         1 UNK         0.0734 
    144 H144      -46.2293  -21.8364    8.0046 H         1 UNK         0.0832 
    145 H145      -46.3951  -21.2978    9.6666 H         1 UNK         0.0832 
    146 H146      -44.9670  -22.2014    9.1816 H         1 UNK         0.0832 
    147 H147      -45.8052  -24.1993    7.6797 H         1 UNK         0.3156 
    148 H148      -45.1533  -26.3965    7.1257 H         1 UNK         0.0589 
    149 H149      -47.3011  -28.4515    7.8591 H         1 UNK         0.0808 
    150 H150      -45.9816  -28.7131    6.7200 H         1 UNK         0.0808 
    151 H151      -45.6343  -28.4446    8.4198 H         1 UNK         0.0808 
    152 H152      -47.8883  -26.8243    6.0764 H         1 UNK         0.3098 
    153 H153      -47.6958  -24.0105    3.8801 H         1 UNK         0.0720 
    154 H154      -48.5220  -25.8026    2.3865 H         1 UNK         0.0791 
    155 H155      -48.0348  -27.0362    3.5455 H         1 UNK         0.0791 
    156 H156      -46.8222  -26.0361    2.7633 H         1 UNK         0.0791 
    157 H157      -49.7085  -23.9418    4.7245 H         1 UNK         0.3028 
@<TRIPOS>BOND
     1    1    2 1    
     2    1   82 1    
     3    1   83 1    
     4    1   84 1    
     5    2    3 2    
     6    2    4 am   BACKBONE|DICT|INTERRES
     7    4    5 1    
     8    4   85 1    
     9    5    6 1    
    10    5   80 1    
    11    5   86 1    
    12    6    7 1    
    13    6   87 1    
    14    6   88 1    
    15    7    8 1    
    16    8    9 1    
    17    8   89 1    
    18    8   90 1    
    19    9   10 ar   
    20    9   14 ar   
    21   10   11 ar   
    22   10   91 1    
    23   11   12 ar   
    24   11   58 1    
    25   12   13 ar   
    26   12   92 1    
    27   13   14 ar   
    28   13   15 1    
    29   14   93 1    
    30   15   16 1    
    31   15   94 1    
    32   15   95 1    
    33   16   17 1    
    34   17   18 1    
    35   17   96 1    
    36   17   97 1    
    37   18   19 1    
    38   18   22 1    
    39   18   98 1    
    40   19   20 am   BACKBONE|DICT|INTERRES
    41   19   21 2    
    42   20   99 1    
    43   20  100 1    
    44   22   23 am   BACKBONE|DICT|INTERRES
    45   22  101 1    
    46   23   24 2    
    47   23   25 1    
    48   25   26 1    
    49   25   27 1    
    50   25  102 1    
    51   26  103 1    
    52   26  104 1    
    53   26  105 1    
    54   27   28 am   BACKBONE|DICT|INTERRES
    55   27  106 1    
    56   28   29 2    
    57   28   30 1    
    58   30   31 1    
    59   30   32 1    
    60   30  107 1    
    61   31  108 1    
    62   31  109 1    
    63   31  110 1    
    64   32   33 am   BACKBONE|DICT|INTERRES
    65   32  111 1    
    66   33   34 2    
    67   33   35 1    
    68   35   36 1    
    69   35   37 1    
    70   35  112 1    
    71   36  113 1    
    72   36  114 1    
    73   36  115 1    
    74   37   38 am   BACKBONE|DICT|INTERRES
    75   37  116 1    
    76   38   39 2    
    77   38   40 1    
    78   40   41 1    
    79   40   42 1    
    80   40  117 1    
    81   41  118 1    
    82   41  119 1    
    83   41  120 1    
    84   42   43 am   BACKBONE|DICT|INTERRES
    85   42  121 1    
    86   43   44 2    
    87   43   45 1    
    88   45   46 1    
    89   45   47 1    
    90   45  122 1    
    91   46  123 1    
    92   46  124 1    
    93   46  125 1    
    94   47   48 am   BACKBONE|DICT|INTERRES
    95   47  126 1    
    96   48   49 2    
    97   48   50 1    
    98   50   51 1    
    99   50   52 1    
   100   50  127 1    
   101   51  128 1    
   102   51  129 1    
   103   51  130 1    
   104   52   53 am   BACKBONE|DICT|INTERRES
   105   52  131 1    
   106   53   54 2    
   107   53   55 1    
   108   55   56 1    
   109   55   59 1    
   110   55  132 1    
   111   56   57 1    
   112   56  133 1    
   113   56  134 1    
   114   57   58 1    
   115   58  135 1    
   116   58  136 1    
   117   59   60 am   BACKBONE|DICT|INTERRES
   118   59  137 1    
   119   60   61 2    
   120   60   62 1    
   121   62   63 1    
   122   62   64 1    
   123   62  138 1    
   124   63  139 1    
   125   63  140 1    
   126   63  141 1    
   127   64   65 am   BACKBONE|DICT|INTERRES
   128   64  142 1    
   129   65   66 2    
   130   65   67 1    
   131   67   68 1    
   132   67   69 1    
   133   67  143 1    
   134   68  144 1    
   135   68  145 1    
   136   68  146 1    
   137   69   70 am   BACKBONE|DICT|INTERRES
   138   69  147 1    
   139   70   71 2    
   140   70   72 1    
   141   72   73 1    
   142   72   74 1    
   143   72  148 1    
   144   73  149 1    
   145   73  150 1    
   146   73  151 1    
   147   74   75 am   BACKBONE|DICT|INTERRES
   148   74  152 1    
   149   75   76 2    
   150   75   77 1    
   151   77   78 1    
   152   77   79 1    
   153   77  153 1    
   154   78  154 1    
   155   78  155 1    
   156   78  156 1    
   157   79   80 am   BACKBONE|DICT|INTERRES
   158   79  157 1    
   159   80   81 2    
@<TRIPOS>SUBSTRUCTURE
     1 UNK         1 GROUP             0       ****    0 ROOT    
