@<TRIPOS>MOLECULE
3R207
157   159    1
SMALL
USER_CHARGES


@<TRIPOS>ATOM
      1 CA        -45.1683  -30.1795    3.0016 C.3       0 UNK        -0.1975 
      2 C         -46.4346  -29.3378    2.9493 C.2       0 UNK         0.4852 
      3 O         -46.6217  -28.5717    2.0034 O.2       0 UNK        -0.5216 
      4 N         -47.3045  -29.4734    3.9593 N.am      1 UNK        -0.4461 
      5 CA        -48.5665  -28.7326    4.0939 C.3       1 UNK         0.0864 
      6 C6        -49.5426  -29.4405    5.0671 C.3       14 UNK        -0.0898 
      7 S7        -48.8442  -29.7166    6.7333 S.3       14 UNK        -0.2598 
      8 C8        -50.1845  -30.6422    7.5602 C.3       14 UNK         0.0286 
      9 C9        -51.2757  -29.7945    8.2204 C.ar      14 UNK        -0.0844 
     10 C10       -51.5373  -28.4686    7.8527 C.ar      14 UNK        -0.0881 
     11 C11       -52.5650  -27.7416    8.4613 C.ar      14 UNK        -0.0643 
     12 C12       -53.3412  -28.3458    9.4525 C.ar      14 UNK        -0.0930 
     13 C13       -53.0905  -29.6654    9.8378 C.ar      14 UNK        -0.0827 
     14 C14       -52.0613  -30.3812    9.2181 C.ar      14 UNK        -0.1249 
     15 C15       -53.9364  -30.3209   10.9177 C.3       14 UNK         0.0141 
     16 S16       -53.5621  -29.6172   12.5499 S.3       14 UNK        -0.2313 
     17 C17       -54.4053  -30.8015   13.6501 C.3       14 UNK        -0.0915 
     18 CA        -55.8764  -30.4197   13.9560 C.3       13 UNK         0.0968 
     19 C         -56.5238  -31.4873   14.8811 C.2       13 UNK         0.5732 
     20 N         -57.1590  -32.5015   14.3099 N.am      13 UNK        -0.7310 
     21 O         -56.4151  -31.4273   16.1049 O.2       13 UNK        -0.5035 
     22 N         -55.9764  -29.0533   14.4873 N.am      13 UNK        -0.4233 
     23 C         -57.1131  -28.4063   14.7743 C.2       13 UNK         0.4989 
     24 O         -58.2402  -28.8730   14.6032 O.2       13 UNK        -0.4996 
     25 CA        -56.9675  -26.9809   15.3268 C.3       12 UNK         0.0216 
     26 CB        -56.8144  -27.0054   16.8563 C.3       12 UNK        -0.1964 
     27 N         -55.8351  -26.2666   14.7320 N.am      12 UNK        -0.4276 
     28 C         -55.8550  -25.6976   13.5160 C.2       12 UNK         0.5020 
     29 O         -56.8321  -25.7483   12.7666 O.2       12 UNK        -0.5489 
     30 CA        -54.5860  -24.9506   13.0445 C.3       11 UNK         0.0294 
     31 CB        -54.9112  -23.7167   12.1776 C.3       11 UNK        -0.2019 
     32 N         -53.6610  -24.5931   14.1256 N.am      11 UNK        -0.4493 
     33 C         -53.8972  -23.8325   15.2058 C.2       11 UNK         0.4932 
     34 O         -54.9334  -23.1885   15.3747 O.2       11 UNK        -0.5029 
     35 CA        -52.8089  -23.8268   16.3032 C.3       10 UNK         0.0280 
     36 CB        -53.4070  -23.6221   17.7107 C.3       10 UNK        -0.1976 
     37 N         -51.9299  -25.0077   16.2990 N.am      10 UNK        -0.4242 
     38 C         -52.2901  -26.3018   16.3733 C.2       10 UNK         0.5072 
     39 O         -53.4635  -26.6729   16.4476 O.2       10 UNK        -0.5224 
     40 CA        -51.1708  -27.3599   16.3068 C.3       9 UNK         0.0343 
     41 CB        -51.6006  -28.5916   15.4929 C.3       9 UNK        -0.2003 
     42 N         -49.9551  -26.8123   15.7044 N.am      9 UNK        -0.4272 
     43 C         -48.7641  -26.7046   16.3083 C.2       9 UNK         0.4988 
     44 O         -48.5259  -27.1375   17.4364 O.2       9 UNK        -0.5108 
     45 CA        -47.6446  -25.9682   15.5425 C.3       8 UNK         0.0248 
     46 CB        -46.7017  -26.9820   14.8745 C.3       8 UNK        -0.2001 
     47 N         -48.1185  -25.0113   14.5346 N.am      8 UNK        -0.4140 
     48 C         -48.9310  -23.9719   14.7759 C.2       8 UNK         0.5028 
     49 O         -49.3402  -23.6696   15.8973 O.2       8 UNK        -0.5428 
     50 CA        -49.4432  -23.1805   13.5629 C.3       7 UNK         0.0264 
     51 CB        -48.4681  -22.0475   13.2093 C.3       7 UNK        -0.1988 
     52 N         -49.6975  -24.0001   12.3738 N.am      7 UNK        -0.4454 
     53 C         -50.5364  -25.0472   12.3017 C.2       7 UNK         0.5027 
     54 O         -51.1585  -25.4982   13.2644 O.2       7 UNK        -0.5083 
     55 CA        -50.6709  -25.7152   10.9190 C.3       6 UNK         0.0844 
     56 C56       -51.4540  -24.7797    9.9559 C.3       14 UNK        -0.0967 
     57 S57       -51.3932  -25.2436    8.1950 S.3       14 UNK        -0.2604 
     58 C58       -52.8514  -26.3152    8.0177 C.3       14 UNK         0.0134 
     59 N         -49.3472  -26.1196   10.4365 N.am      6 UNK        -0.4116 
     60 C         -48.5849  -27.0543   11.0273 C.2       5 UNK         0.5034 
     61 O         -48.9686  -27.7750   11.9486 O.2       5 UNK        -0.5045 
     62 CA        -47.1242  -27.1668   10.5648 C.3       5 UNK         0.0224 
     63 CB        -46.9702  -28.2129    9.4526 C.3       5 UNK        -0.1978 
     64 N         -46.5852  -25.8806   10.1188 N.am      5 UNK        -0.4737 
     65 C         -46.2581  -24.8807   10.9501 C.2       4 UNK         0.5027 
     66 O         -46.3448  -24.9580   12.1750 O.2       4 UNK        -0.5211 
     67 CA        -45.7936  -23.5610   10.3099 C.3       4 UNK         0.0297 
     68 CB        -44.2814  -23.5980   10.0403 C.3       4 UNK        -0.1993 
     69 N         -46.5046  -23.2446    9.0693 N.am      4 UNK        -0.4486 
     70 C         -47.8207  -23.0041    8.9852 C.2       3 UNK         0.4961 
     71 O         -48.5712  -22.9652    9.9599 O.2       3 UNK        -0.5105 
     72 CA        -48.4064  -22.8183    7.5739 C.3       3 UNK         0.0299 
     73 CB        -48.4057  -21.3310    7.1882 C.3       3 UNK        -0.1972 
     74 N         -47.7263  -23.5965    6.5295 N.am      3 UNK        -0.4305 
     75 C         -47.5864  -24.9305    6.5218 C.2       2 UNK         0.5006 
     76 O         -47.9700  -25.6680    7.4308 O.2       2 UNK        -0.5106 
     77 CA        -46.7997  -25.5198    5.3410 C.3       2 UNK         0.0296 
     78 CB        -45.2948  -25.5199    5.6590 C.3       2 UNK        -0.2002 
     79 N         -47.2096  -26.8868    5.0159 N.am      2 UNK        -0.4032 
     80 C         -48.3680  -27.2353    4.4360 C.2       1 UNK         0.5000 
     81 O         -49.2462  -26.4269    4.1267 O.2       1 UNK        -0.5238 
     82 H82       -44.2897  -29.5351    3.0101 H         1 UNK         0.0889 
     83 H83       -45.1102  -30.8241    2.1250 H         1 UNK         0.0889 
     84 H84       -45.1344  -30.8111    3.8893 H         1 UNK         0.0889 
     85 H85       -47.1058  -30.1203    4.7103 H         1 UNK         0.3028 
     86 H86       -49.0440  -28.7446    3.1113 H         1 UNK         0.0864 
     87 H87       -49.8122  -30.4138    4.6540 H         1 UNK         0.0720 
     88 H88       -50.4797  -28.8874    5.1374 H         1 UNK         0.0720 
     89 H89       -50.6470  -31.3268    6.8481 H         1 UNK         0.0814 
     90 H90       -49.7177  -31.2672    8.3231 H         1 UNK         0.0814 
     91 H91       -50.9442  -27.9788    7.0955 H         1 UNK         0.1469 
     92 H92       -54.1397  -27.7928    9.9281 H         1 UNK         0.1381 
     93 H93       -51.8719  -31.4047    9.5123 H         1 UNK         0.1206 
     94 H94       -54.9950  -30.1795   10.6951 H         1 UNK         0.0813 
     95 H95       -53.7622  -31.3978   10.9345 H         1 UNK         0.0813 
     96 H96       -54.3495  -31.7978   13.2077 H         1 UNK         0.0638 
     97 H97       -53.8295  -30.8537   14.5761 H         1 UNK         0.0638 
     98 H98       -56.4264  -30.4221   13.0130 H         1 UNK         0.0568 
     99 H99       -57.5707  -33.2118   14.8948 H         1 UNK         0.3450 
    100 H100      -57.2435  -32.5682   13.3076 H         1 UNK         0.3450 
    101 H101      -55.1000  -28.5876   14.6668 H         1 UNK         0.2987 
    102 H102      -57.8839  -26.4357   15.0900 H         1 UNK         0.0766 
    103 H103      -57.6772  -27.4795   17.3261 H         1 UNK         0.0798 
    104 H104      -56.7355  -25.9971   17.2632 H         1 UNK         0.0798 
    105 H105      -55.9290  -27.5616   17.1669 H         1 UNK         0.0798 
    106 H106      -54.9859  -26.2125   15.2899 H         1 UNK         0.3198 
    107 H107      -54.0449  -25.6604   12.4166 H         1 UNK         0.0843 
    108 H108      -55.5195  -22.9925   12.7202 H         1 UNK         0.0831 
    109 H109      -55.4662  -24.0009   11.2828 H         1 UNK         0.0831 
    110 H110      -54.0034  -23.2119   11.8477 H         1 UNK         0.0831 
    111 H111      -52.7466  -25.0381   14.0593 H         1 UNK         0.3133 
    112 H112      -52.1669  -22.9721   16.0862 H         1 UNK         0.0566 
    113 H113      -54.1060  -24.4181   17.9703 H         1 UNK         0.0814 
    114 H114      -53.9494  -22.6781   17.7760 H         1 UNK         0.0814 
    115 H115      -52.6282  -23.5977   18.4728 H         1 UNK         0.0814 
    116 H116      -50.9394  -24.7918   16.2247 H         1 UNK         0.3091 
    117 H117      -50.9843  -27.6761   17.3347 H         1 UNK         0.0702 
    118 H118      -50.8214  -29.3537   15.4865 H         1 UNK         0.0785 
    119 H119      -51.8094  -28.3208   14.4580 H         1 UNK         0.0785 
    120 H120      -52.4993  -29.0519   15.9052 H         1 UNK         0.0785 
    121 H121      -50.0696  -26.4219   14.7741 H         1 UNK         0.2998 
    122 H122      -47.0709  -25.4019   16.2788 H         1 UNK         0.0697 
    123 H123      -45.8432  -26.4872   14.4200 H         1 UNK         0.0825 
    124 H124      -47.2112  -27.5523   14.0970 H         1 UNK         0.0825 
    125 H125      -46.3139  -27.6960   15.6024 H         1 UNK         0.0825 
    126 H126      -47.7671  -25.1368   13.5896 H         1 UNK         0.3029 
    127 H127      -50.3965  -22.7314   13.8493 H         1 UNK         0.0897 
    128 H128      -48.3031  -21.3922   14.0656 H         1 UNK         0.0792 
    129 H129      -48.8531  -21.4298   12.3976 H         1 UNK         0.0792 
    130 H130      -47.4965  -22.4355   12.9031 H         1 UNK         0.0792 
    131 H131      -49.2331  -23.6974   11.5182 H         1 UNK         0.3086 
    132 H132      -51.2588  -26.6272   11.0444 H         1 UNK         0.0583 
    133 H133      -52.4967  -24.7133   10.2709 H         1 UNK         0.1020 
    134 H134      -51.0751  -23.7575   10.0062 H         1 UNK         0.1020 
    135 H135      -53.6953  -25.8878    8.5613 H         1 UNK         0.0694 
    136 H136      -53.1419  -26.3326    6.9664 H         1 UNK         0.0694 
    137 H137      -48.9719  -25.6062    9.6497 H         1 UNK         0.2989 
    138 H138      -46.5381  -27.5029   11.4236 H         1 UNK         0.1055 
    139 H139      -47.3566  -29.1822    9.7707 H         1 UNK         0.0806 
    140 H140      -45.9248  -28.3524    9.1775 H         1 UNK         0.0806 
    141 H141      -47.5174  -27.9255    8.5566 H         1 UNK         0.0806 
    142 H142      -46.5807  -25.7143    9.1199 H         1 UNK         0.3061 
    143 H143      -45.9934  -22.7582   11.0222 H         1 UNK         0.0734 
    144 H144      -44.0173  -24.3669    9.3130 H         1 UNK         0.0832 
    145 H145      -43.9207  -22.6403    9.6646 H         1 UNK         0.0832 
    146 H146      -43.7288  -23.8130   10.9561 H         1 UNK         0.0832 
    147 H147      -45.9655  -23.2499    8.2162 H         1 UNK         0.3156 
    148 H148      -49.4429  -23.1556    7.6063 H         1 UNK         0.0589 
    149 H149      -48.9151  -21.1660    6.2386 H         1 UNK         0.0808 
    150 H150      -47.3931  -20.9348    7.1015 H         1 UNK         0.0808 
    151 H151      -48.9257  -20.7339    7.9390 H         1 UNK         0.0808 
    152 H152      -47.3586  -23.0707    5.7493 H         1 UNK         0.3098 
    153 H153      -46.9730  -24.8983    4.4598 H         1 UNK         0.0720 
    154 H154      -44.9343  -24.5110    5.8639 H         1 UNK         0.0791 
    155 H155      -44.7124  -25.9036    4.8209 H         1 UNK         0.0791 
    156 H156      -45.0671  -26.1315    6.5335 H         1 UNK         0.0791 
    157 H157      -46.5703  -27.6251    5.2680 H         1 UNK         0.3028 
@<TRIPOS>BOND
     1    1    2 1    
     2    1   82 1    
     3    1   83 1    
     4    1   84 1    
     5    2    3 2    
     6    2    4 am   BACKBONE|DICT|INTERRES
     7    4    5 1    
     8    4   85 1    
     9    5    6 1    
    10    5   80 1    
    11    5   86 1    
    12    6    7 1    
    13    6   87 1    
    14    6   88 1    
    15    7    8 1    
    16    8    9 1    
    17    8   89 1    
    18    8   90 1    
    19    9   10 ar   
    20    9   14 ar   
    21   10   11 ar   
    22   10   91 1    
    23   11   12 ar   
    24   11   58 1    
    25   12   13 ar   
    26   12   92 1    
    27   13   14 ar   
    28   13   15 1    
    29   14   93 1    
    30   15   16 1    
    31   15   94 1    
    32   15   95 1    
    33   16   17 1    
    34   17   18 1    
    35   17   96 1    
    36   17   97 1    
    37   18   19 1    
    38   18   22 1    
    39   18   98 1    
    40   19   20 am   BACKBONE|DICT|INTERRES
    41   19   21 2    
    42   20   99 1    
    43   20  100 1    
    44   22   23 am   BACKBONE|DICT|INTERRES
    45   22  101 1    
    46   23   24 2    
    47   23   25 1    
    48   25   26 1    
    49   25   27 1    
    50   25  102 1    
    51   26  103 1    
    52   26  104 1    
    53   26  105 1    
    54   27   28 am   BACKBONE|DICT|INTERRES
    55   27  106 1    
    56   28   29 2    
    57   28   30 1    
    58   30   31 1    
    59   30   32 1    
    60   30  107 1    
    61   31  108 1    
    62   31  109 1    
    63   31  110 1    
    64   32   33 am   BACKBONE|DICT|INTERRES
    65   32  111 1    
    66   33   34 2    
    67   33   35 1    
    68   35   36 1    
    69   35   37 1    
    70   35  112 1    
    71   36  113 1    
    72   36  114 1    
    73   36  115 1    
    74   37   38 am   BACKBONE|DICT|INTERRES
    75   37  116 1    
    76   38   39 2    
    77   38   40 1    
    78   40   41 1    
    79   40   42 1    
    80   40  117 1    
    81   41  118 1    
    82   41  119 1    
    83   41  120 1    
    84   42   43 am   BACKBONE|DICT|INTERRES
    85   42  121 1    
    86   43   44 2    
    87   43   45 1    
    88   45   46 1    
    89   45   47 1    
    90   45  122 1    
    91   46  123 1    
    92   46  124 1    
    93   46  125 1    
    94   47   48 am   BACKBONE|DICT|INTERRES
    95   47  126 1    
    96   48   49 2    
    97   48   50 1    
    98   50   51 1    
    99   50   52 1    
   100   50  127 1    
   101   51  128 1    
   102   51  129 1    
   103   51  130 1    
   104   52   53 am   BACKBONE|DICT|INTERRES
   105   52  131 1    
   106   53   54 2    
   107   53   55 1    
   108   55   56 1    
   109   55   59 1    
   110   55  132 1    
   111   56   57 1    
   112   56  133 1    
   113   56  134 1    
   114   57   58 1    
   115   58  135 1    
   116   58  136 1    
   117   59   60 am   BACKBONE|DICT|INTERRES
   118   59  137 1    
   119   60   61 2    
   120   60   62 1    
   121   62   63 1    
   122   62   64 1    
   123   62  138 1    
   124   63  139 1    
   125   63  140 1    
   126   63  141 1    
   127   64   65 am   BACKBONE|DICT|INTERRES
   128   64  142 1    
   129   65   66 2    
   130   65   67 1    
   131   67   68 1    
   132   67   69 1    
   133   67  143 1    
   134   68  144 1    
   135   68  145 1    
   136   68  146 1    
   137   69   70 am   BACKBONE|DICT|INTERRES
   138   69  147 1    
   139   70   71 2    
   140   70   72 1    
   141   72   73 1    
   142   72   74 1    
   143   72  148 1    
   144   73  149 1    
   145   73  150 1    
   146   73  151 1    
   147   74   75 am   BACKBONE|DICT|INTERRES
   148   74  152 1    
   149   75   76 2    
   150   75   77 1    
   151   77   78 1    
   152   77   79 1    
   153   77  153 1    
   154   78  154 1    
   155   78  155 1    
   156   78  156 1    
   157   79   80 am   BACKBONE|DICT|INTERRES
   158   79  157 1    
   159   80   81 2    
@<TRIPOS>SUBSTRUCTURE
     1 UNK         1 GROUP             0       ****    0 ROOT    
