@<TRIPOS>MOLECULE
3R207
157   159    1
SMALL
USER_CHARGES


@<TRIPOS>ATOM
      1 CA        -51.0703  -23.5682    1.8002 C.3       0 UNK        -0.1975 
      2 C         -50.6084  -23.8156    3.2287 C.2       0 UNK         0.4852 
      3 O         -50.6374  -22.8962    4.0474 O.2       0 UNK        -0.5216 
      4 N         -50.1846  -25.0508    3.5326 N.am      1 UNK        -0.4461 
      5 CA        -49.6882  -25.4710    4.8497 C.3       1 UNK         0.0864 
      6 C6        -49.5932  -27.0172    4.9390 C.3       14 UNK        -0.0898 
      7 S7        -49.6690  -27.6223    6.6567 S.3       14 UNK        -0.2598 
      8 C8        -51.3031  -28.4266    6.6720 C.3       14 UNK         0.0286 
      9 C9        -51.7600  -28.7594    8.0856 C.ar      14 UNK        -0.0844 
     10 C10       -51.0732  -29.7088    8.8458 C.ar      14 UNK        -0.0881 
     11 C11       -51.4967  -30.0266   10.1393 C.ar      14 UNK        -0.0643 
     12 C12       -52.6231  -29.3910   10.6725 C.ar      14 UNK        -0.0930 
     13 C13       -53.3230  -28.4365    9.9218 C.ar      14 UNK        -0.0827 
     14 C14       -52.8826  -28.1296    8.6301 C.ar      14 UNK        -0.1249 
     15 C15       -54.5946  -27.7666   10.4378 C.3       14 UNK         0.0141 
     16 S16       -54.6374  -27.4700   12.2374 S.3       14 UNK        -0.2313 
     17 C17       -56.3097  -26.7486   12.4054 C.3       14 UNK        -0.0915 
     18 CA        -57.3836  -27.7410   12.9280 C.3       13 UNK         0.0968 
     19 C         -57.7465  -28.8311   11.8769 C.2       13 UNK         0.5732 
     20 N         -57.4308  -30.1016   12.1001 N.am      13 UNK        -0.7310 
     21 O         -58.3310  -28.5146   10.8437 O.2       13 UNK        -0.5035 
     22 N         -57.0306  -28.2505   14.2586 N.am      13 UNK        -0.4233 
     23 C         -57.8700  -28.8410   15.1180 C.2       13 UNK         0.4989 
     24 O         -59.0734  -28.9859   14.8986 O.2       13 UNK        -0.4996 
     25 CA        -57.2973  -29.3256   16.4659 C.3       12 UNK         0.0216 
     26 CB        -57.5079  -30.8416   16.6623 C.3       12 UNK        -0.1964 
     27 N         -55.9003  -28.9358   16.7133 N.am      12 UNK        -0.4276 
     28 C         -54.7859  -29.3701   16.1093 C.2       12 UNK         0.5020 
     29 O         -54.7684  -30.2227   15.2205 O.2       12 UNK        -0.5489 
     30 CA        -53.4851  -28.6604   16.5244 C.3       11 UNK         0.0294 
     31 CB        -52.2406  -29.5224   16.2546 C.3       11 UNK        -0.2019 
     32 N         -53.3342  -27.3796   15.8303 N.am      11 UNK        -0.4493 
     33 C         -54.0602  -26.2767   16.0591 C.2       11 UNK         0.4932 
     34 O         -54.9724  -26.2146   16.8863 O.2       11 UNK        -0.5029 
     35 CA        -53.6539  -25.0336   15.2493 C.3       10 UNK         0.0280 
     36 CB        -54.5351  -23.7997   15.5338 C.3       10 UNK        -0.1976 
     37 N         -52.2319  -24.7298   15.4356 N.am      10 UNK        -0.4242 
     38 C         -51.5967  -24.4325   16.5811 C.2       10 UNK         0.5072 
     39 O         -52.1571  -24.2685   17.6655 O.2       10 UNK        -0.5224 
     40 CA        -50.0620  -24.3203   16.5187 C.3       9 UNK         0.0343 
     41 CB        -49.4176  -25.6196   17.0295 C.3       9 UNK        -0.2003 
     42 N         -49.5532  -24.0369   15.1758 N.am      9 UNK        -0.4272 
     43 C         -49.7012  -22.8727   14.5286 C.2       9 UNK         0.4988 
     44 O         -50.2178  -21.8704   15.0231 O.2       9 UNK        -0.5108 
     45 CA        -49.2191  -22.8353   13.0713 C.3       8 UNK         0.0248 
     46 CB        -47.7056  -22.5810   12.9946 C.3       8 UNK        -0.2001 
     47 N         -49.5508  -24.0686   12.3546 N.am      8 UNK        -0.4140 
     48 C         -50.7797  -24.3901   11.9249 C.2       8 UNK         0.5028 
     49 O         -51.7676  -23.6704   12.0681 O.2       8 UNK        -0.5428 
     50 CA        -50.9301  -25.7469   11.2221 C.3       7 UNK         0.0264 
     51 CB        -50.5595  -25.6104    9.7384 C.3       7 UNK        -0.1988 
     52 N         -50.1097  -26.7906   11.8411 N.am      7 UNK        -0.4454 
     53 C         -50.3854  -27.3502   13.0293 C.2       7 UNK         0.5027 
     54 O         -51.3722  -27.0616   13.7087 O.2       7 UNK        -0.5083 
     55 CA        -49.3715  -28.3626   13.6025 C.3       6 UNK         0.0844 
     56 C56       -49.7669  -29.8285   13.2850 C.3       14 UNK        -0.0967 
     57 S57       -49.2096  -30.4380   11.6532 S.3       14 UNK        -0.2604 
     58 C58       -50.7500  -31.0874   10.9325 C.3       14 UNK         0.0134 
     59 N         -47.9795  -28.0750   13.2486 N.am      6 UNK        -0.4116 
     60 C         -47.3170  -26.9377   13.4910 C.2       5 UNK         0.5034 
     61 O         -47.7980  -25.9789   14.0949 O.2       5 UNK        -0.5045 
     62 CA        -45.8952  -26.8165   12.9143 C.3       5 UNK         0.0224 
     63 CB        -45.2612  -28.1694   12.5157 C.3       5 UNK        -0.1978 
     64 N         -45.8446  -25.8831   11.7811 N.am      5 UNK        -0.4737 
     65 C         -46.5774  -25.9304   10.6574 C.2       4 UNK         0.5027 
     66 O         -47.4688  -26.7565   10.4546 O.2       4 UNK        -0.5211 
     67 CA        -46.2879  -24.8747    9.5723 C.3       4 UNK         0.0297 
     68 CB        -45.2019  -23.8397    9.9496 C.3       4 UNK        -0.1993 
     69 N         -45.9745  -25.5069    8.2866 N.am      4 UNK        -0.4486 
     70 C         -44.9521  -26.3402    8.0235 C.2       3 UNK         0.4961 
     71 O         -44.1061  -26.6777    8.8527 O.2       3 UNK        -0.5105 
     72 CA        -44.8309  -26.8943    6.5893 C.3       3 UNK         0.0299 
     73 CB        -45.3956  -28.3230    6.5235 C.3       3 UNK        -0.1972 
     74 N         -45.4995  -26.0731    5.5790 N.am      3 UNK        -0.4305 
     75 C         -45.1619  -24.8196    5.2413 C.2       2 UNK         0.5006 
     76 O         -44.1500  -24.2505    5.6521 O.2       2 UNK        -0.5106 
     77 CA        -46.1243  -24.0568    4.3073 C.3       2 UNK         0.0296 
     78 CB        -45.5209  -23.9306    2.8985 C.3       2 UNK        -0.2002 
     79 N         -47.4701  -24.6367    4.1998 N.am      2 UNK        -0.4032 
     80 C         -48.3394  -24.8085    5.2096 C.2       1 UNK         0.5000 
     81 O         -48.0980  -24.4957    6.3776 O.2       1 UNK        -0.5238 
     82 H82       -52.1084  -23.2368    1.7941 H         1 UNK         0.0889 
     83 H83       -50.9977  -24.4654    1.1857 H         1 UNK         0.0889 
     84 H84       -50.4617  -22.7910    1.3386 H         1 UNK         0.0889 
     85 H85       -50.2014  -25.7650    2.8178 H         1 UNK         0.3028 
     86 H86       -50.4205  -25.1276    5.5844 H         1 UNK         0.0864 
     87 H87       -48.6814  -27.3930    4.4707 H         1 UNK         0.0720 
     88 H88       -50.4115  -27.4757    4.3813 H         1 UNK         0.0720 
     89 H89       -51.2619  -29.3409    6.0784 H         1 UNK         0.0814 
     90 H90       -52.0281  -27.7723    6.1851 H         1 UNK         0.0814 
     91 H91       -50.2037  -30.1995    8.4299 H         1 UNK         0.1469 
     92 H92       -52.9612  -29.6521   11.6656 H         1 UNK         0.1381 
     93 H93       -53.4239  -27.4024    8.0402 H         1 UNK         0.1206 
     94 H94       -55.4409  -28.3926   10.1551 H         1 UNK         0.0813 
     95 H95       -54.7356  -26.8077    9.9366 H         1 UNK         0.0813 
     96 H96       -56.6215  -26.3102   11.4556 H         1 UNK         0.0638 
     97 H97       -56.2315  -25.9079   13.0964 H         1 UNK         0.0638 
     98 H98       -58.2996  -27.1619   13.0590 H         1 UNK         0.0568 
     99 H99       -57.6746  -30.7996   11.4160 H         1 UNK         0.3450 
    100 H100      -56.9329  -30.3624   12.9365 H         1 UNK         0.3450 
    101 H101      -56.0490  -28.2233   14.4907 H         1 UNK         0.2987 
    102 H102      -57.8805  -28.8146   17.2334 H         1 UNK         0.0766 
    103 H103      -57.1325  -31.1727   17.6306 H         1 UNK         0.0798 
    104 H104      -57.0095  -31.4278   15.8899 H         1 UNK         0.0798 
    105 H105      -58.5680  -31.0956   16.6232 H         1 UNK         0.0798 
    106 H106      -55.7862  -28.1321   17.3232 H         1 UNK         0.3198 
    107 H107      -53.5291  -28.4680   17.5987 H         1 UNK         0.0843 
    108 H108      -52.1454  -29.7583   15.1963 H         1 UNK         0.0831 
    109 H109      -52.2981  -30.4684   16.7944 H         1 UNK         0.0831 
    110 H110      -51.3278  -29.0188   16.5732 H         1 UNK         0.0831 
    111 H111      -52.6293  -27.3363   15.0962 H         1 UNK         0.3133 
    112 H112      -53.7759  -25.2893   14.1960 H         1 UNK         0.0566 
    113 H113      -54.2294  -22.9482   14.9258 H         1 UNK         0.0814 
    114 H114      -55.5798  -24.0081   15.3001 H         1 UNK         0.0814 
    115 H115      -54.4912  -23.4981   16.5807 H         1 UNK         0.0814 
    116 H116      -51.6560  -24.8875   14.6195 H         1 UNK         0.3091 
    117 H117      -49.7613  -23.5026   17.1771 H         1 UNK         0.0702 
    118 H118      -48.3298  -25.5471   17.0381 H         1 UNK         0.0785 
    119 H119      -49.6914  -26.4739   16.4094 H         1 UNK         0.0785 
    120 H120      -49.7368  -25.8404   18.0490 H         1 UNK         0.0785 
    121 H121      -49.0369  -24.7857   14.7175 H         1 UNK         0.2998 
    122 H122      -49.7254  -22.0034   12.5764 H         1 UNK         0.0697 
    123 H123      -47.1294  -23.4030   13.4209 H         1 UNK         0.0825 
    124 H124      -47.4345  -21.6760   13.5400 H         1 UNK         0.0825 
    125 H125      -47.3857  -22.4413   11.9627 H         1 UNK         0.0825 
    126 H126      -48.8134  -24.7508   12.2511 H         1 UNK         0.3029 
    127 H127      -51.9764  -26.0539   11.2884 H         1 UNK         0.0897 
    128 H128      -51.2676  -24.9663    9.2161 H         1 UNK         0.0792 
    129 H129      -50.5719  -26.5783    9.2439 H         1 UNK         0.0792 
    130 H130      -49.5654  -25.1861    9.5979 H         1 UNK         0.0792 
    131 H131      -49.2634  -27.0631   11.3477 H         1 UNK         0.3086 
    132 H132      -49.4308  -28.2488   14.6868 H         1 UNK         0.0583 
    133 H133      -49.3266  -30.4846   14.0374 H         1 UNK         0.1020 
    134 H134      -50.8439  -29.9688   13.3799 H         1 UNK         0.1020 
    135 H135      -50.4960  -31.9144   10.2676 H         1 UNK         0.0694 
    136 H136      -51.3839  -31.5163   11.7100 H         1 UNK         0.0694 
    137 H137      -47.5256  -28.7791   12.6845 H         1 UNK         0.2989 
    138 H138      -45.2845  -26.3852   13.7093 H         1 UNK         0.1055 
    139 H139      -45.2707  -28.8733   13.3491 H         1 UNK         0.0806 
    140 H140      -44.2191  -28.0369   12.2240 H         1 UNK         0.0806 
    141 H141      -45.7737  -28.6382   11.6745 H         1 UNK         0.0806 
    142 H142      -45.1522  -25.1508   11.8533 H         1 UNK         0.3061 
    143 H143      -47.2214  -24.3303    9.4229 H         1 UNK         0.0734 
    144 H144      -45.0829  -23.0987    9.1588 H         1 UNK         0.0832 
    145 H145      -45.4650  -23.2937   10.8554 H         1 UNK         0.0832 
    146 H146      -44.2271  -24.3008   10.1116 H         1 UNK         0.0832 
    147 H147      -46.6396  -25.3119    7.5438 H         1 UNK         0.3156 
    148 H148      -43.7686  -26.9316    6.3395 H         1 UNK         0.0589 
    149 H149      -46.4619  -28.3463    6.7538 H         1 UNK         0.0808 
    150 H150      -45.2532  -28.7638    5.5366 H         1 UNK         0.0808 
    151 H151      -44.8947  -28.9733    7.2422 H         1 UNK         0.0808 
    152 H152      -46.3391  -26.4579    5.1739 H         1 UNK         0.3098 
    153 H153      -46.2372  -23.0530    4.7220 H         1 UNK         0.0720 
    154 H154      -46.1413  -23.3073    2.2541 H         1 UNK         0.0791 
    155 H155      -45.4075  -24.9039    2.4192 H         1 UNK         0.0791 
    156 H156      -44.5330  -23.4691    2.9357 H         1 UNK         0.0791 
    157 H157      -47.7629  -24.9184    3.2753 H         1 UNK         0.3028 
@<TRIPOS>BOND
     1    1    2 1    
     2    1   82 1    
     3    1   83 1    
     4    1   84 1    
     5    2    3 2    
     6    2    4 am   BACKBONE|DICT|INTERRES
     7    4    5 1    
     8    4   85 1    
     9    5    6 1    
    10    5   80 1    
    11    5   86 1    
    12    6    7 1    
    13    6   87 1    
    14    6   88 1    
    15    7    8 1    
    16    8    9 1    
    17    8   89 1    
    18    8   90 1    
    19    9   10 ar   
    20    9   14 ar   
    21   10   11 ar   
    22   10   91 1    
    23   11   12 ar   
    24   11   58 1    
    25   12   13 ar   
    26   12   92 1    
    27   13   14 ar   
    28   13   15 1    
    29   14   93 1    
    30   15   16 1    
    31   15   94 1    
    32   15   95 1    
    33   16   17 1    
    34   17   18 1    
    35   17   96 1    
    36   17   97 1    
    37   18   19 1    
    38   18   22 1    
    39   18   98 1    
    40   19   20 am   BACKBONE|DICT|INTERRES
    41   19   21 2    
    42   20   99 1    
    43   20  100 1    
    44   22   23 am   BACKBONE|DICT|INTERRES
    45   22  101 1    
    46   23   24 2    
    47   23   25 1    
    48   25   26 1    
    49   25   27 1    
    50   25  102 1    
    51   26  103 1    
    52   26  104 1    
    53   26  105 1    
    54   27   28 am   BACKBONE|DICT|INTERRES
    55   27  106 1    
    56   28   29 2    
    57   28   30 1    
    58   30   31 1    
    59   30   32 1    
    60   30  107 1    
    61   31  108 1    
    62   31  109 1    
    63   31  110 1    
    64   32   33 am   BACKBONE|DICT|INTERRES
    65   32  111 1    
    66   33   34 2    
    67   33   35 1    
    68   35   36 1    
    69   35   37 1    
    70   35  112 1    
    71   36  113 1    
    72   36  114 1    
    73   36  115 1    
    74   37   38 am   BACKBONE|DICT|INTERRES
    75   37  116 1    
    76   38   39 2    
    77   38   40 1    
    78   40   41 1    
    79   40   42 1    
    80   40  117 1    
    81   41  118 1    
    82   41  119 1    
    83   41  120 1    
    84   42   43 am   BACKBONE|DICT|INTERRES
    85   42  121 1    
    86   43   44 2    
    87   43   45 1    
    88   45   46 1    
    89   45   47 1    
    90   45  122 1    
    91   46  123 1    
    92   46  124 1    
    93   46  125 1    
    94   47   48 am   BACKBONE|DICT|INTERRES
    95   47  126 1    
    96   48   49 2    
    97   48   50 1    
    98   50   51 1    
    99   50   52 1    
   100   50  127 1    
   101   51  128 1    
   102   51  129 1    
   103   51  130 1    
   104   52   53 am   BACKBONE|DICT|INTERRES
   105   52  131 1    
   106   53   54 2    
   107   53   55 1    
   108   55   56 1    
   109   55   59 1    
   110   55  132 1    
   111   56   57 1    
   112   56  133 1    
   113   56  134 1    
   114   57   58 1    
   115   58  135 1    
   116   58  136 1    
   117   59   60 am   BACKBONE|DICT|INTERRES
   118   59  137 1    
   119   60   61 2    
   120   60   62 1    
   121   62   63 1    
   122   62   64 1    
   123   62  138 1    
   124   63  139 1    
   125   63  140 1    
   126   63  141 1    
   127   64   65 am   BACKBONE|DICT|INTERRES
   128   64  142 1    
   129   65   66 2    
   130   65   67 1    
   131   67   68 1    
   132   67   69 1    
   133   67  143 1    
   134   68  144 1    
   135   68  145 1    
   136   68  146 1    
   137   69   70 am   BACKBONE|DICT|INTERRES
   138   69  147 1    
   139   70   71 2    
   140   70   72 1    
   141   72   73 1    
   142   72   74 1    
   143   72  148 1    
   144   73  149 1    
   145   73  150 1    
   146   73  151 1    
   147   74   75 am   BACKBONE|DICT|INTERRES
   148   74  152 1    
   149   75   76 2    
   150   75   77 1    
   151   77   78 1    
   152   77   79 1    
   153   77  153 1    
   154   78  154 1    
   155   78  155 1    
   156   78  156 1    
   157   79   80 am   BACKBONE|DICT|INTERRES
   158   79  157 1    
   159   80   81 2    
@<TRIPOS>SUBSTRUCTURE
     1 UNK         1 GROUP             0       ****    0 ROOT    
