@<TRIPOS>MOLECULE
3R207
157   159    1
SMALL
USER_CHARGES


@<TRIPOS>ATOM
      1 CA        -53.7305  -27.4818    5.0608 C.3       0 UNK        -0.1975 
      2 C         -52.4482  -27.8944    5.7683 C.2       0 UNK         0.4852 
      3 O         -52.0811  -27.2797    6.7694 O.2       0 UNK        -0.5216 
      4 N         -51.7696  -28.9295    5.2549 N.am      1 UNK        -0.4461 
      5 CA        -50.5172  -29.4676    5.7993 C.3       1 UNK         0.0864 
      6 C6        -50.1346  -30.8317    5.1664 C.3       14 UNK        -0.0898 
      7 S7        -51.4965  -32.0505    5.1616 S.3       14 UNK        -0.2598 
      8 C8        -51.2312  -32.9480    6.7251 C.3       14 UNK         0.0286 
      9 C9        -51.5100  -32.0707    7.9372 C.ar      14 UNK        -0.0844 
     10 C10       -50.4605  -31.6513    8.7618 C.ar      14 UNK        -0.0881 
     11 C11       -50.7111  -30.8228    9.8597 C.ar      14 UNK        -0.0643 
     12 C12       -52.0202  -30.4256   10.1346 C.ar      14 UNK        -0.0930 
     13 C13       -53.0778  -30.8376    9.3221 C.ar      14 UNK        -0.0827 
     14 C14       -52.8184  -31.6680    8.2279 C.ar      14 UNK        -0.1249 
     15 C15       -54.4931  -30.3719    9.6269 C.3       14 UNK         0.0141 
     16 S16       -54.9322  -28.9273    8.6150 S.3       14 UNK        -0.2313 
     17 C17       -56.5693  -28.4973    9.2945 C.3       14 UNK        -0.0915 
     18 CA        -56.7443  -26.9620    9.4899 C.3       13 UNK         0.0968 
     19 C         -58.2177  -26.5538    9.8044 C.2       13 UNK         0.5732 
     20 N         -58.4613  -25.4767   10.5419 N.am      13 UNK        -0.7310 
     21 O         -59.1594  -27.1968    9.3455 O.2       13 UNK        -0.5035 
     22 N         -55.7295  -26.3701   10.3846 N.am      13 UNK        -0.4233 
     23 C         -55.6033  -26.5935   11.6995 C.2       13 UNK         0.4989 
     24 O         -56.3515  -27.3218   12.3567 O.2       13 UNK        -0.4996 
     25 CA        -54.4769  -25.8131   12.4043 C.3       12 UNK         0.0216 
     26 CB        -54.9457  -24.3883   12.7474 C.3       12 UNK        -0.1964 
     27 N         -54.0188  -26.4695   13.6319 N.am      12 UNK        -0.4276 
     28 C         -53.3728  -27.6423   13.6721 C.2       12 UNK         0.5020 
     29 O         -53.0611  -28.2773   12.6663 O.2       12 UNK        -0.5489 
     30 CA        -52.9783  -28.1638   15.0628 C.3       11 UNK         0.0294 
     31 CB        -52.0248  -29.3727   14.9950 C.3       11 UNK        -0.2019 
     32 N         -52.3251  -27.0898   15.8063 N.am      11 UNK        -0.4493 
     33 C         -52.6855  -26.6369   17.0124 C.2       11 UNK         0.4932 
     34 O         -53.6266  -27.0983   17.6602 O.2       11 UNK        -0.5029 
     35 CA        -51.8761  -25.4504   17.5719 C.3       10 UNK         0.0280 
     36 CB        -52.0330  -25.2708   19.0974 C.3       10 UNK        -0.1976 
     37 N         -50.4619  -25.4761   17.1788 N.am      10 UNK        -0.4242 
     38 C         -49.5310  -26.3820   17.5225 C.2       10 UNK         0.5072 
     39 O         -49.7512  -27.3327   18.2746 O.2       10 UNK        -0.5224 
     40 CA        -48.1116  -26.2267   16.9332 C.3       9 UNK         0.0343 
     41 CB        -47.7214  -27.4736   16.1203 C.3       9 UNK        -0.2003 
     42 N         -47.9419  -25.0428   16.0870 N.am      9 UNK        -0.4272 
     43 C         -47.8090  -23.7841   16.5265 C.2       9 UNK         0.4988 
     44 O         -47.7236  -23.4796   17.7164 O.2       9 UNK        -0.5108 
     45 CA        -47.8282  -22.6716   15.4605 C.3       8 UNK         0.0248 
     46 CB        -46.4087  -22.3881   14.9449 C.3       8 UNK        -0.2001 
     47 N         -48.7261  -22.9607   14.3330 N.am      8 UNK        -0.4140 
     48 C         -50.0535  -23.1262   14.4522 C.2       8 UNK         0.5028 
     49 O         -50.6598  -23.0088   15.5167 O.2       8 UNK        -0.5428 
     50 CA        -50.8375  -23.5499   13.2000 C.3       7 UNK         0.0264 
     51 CB        -51.1281  -22.3391   12.3008 C.3       7 UNK        -0.1988 
     52 N         -50.1653  -24.6034   12.4356 N.am      7 UNK        -0.4454 
     53 C         -49.9405  -25.8429   12.8990 C.2       7 UNK         0.5027 
     54 O         -50.3376  -26.2317   13.9978 O.2       7 UNK        -0.5083 
     55 CA        -49.0655  -26.7820   12.0422 C.3       6 UNK         0.0844 
     56 C56       -49.8802  -27.5216   10.9544 C.3       14 UNK        -0.0967 
     57 S57       -48.8649  -28.7935   10.1191 S.3       14 UNK        -0.2604 
     58 C58       -49.5688  -30.3488   10.7431 C.3       14 UNK         0.0134 
     59 N         -47.9059  -26.0789   11.4896 N.am      6 UNK        -0.4116 
     60 C         -46.9152  -25.5499   12.2184 C.2       5 UNK         0.5034 
     61 O         -46.8530  -25.6150   13.4452 O.2       5 UNK        -0.5045 
     62 CA        -45.8323  -24.7814   11.4502 C.3       5 UNK         0.0224 
     63 CB        -44.7986  -25.7459   10.8466 C.3       5 UNK        -0.1978 
     64 N         -46.4072  -23.9442   10.3960 N.am      5 UNK        -0.4737 
     65 C         -47.1026  -22.8221   10.6214 C.2       4 UNK         0.5027 
     66 O         -47.3170  -22.3644   11.7439 O.2       4 UNK        -0.5211 
     67 CA        -47.6817  -22.1084    9.3877 C.3       4 UNK         0.0297 
     68 CB        -46.6039  -21.2566    8.6986 C.3       4 UNK        -0.1993 
     69 N         -48.2830  -23.0264    8.4150 N.am      4 UNK        -0.4486 
     70 C         -49.3617  -23.7798    8.6668 C.2       3 UNK         0.4961 
     71 O         -49.9461  -23.8004    9.7478 O.2       3 UNK        -0.5105 
     72 CA        -49.8675  -24.6887    7.5377 C.3       3 UNK         0.0299 
     73 CB        -50.5721  -23.8657    6.4472 C.3       3 UNK        -0.1972 
     74 N         -48.8854  -25.5860    6.9176 N.am      3 UNK        -0.4305 
     75 C         -47.9045  -26.2770    7.5172 C.2       2 UNK         0.5006 
     76 O         -47.4922  -26.0627    8.6568 O.2       2 UNK        -0.5106 
     77 CA        -47.3514  -27.4704    6.7189 C.3       2 UNK         0.0296 
     78 CB        -46.1174  -28.1103    7.3831 C.3       2 UNK        -0.2002 
     79 N         -48.4071  -28.4794    6.5888 N.am      2 UNK        -0.4032 
     80 C         -49.3619  -28.4553    5.6492 C.2       1 UNK         0.5000 
     81 O         -49.3541  -27.6627    4.7013 O.2       1 UNK        -0.5238 
     82 H82       -54.5730  -27.5438    5.7492 H         1 UNK         0.0889 
     83 H83       -53.9462  -28.1183    4.2028 H         1 UNK         0.0889 
     84 H84       -53.6506  -26.4531    4.7107 H         1 UNK         0.0889 
     85 H85       -52.1148  -29.3943    4.4281 H         1 UNK         0.3028 
     86 H86       -50.6832  -29.6144    6.8678 H         1 UNK         0.0864 
     87 H87       -49.8252  -30.6923    4.1285 H         1 UNK         0.0720 
     88 H88       -49.2743  -31.2646    5.6804 H         1 UNK         0.0720 
     89 H89       -50.2153  -33.3453    6.7497 H         1 UNK         0.0814 
     90 H90       -51.8965  -33.8121    6.7516 H         1 UNK         0.0814 
     91 H91       -49.4462  -31.9564    8.5430 H         1 UNK         0.1469 
     92 H92       -52.2154  -29.7843   10.9787 H         1 UNK         0.1381 
     93 H93       -53.6317  -31.9825    7.5879 H         1 UNK         0.1206 
     94 H94       -54.5851  -30.1137   10.6837 H         1 UNK         0.0813 
     95 H95       -55.2024  -31.1791    9.4383 H         1 UNK         0.0813 
     96 H96       -56.7344  -29.0220   10.2366 H         1 UNK         0.0638 
     97 H97       -57.3120  -28.8866    8.5961 H         1 UNK         0.0638 
     98 H98       -56.5573  -26.5037    8.5182 H         1 UNK         0.0568 
     99 H99       -59.4162  -25.2148   10.7292 H         1 UNK         0.3450 
    100 H100      -57.7042  -24.9301   10.9175 H         1 UNK         0.3450 
    101 H101      -55.0817  -25.7388    9.9366 H         1 UNK         0.2987 
    102 H102      -53.6231  -25.7484   11.7257 H         1 UNK         0.0766 
    103 H103      -54.1570  -23.8105   13.2284 H         1 UNK         0.0798 
    104 H104      -55.8076  -24.3982   13.4162 H         1 UNK         0.0798 
    105 H105      -55.2371  -23.8425   11.8492 H         1 UNK         0.0798 
    106 H106      -54.2608  -26.0272   14.5060 H         1 UNK         0.3198 
    107 H107      -53.8999  -28.4768   15.5577 H         1 UNK         0.0843 
    108 H108      -51.0996  -29.1234   14.4732 H         1 UNK         0.0831 
    109 H109      -52.4861  -30.2071   14.4652 H         1 UNK         0.0831 
    110 H110      -51.7618  -29.7254   15.9923 H         1 UNK         0.0831 
    111 H111      -51.5500  -26.6438   15.3150 H         1 UNK         0.3133 
    112 H112      -52.2958  -24.5613   17.0999 H         1 UNK         0.0566 
    113 H113      -51.4557  -24.4194   19.4577 H         1 UNK         0.0814 
    114 H114      -53.0749  -25.0901   19.3641 H         1 UNK         0.0814 
    115 H115      -51.7079  -26.1547   19.6469 H         1 UNK         0.0814 
    116 H116      -50.1906  -24.7304   16.5464 H         1 UNK         0.3091 
    117 H117      -47.4231  -26.1446   17.7766 H         1 UNK         0.0702 
    118 H118      -46.7062  -27.3923   15.7311 H         1 UNK         0.0785 
    119 H119      -48.3920  -27.6285   15.2748 H         1 UNK         0.0785 
    120 H120      -47.7604  -28.3732   16.7357 H         1 UNK         0.0785 
    121 H121      -47.9185  -25.2066   15.0848 H         1 UNK         0.2998 
    122 H122      -48.1972  -21.7648   15.9442 H         1 UNK         0.0697 
    123 H123      -45.9853  -23.2503   14.4302 H         1 UNK         0.0825 
    124 H124      -45.7374  -22.1380   15.7675 H         1 UNK         0.0825 
    125 H125      -46.3988  -21.5465   14.2522 H         1 UNK         0.0825 
    126 H126      -48.2999  -23.0222   13.4130 H         1 UNK         0.3029 
    127 H127      -51.7926  -23.9549   13.5393 H         1 UNK         0.0897 
    128 H128      -51.7795  -22.6119   11.4703 H         1 UNK         0.0792 
    129 H129      -51.6301  -21.5478   12.8592 H         1 UNK         0.0792 
    130 H130      -50.2128  -21.9172   11.8836 H         1 UNK         0.0792 
    131 H131      -49.8625  -24.3560   11.4944 H         1 UNK         0.3086 
    132 H132      -48.6763  -27.5412   12.7243 H         1 UNK         0.0583 
    133 H133      -50.7645  -27.9881   11.3890 H         1 UNK         0.1020 
    134 H134      -50.2461  -26.8202   10.2019 H         1 UNK         0.1020 
    135 H135      -48.7822  -31.1045   10.7646 H         1 UNK         0.0694 
    136 H136      -49.9001  -30.2263   11.7757 H         1 UNK         0.0694 
    137 H137      -47.8493  -26.0147   10.4751 H         1 UNK         0.2989 
    138 H138      -45.3176  -24.1318   12.1616 H         1 UNK         0.1055 
    139 H139      -44.3370  -26.3562   11.6241 H         1 UNK         0.0806 
    140 H140      -43.9982  -25.2044   10.3423 H         1 UNK         0.0806 
    141 H141      -45.2496  -26.4273   10.1242 H         1 UNK         0.0806 
    142 H142      -46.3848  -24.3181    9.4555 H         1 UNK         0.3061 
    143 H143      -48.4688  -21.4377    9.7393 H         1 UNK         0.0734 
    144 H144      -47.0237  -20.6691    7.8819 H         1 UNK         0.0832 
    145 H145      -46.1548  -20.5543    9.4025 H         1 UNK         0.0832 
    146 H146      -45.7987  -21.8704    8.2932 H         1 UNK         0.0832 
    147 H147      -47.8491  -23.0928    7.5057 H         1 UNK         0.3156 
    148 H148      -50.6179  -25.3415    7.9869 H         1 UNK         0.0589 
    149 H149      -51.3134  -23.1927    6.8808 H         1 UNK         0.0808 
    150 H150      -49.8678  -23.2563    5.8799 H         1 UNK         0.0808 
    151 H151      -51.0991  -24.5122    5.7449 H         1 UNK         0.0808 
    152 H152      -49.1267  -25.8972    5.9839 H         1 UNK         0.3098 
    153 H153      -47.0515  -27.1094    5.7328 H         1 UNK         0.0720 
    154 H154      -46.3434  -28.4964    8.3778 H         1 UNK         0.0791 
    155 H155      -45.3135  -27.3812    7.4929 H         1 UNK         0.0791 
    156 H156      -45.7286  -28.9343    6.7848 H         1 UNK         0.0791 
    157 H157      -48.5017  -29.1191    7.3657 H         1 UNK         0.3028 
@<TRIPOS>BOND
     1    1    2 1    
     2    1   82 1    
     3    1   83 1    
     4    1   84 1    
     5    2    3 2    
     6    2    4 am   BACKBONE|DICT|INTERRES
     7    4    5 1    
     8    4   85 1    
     9    5    6 1    
    10    5   80 1    
    11    5   86 1    
    12    6    7 1    
    13    6   87 1    
    14    6   88 1    
    15    7    8 1    
    16    8    9 1    
    17    8   89 1    
    18    8   90 1    
    19    9   10 ar   
    20    9   14 ar   
    21   10   11 ar   
    22   10   91 1    
    23   11   12 ar   
    24   11   58 1    
    25   12   13 ar   
    26   12   92 1    
    27   13   14 ar   
    28   13   15 1    
    29   14   93 1    
    30   15   16 1    
    31   15   94 1    
    32   15   95 1    
    33   16   17 1    
    34   17   18 1    
    35   17   96 1    
    36   17   97 1    
    37   18   19 1    
    38   18   22 1    
    39   18   98 1    
    40   19   20 am   BACKBONE|DICT|INTERRES
    41   19   21 2    
    42   20   99 1    
    43   20  100 1    
    44   22   23 am   BACKBONE|DICT|INTERRES
    45   22  101 1    
    46   23   24 2    
    47   23   25 1    
    48   25   26 1    
    49   25   27 1    
    50   25  102 1    
    51   26  103 1    
    52   26  104 1    
    53   26  105 1    
    54   27   28 am   BACKBONE|DICT|INTERRES
    55   27  106 1    
    56   28   29 2    
    57   28   30 1    
    58   30   31 1    
    59   30   32 1    
    60   30  107 1    
    61   31  108 1    
    62   31  109 1    
    63   31  110 1    
    64   32   33 am   BACKBONE|DICT|INTERRES
    65   32  111 1    
    66   33   34 2    
    67   33   35 1    
    68   35   36 1    
    69   35   37 1    
    70   35  112 1    
    71   36  113 1    
    72   36  114 1    
    73   36  115 1    
    74   37   38 am   BACKBONE|DICT|INTERRES
    75   37  116 1    
    76   38   39 2    
    77   38   40 1    
    78   40   41 1    
    79   40   42 1    
    80   40  117 1    
    81   41  118 1    
    82   41  119 1    
    83   41  120 1    
    84   42   43 am   BACKBONE|DICT|INTERRES
    85   42  121 1    
    86   43   44 2    
    87   43   45 1    
    88   45   46 1    
    89   45   47 1    
    90   45  122 1    
    91   46  123 1    
    92   46  124 1    
    93   46  125 1    
    94   47   48 am   BACKBONE|DICT|INTERRES
    95   47  126 1    
    96   48   49 2    
    97   48   50 1    
    98   50   51 1    
    99   50   52 1    
   100   50  127 1    
   101   51  128 1    
   102   51  129 1    
   103   51  130 1    
   104   52   53 am   BACKBONE|DICT|INTERRES
   105   52  131 1    
   106   53   54 2    
   107   53   55 1    
   108   55   56 1    
   109   55   59 1    
   110   55  132 1    
   111   56   57 1    
   112   56  133 1    
   113   56  134 1    
   114   57   58 1    
   115   58  135 1    
   116   58  136 1    
   117   59   60 am   BACKBONE|DICT|INTERRES
   118   59  137 1    
   119   60   61 2    
   120   60   62 1    
   121   62   63 1    
   122   62   64 1    
   123   62  138 1    
   124   63  139 1    
   125   63  140 1    
   126   63  141 1    
   127   64   65 am   BACKBONE|DICT|INTERRES
   128   64  142 1    
   129   65   66 2    
   130   65   67 1    
   131   67   68 1    
   132   67   69 1    
   133   67  143 1    
   134   68  144 1    
   135   68  145 1    
   136   68  146 1    
   137   69   70 am   BACKBONE|DICT|INTERRES
   138   69  147 1    
   139   70   71 2    
   140   70   72 1    
   141   72   73 1    
   142   72   74 1    
   143   72  148 1    
   144   73  149 1    
   145   73  150 1    
   146   73  151 1    
   147   74   75 am   BACKBONE|DICT|INTERRES
   148   74  152 1    
   149   75   76 2    
   150   75   77 1    
   151   77   78 1    
   152   77   79 1    
   153   77  153 1    
   154   78  154 1    
   155   78  155 1    
   156   78  156 1    
   157   79   80 am   BACKBONE|DICT|INTERRES
   158   79  157 1    
   159   80   81 2    
@<TRIPOS>SUBSTRUCTURE
     1 UNK         1 GROUP             0       ****    0 ROOT    
