@<TRIPOS>MOLECULE
3R207
157   159    1
SMALL
USER_CHARGES


@<TRIPOS>ATOM
      1 CA        -45.5249  -32.1140    4.0194 C.3       0 UNK        -0.1975 
      2 C         -46.5561  -31.0552    3.6577 C.2       0 UNK         0.4852 
      3 O         -46.3830  -30.3492    2.6637 O.2       0 UNK        -0.5216 
      4 N         -47.6277  -30.9427    4.4559 N.am      1 UNK        -0.4461 
      5 CA        -48.7145  -29.9705    4.2778 C.3       1 UNK         0.0864 
      6 C6        -49.9351  -30.3413    5.1593 C.3       14 UNK        -0.0898 
      7 S7        -51.5146  -29.6579    4.5496 S.3       14 UNK        -0.2598 
      8 C8        -51.7237  -28.1788    5.5912 C.3       14 UNK         0.0286 
      9 C9        -52.4473  -28.4708    6.8994 C.ar      14 UNK        -0.0844 
     10 C10       -51.7550  -28.9844    7.9996 C.ar      14 UNK        -0.0881 
     11 C11       -52.4080  -29.2140    9.2138 C.ar      14 UNK        -0.0643 
     12 C12       -53.7677  -28.9112    9.3268 C.ar      14 UNK        -0.0930 
     13 C13       -54.4789  -28.3998    8.2331 C.ar      14 UNK        -0.0827 
     14 C14       -53.8102  -28.1858    7.0234 C.ar      14 UNK        -0.1249 
     15 C15       -55.9518  -28.0222    8.3548 C.3       14 UNK         0.0141 
     16 S16       -56.9588  -29.3001    9.1837 S.3       14 UNK        -0.2313 
     17 C17       -58.2197  -28.2594   10.0046 C.3       14 UNK        -0.0915 
     18 CA        -57.8830  -27.9266   11.4862 C.3       13 UNK         0.0968 
     19 C         -58.1711  -29.1203   12.4461 C.2       13 UNK         0.5732 
     20 N         -57.2067  -29.6305   13.2046 N.am      13 UNK        -0.7310 
     21 O         -59.3065  -29.5852   12.5163 O.2       13 UNK        -0.5035 
     22 N         -56.5337  -27.3598   11.6002 N.am      13 UNK        -0.4233 
     23 C         -56.0927  -26.5677   12.5788 C.2       13 UNK         0.4989 
     24 O         -56.7978  -26.1043   13.4771 O.2       13 UNK        -0.4996 
     25 CA        -54.5864  -26.2607   12.5476 C.3       12 UNK         0.0216 
     26 CB        -54.3260  -24.7704   12.2782 C.3       12 UNK        -0.1964 
     27 N         -53.9286  -26.6645   13.7908 N.am      12 UNK        -0.4276 
     28 C         -53.8948  -27.9147   14.2770 C.2       12 UNK         0.5020 
     29 O         -54.3892  -28.8798   13.6906 O.2       12 UNK        -0.5489 
     30 CA        -53.1768  -28.1413   15.6200 C.3       11 UNK         0.0294 
     31 CB        -52.0198  -29.1410   15.4461 C.3       11 UNK        -0.2019 
     32 N         -52.6306  -26.8988   16.1677 N.am      11 UNK        -0.4493 
     33 C         -53.0953  -26.2182   17.2221 C.2       11 UNK         0.4932 
     34 O         -54.0723  -26.5659   17.8870 O.2       11 UNK        -0.5029 
     35 CA        -52.3322  -24.9227   17.5752 C.3       10 UNK         0.0280 
     36 CB        -52.6214  -24.4145   19.0035 C.3       10 UNK        -0.1976 
     37 N         -50.8879  -25.0334   17.3265 N.am      10 UNK        -0.4242 
     38 C         -50.0214  -25.8727   17.9171 C.2       10 UNK         0.5072 
     39 O         -50.3118  -26.6024   18.8662 O.2       10 UNK        -0.5224 
     40 CA        -48.5952  -25.9564   17.3371 C.3       9 UNK         0.0343 
     41 CB        -48.3840  -27.3198   16.6567 C.3       9 UNK        -0.2003 
     42 N         -48.2734  -24.8972   16.3763 N.am      9 UNK        -0.4272 
     43 C         -47.9972  -23.6264   16.7006 C.2       9 UNK         0.4988 
     44 O         -47.9409  -23.2123   17.8588 O.2       9 UNK        -0.5108 
     45 CA        -47.7717  -22.6442   15.5364 C.3       8 UNK         0.0248 
     46 CB        -46.3180  -22.7144   15.0421 C.3       8 UNK        -0.2001 
     47 N         -48.6874  -22.8564   14.4099 N.am      8 UNK        -0.4140 
     48 C         -50.0216  -22.7324   14.4783 C.2       8 UNK         0.5028 
     49 O         -50.6284  -22.3961   15.4953 O.2       8 UNK        -0.5428 
     50 CA        -50.8245  -23.1093   13.2221 C.3       7 UNK         0.0264 
     51 CB        -50.7709  -21.9936   12.1672 C.3       7 UNK        -0.1988 
     52 N         -50.3856  -24.3763   12.6323 N.am      7 UNK        -0.4454 
     53 C         -50.4328  -25.5597   13.2606 C.2       7 UNK         0.5027 
     54 O         -50.9129  -25.7158   14.3819 O.2       7 UNK        -0.5083 
     55 CA        -49.8060  -26.7668   12.5442 C.3       6 UNK         0.0844 
     56 C56       -50.8035  -27.3994   11.5460 C.3       14 UNK        -0.0967 
     57 S57       -50.1271  -28.9156   10.7979 S.3       14 UNK        -0.2604 
     58 C58       -51.6534  -29.8236   10.3902 C.3       14 UNK         0.0134 
     59 N         -48.5276  -26.4078   11.9273 N.am      6 UNK        -0.4116 
     60 C         -47.4197  -26.0728   12.6030 C.2       5 UNK         0.5034 
     61 O         -47.3404  -26.0557   13.8305 O.2       5 UNK        -0.5045 
     62 CA        -46.2105  -25.6343   11.7614 C.3       5 UNK         0.0224 
     63 CB        -45.4444  -26.8566   11.2304 C.3       5 UNK        -0.1978 
     64 N         -46.5954  -24.7717   10.6417 N.am      5 UNK        -0.4737 
     65 C         -47.1417  -23.5549   10.7765 C.2       4 UNK         0.5027 
     66 O         -47.3221  -23.0008   11.8601 O.2       4 UNK        -0.5211 
     67 CA        -47.6184  -22.8706    9.4857 C.3       4 UNK         0.0297 
     68 CB        -46.4599  -22.1199    8.8117 C.3       4 UNK        -0.1993 
     69 N         -48.2207  -23.8051    8.5297 N.am      4 UNK        -0.4486 
     70 C         -49.3115  -24.5490    8.7508 C.2       3 UNK         0.4961 
     71 O         -49.9364  -24.5365    9.8106 O.2       3 UNK        -0.5105 
     72 CA        -49.7740  -25.4856    7.6205 C.3       3 UNK         0.0299 
     73 CB        -50.5413  -24.6944    6.5425 C.3       3 UNK        -0.1972 
     74 N         -48.7080  -26.3179    7.0354 N.am      3 UNK        -0.4305 
     75 C         -47.6450  -25.9382    6.3089 C.2       2 UNK         0.5006 
     76 O         -47.3752  -24.7664    6.0419 O.2       2 UNK        -0.5106 
     77 CA        -46.6976  -27.0491    5.8221 C.3       2 UNK         0.0296 
     78 CB        -45.5896  -27.2907    6.8612 C.3       2 UNK        -0.2002 
     79 N         -47.3536  -28.3242    5.5074 N.am      2 UNK        -0.4032 
     80 C         -48.2409  -28.5165    4.5168 C.2       1 UNK         0.5000 
     81 O         -48.6600  -27.6137    3.7906 O.2       1 UNK        -0.5238 
     82 H82       -45.8050  -32.6687    4.9147 H         1 UNK         0.0889 
     83 H83       -44.5562  -31.6482    4.1984 H         1 UNK         0.0889 
     84 H84       -45.4150  -32.8252    3.2011 H         1 UNK         0.0889 
     85 H85       -47.7183  -31.5668    5.2455 H         1 UNK         0.3028 
     86 H86       -49.0217  -30.0370    3.2313 H         1 UNK         0.0864 
     87 H87       -49.7627  -30.0733    6.1995 H         1 UNK         0.0720 
     88 H88       -50.0673  -31.4246    5.1609 H         1 UNK         0.0720 
     89 H89       -52.2791  -27.4341    5.0189 H         1 UNK         0.0814 
     90 H90       -50.7534  -27.7305    5.7943 H         1 UNK         0.0814 
     91 H91       -50.7010  -29.2019    7.9269 H         1 UNK         0.1469 
     92 H92       -54.2727  -29.0882   10.2660 H         1 UNK         0.1381 
     93 H93       -54.3479  -27.7782    6.1780 H         1 UNK         0.1206 
     94 H94       -56.0123  -27.0759    8.8926 H         1 UNK         0.0813 
     95 H95       -56.3862  -27.8373    7.3710 H         1 UNK         0.0813 
     96 H96       -58.3360  -27.3332    9.4398 H         1 UNK         0.0638 
     97 H97       -59.1859  -28.7614    9.9270 H         1 UNK         0.0638 
     98 H98       -58.5820  -27.1478   11.7968 H         1 UNK         0.0568 
     99 H99       -56.2604  -29.2638   13.1884 H         1 UNK         0.3450 
    100 H100      -57.4277  -30.3987   13.8170 H         1 UNK         0.3450 
    101 H101      -55.8730  -27.7190   10.9295 H         1 UNK         0.2987 
    102 H102      -54.1271  -26.8301   11.7368 H         1 UNK         0.0766 
    103 H103      -54.8543  -24.4369   11.3839 H         1 UNK         0.0798 
    104 H104      -53.2668  -24.5796   12.1102 H         1 UNK         0.0798 
    105 H105      -54.6590  -24.1435   13.1063 H         1 UNK         0.0798 
    106 H106      -53.5099  -25.9330   14.3457 H         1 UNK         0.3198 
    107 H107      -53.9065  -28.5702   16.3098 H         1 UNK         0.0843 
    108 H108      -51.5093  -29.3238   16.3919 H         1 UNK         0.0831 
    109 H109      -51.2798  -28.7817   14.7302 H         1 UNK         0.0831 
    110 H110      -52.3836  -30.1035   15.0838 H         1 UNK         0.0831 
    111 H111      -51.8476  -26.4960   15.6510 H         1 UNK         0.3133 
    112 H112      -52.6932  -24.1633   16.8800 H         1 UNK         0.0566 
    113 H113      -52.0693  -23.4993   19.2175 H         1 UNK         0.0814 
    114 H114      -52.3552  -25.1527   19.7604 H         1 UNK         0.0814 
    115 H115      -53.6811  -24.1898   19.1301 H         1 UNK         0.0814 
    116 H116      -50.5444  -24.4832   16.5485 H         1 UNK         0.3091 
    117 H117      -47.8995  -25.8829   18.1756 H         1 UNK         0.0702 
    118 H118      -47.3602  -27.4306   16.2991 H         1 UNK         0.0785 
    119 H119      -49.0523  -27.4506   15.8048 H         1 UNK         0.0785 
    120 H120      -48.5745  -28.1404   17.3497 H         1 UNK         0.0785 
    121 H121      -48.2226  -25.1734   15.4002 H         1 UNK         0.2998 
    122 H122      -47.9515  -21.6369   15.9175 H         1 UNK         0.0697 
    123 H123      -46.0821  -23.6912   14.6189 H         1 UNK         0.0825 
    124 H124      -45.6177  -22.5336   15.8588 H         1 UNK         0.0825 
    125 H125      -46.1235  -21.9638   14.2758 H         1 UNK         0.0825 
    126 H126      -48.2634  -23.0897   13.5143 H         1 UNK         0.3029 
    127 H127      -51.8649  -23.2317   13.5296 H         1 UNK         0.0897 
    128 H128      -49.7541  -21.8115   11.8199 H         1 UNK         0.0792 
    129 H129      -51.1490  -21.0550   12.5742 H         1 UNK         0.0792 
    130 H130      -51.3812  -22.2408   11.2982 H         1 UNK         0.0792 
    131 H131      -50.0337  -24.3455   11.6774 H         1 UNK         0.3086 
    132 H132      -49.5916  -27.5128   13.3125 H         1 UNK         0.0583 
    133 H133      -51.7334  -27.6525   12.0576 H         1 UNK         0.1020 
    134 H134      -51.0734  -26.7040   10.7496 H         1 UNK         0.1020 
    135 H135      -51.3881  -30.8502   10.1345 H         1 UNK         0.0694 
    136 H136      -52.2857  -29.8835   11.2779 H         1 UNK         0.0694 
    137 H137      -48.5153  -26.3624   10.9202 H         1 UNK         0.2989 
    138 H138      -45.5443  -25.0646   12.4135 H         1 UNK         0.1055 
    139 H139      -46.0545  -27.4597   10.5568 H         1 UNK         0.0806 
    140 H140      -44.5446  -26.5580   10.6922 H         1 UNK         0.0806 
    141 H141      -45.1290  -27.5034   12.0505 H         1 UNK         0.0806 
    142 H142      -46.4794  -25.1416    9.7099 H         1 UNK         0.3061 
    143 H143      -48.3839  -22.1427    9.7616 H         1 UNK         0.0734 
    144 H144      -45.6754  -22.8002    8.4779 H         1 UNK         0.0832 
    145 H145      -46.8045  -21.5553    7.9451 H         1 UNK         0.0832 
    146 H146      -46.0037  -21.4074    9.5006 H         1 UNK         0.0832 
    147 H147      -47.7761  -23.9019    7.6184 H         1 UNK         0.3156 
    148 H148      -50.4791  -26.1878    8.0688 H         1 UNK         0.0589 
    149 H149      -50.9100  -25.3439    5.7502 H         1 UNK         0.0808 
    150 H150      -51.4063  -24.1907    6.9759 H         1 UNK         0.0808 
    151 H151      -49.9217  -23.9269    6.0778 H         1 UNK         0.0808 
    152 H152      -48.7834  -27.3046    7.2344 H         1 UNK         0.3098 
    153 H153      -46.2281  -26.6899    4.9037 H         1 UNK         0.0720 
    154 H154      -45.0665  -26.3630    7.0987 H         1 UNK         0.0791 
    155 H155      -44.8427  -27.9921    6.4886 H         1 UNK         0.0791 
    156 H156      -45.9877  -27.6889    7.7954 H         1 UNK         0.0791 
    157 H157      -47.0491  -29.1310    6.0327 H         1 UNK         0.3028 
@<TRIPOS>BOND
     1    1    2 1    
     2    1   82 1    
     3    1   83 1    
     4    1   84 1    
     5    2    3 2    
     6    2    4 am   BACKBONE|DICT|INTERRES
     7    4    5 1    
     8    4   85 1    
     9    5    6 1    
    10    5   80 1    
    11    5   86 1    
    12    6    7 1    
    13    6   87 1    
    14    6   88 1    
    15    7    8 1    
    16    8    9 1    
    17    8   89 1    
    18    8   90 1    
    19    9   10 ar   
    20    9   14 ar   
    21   10   11 ar   
    22   10   91 1    
    23   11   12 ar   
    24   11   58 1    
    25   12   13 ar   
    26   12   92 1    
    27   13   14 ar   
    28   13   15 1    
    29   14   93 1    
    30   15   16 1    
    31   15   94 1    
    32   15   95 1    
    33   16   17 1    
    34   17   18 1    
    35   17   96 1    
    36   17   97 1    
    37   18   19 1    
    38   18   22 1    
    39   18   98 1    
    40   19   20 am   BACKBONE|DICT|INTERRES
    41   19   21 2    
    42   20   99 1    
    43   20  100 1    
    44   22   23 am   BACKBONE|DICT|INTERRES
    45   22  101 1    
    46   23   24 2    
    47   23   25 1    
    48   25   26 1    
    49   25   27 1    
    50   25  102 1    
    51   26  103 1    
    52   26  104 1    
    53   26  105 1    
    54   27   28 am   BACKBONE|DICT|INTERRES
    55   27  106 1    
    56   28   29 2    
    57   28   30 1    
    58   30   31 1    
    59   30   32 1    
    60   30  107 1    
    61   31  108 1    
    62   31  109 1    
    63   31  110 1    
    64   32   33 am   BACKBONE|DICT|INTERRES
    65   32  111 1    
    66   33   34 2    
    67   33   35 1    
    68   35   36 1    
    69   35   37 1    
    70   35  112 1    
    71   36  113 1    
    72   36  114 1    
    73   36  115 1    
    74   37   38 am   BACKBONE|DICT|INTERRES
    75   37  116 1    
    76   38   39 2    
    77   38   40 1    
    78   40   41 1    
    79   40   42 1    
    80   40  117 1    
    81   41  118 1    
    82   41  119 1    
    83   41  120 1    
    84   42   43 am   BACKBONE|DICT|INTERRES
    85   42  121 1    
    86   43   44 2    
    87   43   45 1    
    88   45   46 1    
    89   45   47 1    
    90   45  122 1    
    91   46  123 1    
    92   46  124 1    
    93   46  125 1    
    94   47   48 am   BACKBONE|DICT|INTERRES
    95   47  126 1    
    96   48   49 2    
    97   48   50 1    
    98   50   51 1    
    99   50   52 1    
   100   50  127 1    
   101   51  128 1    
   102   51  129 1    
   103   51  130 1    
   104   52   53 am   BACKBONE|DICT|INTERRES
   105   52  131 1    
   106   53   54 2    
   107   53   55 1    
   108   55   56 1    
   109   55   59 1    
   110   55  132 1    
   111   56   57 1    
   112   56  133 1    
   113   56  134 1    
   114   57   58 1    
   115   58  135 1    
   116   58  136 1    
   117   59   60 am   BACKBONE|DICT|INTERRES
   118   59  137 1    
   119   60   61 2    
   120   60   62 1    
   121   62   63 1    
   122   62   64 1    
   123   62  138 1    
   124   63  139 1    
   125   63  140 1    
   126   63  141 1    
   127   64   65 am   BACKBONE|DICT|INTERRES
   128   64  142 1    
   129   65   66 2    
   130   65   67 1    
   131   67   68 1    
   132   67   69 1    
   133   67  143 1    
   134   68  144 1    
   135   68  145 1    
   136   68  146 1    
   137   69   70 am   BACKBONE|DICT|INTERRES
   138   69  147 1    
   139   70   71 2    
   140   70   72 1    
   141   72   73 1    
   142   72   74 1    
   143   72  148 1    
   144   73  149 1    
   145   73  150 1    
   146   73  151 1    
   147   74   75 am   BACKBONE|DICT|INTERRES
   148   74  152 1    
   149   75   76 2    
   150   75   77 1    
   151   77   78 1    
   152   77   79 1    
   153   77  153 1    
   154   78  154 1    
   155   78  155 1    
   156   78  156 1    
   157   79   80 am   BACKBONE|DICT|INTERRES
   158   79  157 1    
   159   80   81 2    
@<TRIPOS>SUBSTRUCTURE
     1 UNK         1 GROUP             0       ****    0 ROOT    
