@<TRIPOS>MOLECULE
3R207
157   159    1
SMALL
USER_CHARGES


@<TRIPOS>ATOM
      1 CA        -47.1065  -31.1594    9.2017 C.3       0 UNK        -0.1975 
      2 C         -48.1397  -30.3556    8.4272 C.2       0 UNK         0.4852 
      3 O         -48.6232  -29.3418    8.9305 O.2       0 UNK        -0.5216 
      4 N         -48.4723  -30.7922    7.2033 N.am      1 UNK        -0.4461 
      5 CA        -49.4253  -30.1811    6.2642 C.3       1 UNK         0.0864 
      6 C6        -50.8492  -30.0134    6.8615 C.3       14 UNK        -0.0898 
      7 S7        -52.1408  -29.6406    5.6260 S.3       14 UNK        -0.2598 
      8 C8        -52.4508  -27.8687    5.9282 C.3       14 UNK         0.0286 
      9 C9        -53.2270  -27.6335    7.2173 C.ar      14 UNK        -0.0844 
     10 C10       -52.5540  -27.3038    8.3981 C.ar      14 UNK        -0.0881 
     11 C11       -53.2651  -27.0967    9.5817 C.ar      14 UNK        -0.0643 
     12 C12       -54.6584  -27.1824    9.5732 C.ar      14 UNK        -0.0930 
     13 C13       -55.3479  -27.5167    8.4032 C.ar      14 UNK        -0.0827 
     14 C14       -54.6224  -27.7390    7.2275 C.ar      14 UNK        -0.1249 
     15 C15       -56.8720  -27.6262    8.3867 C.3       14 UNK         0.0141 
     16 S16       -57.5918  -28.3393    9.9080 S.3       14 UNK        -0.2313 
     17 C17       -56.9076  -30.0287    9.8665 C.3       14 UNK        -0.0915 
     18 CA        -57.1119  -30.7858   11.2040 C.3       13 UNK         0.0968 
     19 C         -56.6743  -32.2695   11.0565 C.2       13 UNK         0.5732 
     20 N         -57.5776  -33.1433   10.6334 N.am      13 UNK        -0.7310 
     21 O         -55.5184  -32.6254   11.2809 O.2       13 UNK        -0.5035 
     22 N         -56.4400  -30.1062   12.3233 N.am      13 UNK        -0.4233 
     23 C         -56.5891  -30.4289   13.6153 C.2       13 UNK         0.4989 
     24 O         -57.3703  -31.2913   14.0203 O.2       13 UNK        -0.4996 
     25 CA        -55.7261  -29.6705   14.6410 C.3       12 UNK         0.0216 
     26 CB        -54.4748  -30.4896   14.9979 C.3       12 UNK        -0.1964 
     27 N         -55.3098  -28.3352   14.2059 N.am      12 UNK        -0.4276 
     28 C         -56.1125  -27.2729   14.0776 C.2       12 UNK         0.5020 
     29 O         -57.3222  -27.3002   14.3114 O.2       12 UNK        -0.5489 
     30 CA        -55.4350  -25.9594   13.6351 C.3       11 UNK         0.0294 
     31 CB        -56.4509  -24.8422   13.3343 C.3       11 UNK        -0.2019 
     32 N         -54.4547  -25.4636   14.6084 N.am      11 UNK        -0.4493 
     33 C         -53.2454  -25.9917   14.8432 C.2       11 UNK         0.4932 
     34 O         -52.8335  -27.0115   14.2840 O.2       11 UNK        -0.5029 
     35 CA        -52.3640  -25.2334   15.8541 C.3       10 UNK         0.0280 
     36 CB        -52.9575  -25.2583   17.2791 C.3       10 UNK        -0.1976 
     37 N         -50.9675  -25.6891   15.8232 N.am      10 UNK        -0.4242 
     38 C         -50.4565  -26.8425   16.2810 C.2       10 UNK         0.5072 
     39 O         -51.0766  -27.6561   16.9681 O.2       10 UNK        -0.5224 
     40 CA        -49.0040  -27.1740   15.8928 C.3       9 UNK         0.0343 
     41 CB        -48.9857  -28.1259   14.6848 C.3       9 UNK        -0.2003 
     42 N         -48.1627  -26.0119   15.5923 N.am      9 UNK        -0.4272 
     43 C         -47.6786  -25.1584   16.5058 C.2       9 UNK         0.4988 
     44 O         -47.9675  -25.1998   17.7021 O.2       9 UNK        -0.5108 
     45 CA        -46.6815  -24.0980   16.0105 C.3       8 UNK         0.0248 
     46 CB        -45.2959  -24.7256   15.7819 C.3       8 UNK        -0.2001 
     47 N         -47.1386  -23.4692   14.7710 N.am      8 UNK        -0.4140 
     48 C         -47.7596  -22.2830   14.7022 C.2       8 UNK         0.5028 
     49 O         -47.9350  -21.5443   15.6725 O.2       8 UNK        -0.5428 
     50 CA        -48.2937  -21.8360   13.3249 C.3       7 UNK         0.0264 
     51 CB        -47.2849  -20.9042   12.6345 C.3       7 UNK        -0.1988 
     52 N         -48.6313  -22.9339   12.4133 N.am      7 UNK        -0.4454 
     53 C         -49.5075  -23.9140   12.6769 C.2       7 UNK         0.5027 
     54 O         -50.1598  -23.9782   13.7180 O.2       7 UNK        -0.5083 
     55 CA        -49.6194  -25.0553   11.6447 C.3       6 UNK         0.0844 
     56 C56       -50.6850  -24.7448   10.5640 C.3       14 UNK        -0.0967 
     57 S57       -52.3744  -25.0277   11.1827 S.3       14 UNK        -0.2604 
     58 C58       -52.5381  -26.8129   10.8828 C.3       14 UNK         0.0134 
     59 N         -48.3297  -25.4322   11.0544 N.am      6 UNK        -0.4116 
     60 C         -47.2348  -25.8058   11.7351 C.2       5 UNK         0.5034 
     61 O         -47.1804  -25.8801   12.9625 O.2       5 UNK        -0.5045 
     62 CA        -45.9677  -26.0817   10.9140 C.3       5 UNK         0.0224 
     63 CB        -46.0159  -27.4688   10.2565 C.3       5 UNK        -0.1978 
     64 N         -45.7715  -25.0515    9.8945 N.am      5 UNK        -0.4737 
     65 C         -45.2951  -23.8256   10.1526 C.2       4 UNK         0.5027 
     66 O         -44.8603  -23.4769   11.2496 O.2       4 UNK        -0.5211 
     67 CA        -45.3359  -22.8083    8.9992 C.3       4 UNK         0.0297 
     68 CB        -44.0402  -22.8764    8.1754 C.3       4 UNK        -0.1993 
     69 N         -46.4891  -22.9906    8.1123 N.am      4 UNK        -0.4486 
     70 C         -47.7675  -22.8169    8.4783 C.2       3 UNK         0.4961 
     71 O         -48.1170  -22.4549    9.6013 O.2       3 UNK        -0.5105 
     72 CA        -48.8388  -23.1513    7.4258 C.3       3 UNK         0.0299 
     73 CB        -49.1168  -21.9313    6.5340 C.3       3 UNK        -0.1972 
     74 N         -48.4956  -24.3079    6.5899 N.am      3 UNK        -0.4305 
     75 C         -48.3285  -25.5550    7.0500 C.2       2 UNK         0.5006 
     76 O         -48.4186  -25.8661    8.2392 O.2       2 UNK        -0.5106 
     77 CA        -47.9400  -26.6185    6.0222 C.3       2 UNK         0.0296 
     78 CB        -46.4092  -26.7102    5.8926 C.3       2 UNK        -0.2002 
     79 N         -48.4738  -27.9106    6.4438 N.am      2 UNK        -0.4032 
     80 C         -48.8750  -28.8871    5.6222 C.2       1 UNK         0.5000 
     81 O         -48.8045  -28.8106    4.3936 O.2       1 UNK        -0.5238 
     82 H82       -46.7888  -32.0490    8.6580 H         1 UNK         0.0889 
     83 H83       -47.5202  -31.4762   10.1587 H         1 UNK         0.0889 
     84 H84       -46.2264  -30.5472    9.3969 H         1 UNK         0.0889 
     85 H85       -48.0108  -31.6188    6.8483 H         1 UNK         0.3028 
     86 H86       -49.5097  -30.9052    5.4518 H         1 UNK         0.0864 
     87 H87       -50.8533  -29.2610    7.6463 H         1 UNK         0.0720 
     88 H88       -51.1443  -30.9418    7.3525 H         1 UNK         0.0720 
     89 H89       -53.0157  -27.4648    5.0867 H         1 UNK         0.0814 
     90 H90       -51.5053  -27.3245    5.9433 H         1 UNK         0.0814 
     91 H91       -51.4759  -27.2199    8.4026 H         1 UNK         0.1469 
     92 H92       -55.2053  -27.0003   10.4866 H         1 UNK         0.1381 
     93 H93       -55.1429  -27.9953    6.3146 H         1 UNK         0.1206 
     94 H94       -57.2011  -28.2263    7.5369 H         1 UNK         0.0813 
     95 H95       -57.2877  -26.6287    8.2400 H         1 UNK         0.0813 
     96 H96       -57.3942  -30.5588    9.0454 H         1 UNK         0.0638 
     97 H97       -55.8459  -29.9836    9.6170 H         1 UNK         0.0638 
     98 H98       -58.1801  -30.7820   11.4304 H         1 UNK         0.0568 
     99 H99       -57.3081  -34.1076   10.5170 H         1 UNK         0.3450 
    100 H100      -58.5246  -32.8606   10.4343 H         1 UNK         0.3450 
    101 H101      -55.7701  -29.3958   12.0753 H         1 UNK         0.2987 
    102 H102      -56.3259  -29.5537   15.5462 H         1 UNK         0.0766 
    103 H103      -53.8912  -30.0034   15.7805 H         1 UNK         0.0798 
    104 H104      -53.8246  -30.6302   14.1333 H         1 UNK         0.0798 
    105 H105      -54.7472  -31.4800   15.3657 H         1 UNK         0.0798 
    106 H106      -54.3122  -28.1732   14.0819 H         1 UNK         0.3198 
    107 H107      -54.9084  -26.1707   12.7042 H         1 UNK         0.0843 
    108 H108      -57.0085  -24.5504   14.2252 H         1 UNK         0.0831 
    109 H109      -57.1766  -25.1668   12.5870 H         1 UNK         0.0831 
    110 H110      -55.9583  -23.9541   12.9378 H         1 UNK         0.0831 
    111 H111      -54.7255  -24.6414   15.1285 H         1 UNK         0.3133 
    112 H112      -52.3317  -24.1936   15.5252 H         1 UNK         0.0566 
    113 H113      -52.2816  -24.7962   17.9987 H         1 UNK         0.0814 
    114 H114      -53.8979  -24.7083   17.3232 H         1 UNK         0.0814 
    115 H115      -53.1663  -26.2734   17.6181 H         1 UNK         0.0814 
    116 H116      -50.3785  -25.1299   15.2109 H         1 UNK         0.3091 
    117 H117      -48.5554  -27.6979   16.7396 H         1 UNK         0.0702 
    118 H118      -49.5563  -29.0321   14.8927 H         1 UNK         0.0785 
    119 H119      -47.9699  -28.4319   14.4334 H         1 UNK         0.0785 
    120 H120      -49.4249  -27.6621   13.8012 H         1 UNK         0.0785 
    121 H121      -47.8435  -25.9275   14.6290 H         1 UNK         0.2998 
    122 H122      -46.5782  -23.3464   16.7961 H         1 UNK         0.0697 
    123 H123      -45.3158  -25.4877   15.0018 H         1 UNK         0.0825 
    124 H124      -44.9276  -25.2000   16.6925 H         1 UNK         0.0825 
    125 H125      -44.5647  -23.9712   15.4912 H         1 UNK         0.0825 
    126 H126      -47.0608  -24.0251   13.9274 H         1 UNK         0.3029 
    127 H127      -49.2123  -21.2737   13.5049 H         1 UNK         0.0897 
    128 H128      -47.6864  -20.5041   11.7030 H         1 UNK         0.0792 
    129 H129      -46.3536  -21.4221   12.4022 H         1 UNK         0.0792 
    130 H130      -47.0366  -20.0543   13.2717 H         1 UNK         0.0792 
    131 H131      -48.1993  -22.9117   11.4927 H         1 UNK         0.3086 
    132 H132      -49.9434  -25.9397   12.1963 H         1 UNK         0.0583 
    133 H133      -50.6024  -23.7166   10.2072 H         1 UNK         0.1020 
    134 H134      -50.5403  -25.3725    9.6848 H         1 UNK         0.1020 
    135 H135      -51.5588  -27.2942   10.8864 H         1 UNK         0.0694 
    136 H136      -53.0871  -27.2654   11.7075 H         1 UNK         0.0694 
    137 H137      -48.2900  -25.4500   10.0382 H         1 UNK         0.2989 
    138 H138      -45.1194  -26.0649   11.6025 H         1 UNK         0.1055 
    139 H139      -46.1986  -28.2479   10.9980 H         1 UNK         0.0806 
    140 H140      -45.0737  -27.7054    9.7622 H         1 UNK         0.0806 
    141 H141      -46.8080  -27.5368    9.5122 H         1 UNK         0.0806 
    142 H142      -46.1435  -25.2413    8.9750 H         1 UNK         0.3061 
    143 H143      -45.4092  -21.8126    9.4424 H         1 UNK         0.0734 
    144 H144      -44.0175  -22.1055    7.4049 H         1 UNK         0.0832 
    145 H145      -43.1670  -22.7213    8.8110 H         1 UNK         0.0832 
    146 H146      -43.9194  -23.8447    7.6879 H         1 UNK         0.0832 
    147 H147      -46.2979  -23.2825    7.1651 H         1 UNK         0.3156 
    148 H148      -49.7598  -23.3942    7.9586 H         1 UNK         0.0589 
    149 H149      -48.2432  -21.6512    5.9439 H         1 UNK         0.0808 
    150 H150      -49.9408  -22.1216    5.8460 H         1 UNK         0.0808 
    151 H151      -49.3946  -21.0646    7.1357 H         1 UNK         0.0808 
    152 H152      -48.3921  -24.1358    5.5996 H         1 UNK         0.3098 
    153 H153      -48.3728  -26.3400    5.0588 H         1 UNK         0.0720 
    154 H154      -46.1202  -27.4475    5.1434 H         1 UNK         0.0791 
    155 H155      -45.9417  -26.9945    6.8365 H         1 UNK         0.0791 
    156 H156      -45.9799  -25.7553    5.5869 H         1 UNK         0.0791 
    157 H157      -48.5665  -28.0481    7.4489 H         1 UNK         0.3028 
@<TRIPOS>BOND
     1    1    2 1    
     2    1   82 1    
     3    1   83 1    
     4    1   84 1    
     5    2    3 2    
     6    2    4 am   BACKBONE|DICT|INTERRES
     7    4    5 1    
     8    4   85 1    
     9    5    6 1    
    10    5   80 1    
    11    5   86 1    
    12    6    7 1    
    13    6   87 1    
    14    6   88 1    
    15    7    8 1    
    16    8    9 1    
    17    8   89 1    
    18    8   90 1    
    19    9   10 ar   
    20    9   14 ar   
    21   10   11 ar   
    22   10   91 1    
    23   11   12 ar   
    24   11   58 1    
    25   12   13 ar   
    26   12   92 1    
    27   13   14 ar   
    28   13   15 1    
    29   14   93 1    
    30   15   16 1    
    31   15   94 1    
    32   15   95 1    
    33   16   17 1    
    34   17   18 1    
    35   17   96 1    
    36   17   97 1    
    37   18   19 1    
    38   18   22 1    
    39   18   98 1    
    40   19   20 am   BACKBONE|DICT|INTERRES
    41   19   21 2    
    42   20   99 1    
    43   20  100 1    
    44   22   23 am   BACKBONE|DICT|INTERRES
    45   22  101 1    
    46   23   24 2    
    47   23   25 1    
    48   25   26 1    
    49   25   27 1    
    50   25  102 1    
    51   26  103 1    
    52   26  104 1    
    53   26  105 1    
    54   27   28 am   BACKBONE|DICT|INTERRES
    55   27  106 1    
    56   28   29 2    
    57   28   30 1    
    58   30   31 1    
    59   30   32 1    
    60   30  107 1    
    61   31  108 1    
    62   31  109 1    
    63   31  110 1    
    64   32   33 am   BACKBONE|DICT|INTERRES
    65   32  111 1    
    66   33   34 2    
    67   33   35 1    
    68   35   36 1    
    69   35   37 1    
    70   35  112 1    
    71   36  113 1    
    72   36  114 1    
    73   36  115 1    
    74   37   38 am   BACKBONE|DICT|INTERRES
    75   37  116 1    
    76   38   39 2    
    77   38   40 1    
    78   40   41 1    
    79   40   42 1    
    80   40  117 1    
    81   41  118 1    
    82   41  119 1    
    83   41  120 1    
    84   42   43 am   BACKBONE|DICT|INTERRES
    85   42  121 1    
    86   43   44 2    
    87   43   45 1    
    88   45   46 1    
    89   45   47 1    
    90   45  122 1    
    91   46  123 1    
    92   46  124 1    
    93   46  125 1    
    94   47   48 am   BACKBONE|DICT|INTERRES
    95   47  126 1    
    96   48   49 2    
    97   48   50 1    
    98   50   51 1    
    99   50   52 1    
   100   50  127 1    
   101   51  128 1    
   102   51  129 1    
   103   51  130 1    
   104   52   53 am   BACKBONE|DICT|INTERRES
   105   52  131 1    
   106   53   54 2    
   107   53   55 1    
   108   55   56 1    
   109   55   59 1    
   110   55  132 1    
   111   56   57 1    
   112   56  133 1    
   113   56  134 1    
   114   57   58 1    
   115   58  135 1    
   116   58  136 1    
   117   59   60 am   BACKBONE|DICT|INTERRES
   118   59  137 1    
   119   60   61 2    
   120   60   62 1    
   121   62   63 1    
   122   62   64 1    
   123   62  138 1    
   124   63  139 1    
   125   63  140 1    
   126   63  141 1    
   127   64   65 am   BACKBONE|DICT|INTERRES
   128   64  142 1    
   129   65   66 2    
   130   65   67 1    
   131   67   68 1    
   132   67   69 1    
   133   67  143 1    
   134   68  144 1    
   135   68  145 1    
   136   68  146 1    
   137   69   70 am   BACKBONE|DICT|INTERRES
   138   69  147 1    
   139   70   71 2    
   140   70   72 1    
   141   72   73 1    
   142   72   74 1    
   143   72  148 1    
   144   73  149 1    
   145   73  150 1    
   146   73  151 1    
   147   74   75 am   BACKBONE|DICT|INTERRES
   148   74  152 1    
   149   75   76 2    
   150   75   77 1    
   151   77   78 1    
   152   77   79 1    
   153   77  153 1    
   154   78  154 1    
   155   78  155 1    
   156   78  156 1    
   157   79   80 am   BACKBONE|DICT|INTERRES
   158   79  157 1    
   159   80   81 2    
@<TRIPOS>SUBSTRUCTURE
     1 UNK         1 GROUP             0       ****    0 ROOT    
