@<TRIPOS>MOLECULE
3R207
157   159    1
SMALL
USER_CHARGES


@<TRIPOS>ATOM
      1 CA        -46.7614  -30.8816    3.6352 C.3       0 UNK        -0.1975 
      2 C         -47.3725  -30.6735    5.0137 C.2       0 UNK         0.4852 
      3 O         -47.5370  -31.6445    5.7537 O.2       0 UNK        -0.5216 
      4 N         -47.7150  -29.4184    5.3430 N.am      1 UNK        -0.4461 
      5 CA        -48.2567  -28.9411    6.6249 C.3       1 UNK         0.0864 
      6 C6        -49.4928  -29.7491    7.1098 C.3       14 UNK        -0.0898 
      7 S7        -50.6783  -28.7150    8.0251 S.3       14 UNK        -0.2598 
      8 C8        -52.0181  -28.5575    6.8055 C.3       14 UNK         0.0286 
      9 C9        -53.1403  -27.6846    7.3418 C.ar      14 UNK        -0.0844 
     10 C10       -53.3615  -26.4067    6.8208 C.ar      14 UNK        -0.0881 
     11 C11       -54.3806  -25.5953    7.3334 C.ar      14 UNK        -0.0643 
     12 C12       -55.1856  -26.0797    8.3719 C.ar      14 UNK        -0.0930 
     13 C13       -54.9872  -27.3666    8.8840 C.ar      14 UNK        -0.0827 
     14 C14       -53.9655  -28.1630    8.3616 C.ar      14 UNK        -0.1249 
     15 C15       -55.8901  -27.9245    9.9746 C.3       14 UNK         0.0141 
     16 S16       -54.9822  -28.1805   11.5314 S.3       14 UNK        -0.2313 
     17 C17       -55.7323  -29.7347   12.1220 C.3       14 UNK        -0.0915 
     18 CA        -54.9878  -30.3904   13.3189 C.3       13 UNK         0.0968 
     19 C         -53.5891  -30.9724   12.9693 C.2       13 UNK         0.5732 
     20 N         -52.5897  -30.8605   13.8360 N.am      13 UNK        -0.7310 
     21 O         -53.4132  -31.5738   11.9125 O.2       13 UNK        -0.5035 
     22 N         -55.0043  -29.5410   14.5211 N.am      13 UNK        -0.4233 
     23 C         -55.9548  -29.5908   15.4634 C.2       13 UNK         0.4989 
     24 O         -56.9187  -30.3581   15.4144 O.2       13 UNK        -0.4996 
     25 CA        -55.8334  -28.6140   16.6509 C.3       12 UNK         0.0216 
     26 CB        -56.6329  -29.0724   17.8900 C.3       12 UNK        -0.1964 
     27 N         -54.4534  -28.2831   17.0220 N.am      12 UNK        -0.4276 
     28 C         -53.4890  -29.1148   17.4499 C.2       12 UNK         0.5020 
     29 O         -53.6454  -30.3291   17.5824 O.2       12 UNK        -0.5489 
     30 CA        -52.1111  -28.4981   17.7701 C.3       11 UNK         0.0294 
     31 CB        -50.9679  -29.3153   17.1405 C.3       11 UNK        -0.2019 
     32 N         -52.0145  -27.1171   17.2943 N.am      11 UNK        -0.4493 
     33 C         -52.1711  -26.0185   18.0461 C.2       11 UNK         0.4932 
     34 O         -52.3044  -26.0381   19.2695 O.2       11 UNK        -0.5029 
     35 CA        -52.2281  -24.6680   17.3052 C.3       10 UNK         0.0280 
     36 CB        -50.8648  -23.9622   17.3690 C.3       10 UNK        -0.1976 
     37 N         -52.6561  -24.7998   15.9063 N.am      10 UNK        -0.4242 
     38 C         -53.8971  -25.1570   15.5330 C.2       10 UNK         0.5072 
     39 O         -54.8144  -25.3355   16.3340 O.2       10 UNK        -0.5224 
     40 CA        -54.1591  -25.4415   14.0417 C.3       9 UNK         0.0343 
     41 CB        -54.7815  -24.2159   13.3574 C.3       9 UNK        -0.2003 
     42 N         -52.9678  -25.8609   13.3016 N.am      9 UNK        -0.4272 
     43 C         -52.2399  -26.9563   13.5716 C.2       9 UNK         0.4988 
     44 O         -52.5626  -27.7814   14.4283 O.2       9 UNK        -0.5108 
     45 CA        -50.9068  -27.1389   12.8143 C.3       8 UNK         0.0248 
     46 CB        -51.1080  -28.0882   11.6233 C.3       8 UNK        -0.2001 
     47 N         -50.3140  -25.8887   12.3239 N.am      8 UNK        -0.4140 
     48 C         -50.0706  -24.7873   13.0524 C.2       8 UNK         0.5028 
     49 O         -50.1615  -24.7509   14.2791 O.2       8 UNK        -0.5428 
     50 CA        -49.7774  -23.4787   12.2895 C.3       7 UNK         0.0264 
     51 CB        -48.2933  -23.1056   12.3974 C.3       7 UNK        -0.1988 
     52 N         -50.1797  -23.4810   10.8754 N.am      7 UNK        -0.4454 
     53 C         -51.4139  -23.7462   10.4145 C.2       7 UNK         0.5027 
     54 O         -52.3759  -23.9372   11.1593 O.2       7 UNK        -0.5083 
     55 CA        -51.6226  -23.8784    8.8910 C.3       6 UNK         0.0844 
     56 C56       -52.7461  -22.9290    8.4052 C.3       14 UNK        -0.0967 
     57 S57       -53.1470  -23.1699    6.6418 S.3       14 UNK        -0.2604 
     58 C58       -54.6416  -24.2124    6.7426 C.3       14 UNK         0.0134 
     59 N         -50.3933  -23.7332    8.1038 N.am      6 UNK        -0.4116 
     60 C         -49.3790  -24.6064    8.0489 C.2       5 UNK         0.5034 
     61 O         -49.3308  -25.6512    8.6985 O.2       5 UNK        -0.5045 
     62 CA        -48.1994  -24.2447    7.1298 C.3       5 UNK         0.0224 
     63 CB        -48.5708  -23.2583    5.9992 C.3       5 UNK        -0.1978 
     64 N         -47.0311  -23.7530    7.8708 N.am      5 UNK        -0.4737 
     65 C         -46.9651  -22.7116    8.7155 C.2       4 UNK         0.5027 
     66 O         -47.9468  -22.0653    9.0834 O.2       4 UNK        -0.5211 
     67 CA        -45.5606  -22.3492    9.2327 C.3       4 UNK         0.0297 
     68 CB        -45.5611  -21.3232   10.3810 C.3       4 UNK        -0.1993 
     69 N         -44.8604  -23.5595    9.6561 N.am      4 UNK        -0.4486 
     70 C         -43.6594  -23.9609    9.2220 C.2       3 UNK         0.4961 
     71 O         -42.9250  -23.2836    8.5022 O.2       3 UNK        -0.5105 
     72 CA        -43.2103  -25.3787    9.6341 C.3       3 UNK         0.0299 
     73 CB        -42.2467  -25.3072   10.8299 C.3       3 UNK        -0.1972 
     74 N         -44.3121  -26.2988    9.9551 N.am      3 UNK        -0.4305 
     75 C         -45.3047  -26.6402    9.1199 C.2       2 UNK         0.5006 
     76 O         -45.3969  -26.2127    7.9655 O.2       2 UNK        -0.5106 
     77 CA        -46.3985  -27.5558    9.7027 C.3       2 UNK         0.0296 
     78 CB        -47.1244  -26.8719   10.8771 C.3       2 UNK        -0.2002 
     79 N         -47.3855  -27.9269    8.6847 N.am      2 UNK        -0.4032 
     80 C         -47.1619  -28.8212    7.7112 C.2       1 UNK         0.5000 
     81 O         -46.1401  -29.5127    7.6540 O.2       1 UNK        -0.5238 
     82 H82       -46.6868  -29.9498    3.0749 H         1 UNK         0.0889 
     83 H83       -47.3692  -31.5767    3.0564 H         1 UNK         0.0889 
     84 H84       -45.7602  -31.3012    3.7293 H         1 UNK         0.0889 
     85 H85       -47.5230  -28.6849    4.6749 H         1 UNK         0.3028 
     86 H86       -48.5822  -27.9226    6.4046 H         1 UNK         0.0864 
     87 H87       -49.1976  -30.5921    7.7376 H         1 UNK         0.0720 
     88 H88       -50.0149  -30.1909    6.2597 H         1 UNK         0.0720 
     89 H89       -51.6159  -28.1456    5.8785 H         1 UNK         0.0814 
     90 H90       -52.4112  -29.5464    6.5649 H         1 UNK         0.0814 
     91 H91       -52.7355  -26.0357    6.0208 H         1 UNK         0.1469 
     92 H92       -55.9803  -25.4628    8.7685 H         1 UNK         0.1381 
     93 H93       -53.8031  -29.1552    8.7610 H         1 UNK         0.1206 
     94 H94       -56.3138  -28.8661    9.6232 H         1 UNK         0.0813 
     95 H95       -56.7348  -27.2607   10.1640 H         1 UNK         0.0813 
     96 H96       -56.7654  -29.5249   12.4028 H         1 UNK         0.0638 
     97 H97       -55.7887  -30.4387   11.2901 H         1 UNK         0.0638 
     98 H98       -55.5484  -31.2968   13.5537 H         1 UNK         0.0568 
     99 H99       -52.7192  -30.3827   14.7125 H         1 UNK         0.3450 
    100 H100      -51.6952  -31.2607   13.6048 H         1 UNK         0.3450 
    101 H101      -54.2335  -28.8852   14.6045 H         1 UNK         0.2987 
    102 H102      -56.2804  -27.6808   16.3054 H         1 UNK         0.0766 
    103 H103      -56.5520  -28.3512   18.7032 H         1 UNK         0.0798 
    104 H104      -57.6936  -29.1762   17.6579 H         1 UNK         0.0798 
    105 H105      -56.2854  -30.0372   18.2609 H         1 UNK         0.0798 
    106 H106      -54.2246  -27.2990   16.9452 H         1 UNK         0.3198 
    107 H107      -51.9928  -28.5308   18.8551 H         1 UNK         0.0843 
    108 H108      -49.9954  -28.8943   17.3956 H         1 UNK         0.0831 
    109 H109      -51.0423  -29.3474   16.0533 H         1 UNK         0.0831 
    110 H110      -50.9753  -30.3454   17.4992 H         1 UNK         0.0831 
    111 H111      -51.9456  -27.0127   16.2880 H         1 UNK         0.3133 
    112 H112      -52.9575  -24.0391   17.8202 H         1 UNK         0.0566 
    113 H113      -50.0748  -24.5680   16.9237 H         1 UNK         0.0814 
    114 H114      -50.5774  -23.7654   18.4027 H         1 UNK         0.0814 
    115 H115      -50.8862  -23.0039   16.8499 H         1 UNK         0.0814 
    116 H116      -51.9281  -24.7084   15.2020 H         1 UNK         0.3091 
    117 H117      -54.8789  -26.2609   13.9906 H         1 UNK         0.0702 
    118 H118      -54.0979  -23.3659   13.3548 H         1 UNK         0.0785 
    119 H119      -55.6938  -23.9031   13.8673 H         1 UNK         0.0785 
    120 H120      -55.0466  -24.4349   12.3225 H         1 UNK         0.0785 
    121 H121      -52.6605  -25.2375   12.5594 H         1 UNK         0.2998 
    122 H122      -50.1959  -27.5912   13.5080 H         1 UNK         0.0697 
    123 H123      -51.7956  -27.6705   10.8857 H         1 UNK         0.0825 
    124 H124      -51.5245  -29.0416   11.9464 H         1 UNK         0.0825 
    125 H125      -50.1682  -28.3061   11.1172 H         1 UNK         0.0825 
    126 H126      -50.2062  -25.8135   11.3220 H         1 UNK         0.3029 
    127 H127      -50.3584  -22.6979   12.7846 H         1 UNK         0.0897 
    128 H128      -48.1239  -22.1004   12.0127 H         1 UNK         0.0792 
    129 H129      -47.9588  -23.1129   13.4360 H         1 UNK         0.0792 
    130 H130      -47.6581  -23.7956   11.8423 H         1 UNK         0.0792 
    131 H131      -49.4546  -23.2749   10.1978 H         1 UNK         0.3086 
    132 H132      -51.9684  -24.9029    8.7438 H         1 UNK         0.0583 
    133 H133      -53.6555  -23.0708    8.9932 H         1 UNK         0.1020 
    134 H134      -52.4549  -21.8872    8.5514 H         1 UNK         0.1020 
    135 H135      -55.4039  -23.6808    7.3144 H         1 UNK         0.0694 
    136 H136      -55.0457  -24.3373    5.7373 H         1 UNK         0.0694 
    137 H137      -50.3217  -22.8904    7.5533 H         1 UNK         0.2989 
    138 H138      -47.8924  -25.1805    6.6594 H         1 UNK         0.1055 
    139 H139      -47.7511  -23.1586    5.2876 H         1 UNK         0.0806 
    140 H140      -48.7980  -22.2597    6.3742 H         1 UNK         0.0806 
    141 H141      -49.4379  -23.6087    5.4368 H         1 UNK         0.0806 
    142 H142      -46.1839  -24.2927    7.7221 H         1 UNK         0.3061 
    143 H143      -45.0470  -21.8937    8.3834 H         1 UNK         0.0734 
    144 H144      -46.1418  -20.4366   10.1231 H         1 UNK         0.0832 
    145 H145      -45.9771  -21.7390   11.2968 H         1 UNK         0.0832 
    146 H146      -44.5477  -20.9891   10.6037 H         1 UNK         0.0832 
    147 H147      -45.3861  -24.1959   10.2375 H         1 UNK         0.3156 
    148 H148      -42.6701  -25.8036    8.7856 H         1 UNK         0.0589 
    149 H149      -42.7378  -24.9164   11.7221 H         1 UNK         0.0808 
    150 H150      -41.8383  -26.2886   11.0719 H         1 UNK         0.0808 
    151 H151      -41.4012  -24.6532   10.6114 H         1 UNK         0.0808 
    152 H152      -44.3061  -26.6955   10.8842 H         1 UNK         0.3098 
    153 H153      -45.9188  -28.4646   10.0722 H         1 UNK         0.0720 
    154 H154      -47.9256  -27.5002   11.2645 H         1 UNK         0.0791 
    155 H155      -46.4480  -26.6779   11.7098 H         1 UNK         0.0791 
    156 H156      -47.5603  -25.9174   10.5834 H         1 UNK         0.0791 
    157 H157      -48.2296  -27.3621    8.6556 H         1 UNK         0.3028 
@<TRIPOS>BOND
     1    1    2 1    
     2    1   82 1    
     3    1   83 1    
     4    1   84 1    
     5    2    3 2    
     6    2    4 am   BACKBONE|DICT|INTERRES
     7    4    5 1    
     8    4   85 1    
     9    5    6 1    
    10    5   80 1    
    11    5   86 1    
    12    6    7 1    
    13    6   87 1    
    14    6   88 1    
    15    7    8 1    
    16    8    9 1    
    17    8   89 1    
    18    8   90 1    
    19    9   10 ar   
    20    9   14 ar   
    21   10   11 ar   
    22   10   91 1    
    23   11   12 ar   
    24   11   58 1    
    25   12   13 ar   
    26   12   92 1    
    27   13   14 ar   
    28   13   15 1    
    29   14   93 1    
    30   15   16 1    
    31   15   94 1    
    32   15   95 1    
    33   16   17 1    
    34   17   18 1    
    35   17   96 1    
    36   17   97 1    
    37   18   19 1    
    38   18   22 1    
    39   18   98 1    
    40   19   20 am   BACKBONE|DICT|INTERRES
    41   19   21 2    
    42   20   99 1    
    43   20  100 1    
    44   22   23 am   BACKBONE|DICT|INTERRES
    45   22  101 1    
    46   23   24 2    
    47   23   25 1    
    48   25   26 1    
    49   25   27 1    
    50   25  102 1    
    51   26  103 1    
    52   26  104 1    
    53   26  105 1    
    54   27   28 am   BACKBONE|DICT|INTERRES
    55   27  106 1    
    56   28   29 2    
    57   28   30 1    
    58   30   31 1    
    59   30   32 1    
    60   30  107 1    
    61   31  108 1    
    62   31  109 1    
    63   31  110 1    
    64   32   33 am   BACKBONE|DICT|INTERRES
    65   32  111 1    
    66   33   34 2    
    67   33   35 1    
    68   35   36 1    
    69   35   37 1    
    70   35  112 1    
    71   36  113 1    
    72   36  114 1    
    73   36  115 1    
    74   37   38 am   BACKBONE|DICT|INTERRES
    75   37  116 1    
    76   38   39 2    
    77   38   40 1    
    78   40   41 1    
    79   40   42 1    
    80   40  117 1    
    81   41  118 1    
    82   41  119 1    
    83   41  120 1    
    84   42   43 am   BACKBONE|DICT|INTERRES
    85   42  121 1    
    86   43   44 2    
    87   43   45 1    
    88   45   46 1    
    89   45   47 1    
    90   45  122 1    
    91   46  123 1    
    92   46  124 1    
    93   46  125 1    
    94   47   48 am   BACKBONE|DICT|INTERRES
    95   47  126 1    
    96   48   49 2    
    97   48   50 1    
    98   50   51 1    
    99   50   52 1    
   100   50  127 1    
   101   51  128 1    
   102   51  129 1    
   103   51  130 1    
   104   52   53 am   BACKBONE|DICT|INTERRES
   105   52  131 1    
   106   53   54 2    
   107   53   55 1    
   108   55   56 1    
   109   55   59 1    
   110   55  132 1    
   111   56   57 1    
   112   56  133 1    
   113   56  134 1    
   114   57   58 1    
   115   58  135 1    
   116   58  136 1    
   117   59   60 am   BACKBONE|DICT|INTERRES
   118   59  137 1    
   119   60   61 2    
   120   60   62 1    
   121   62   63 1    
   122   62   64 1    
   123   62  138 1    
   124   63  139 1    
   125   63  140 1    
   126   63  141 1    
   127   64   65 am   BACKBONE|DICT|INTERRES
   128   64  142 1    
   129   65   66 2    
   130   65   67 1    
   131   67   68 1    
   132   67   69 1    
   133   67  143 1    
   134   68  144 1    
   135   68  145 1    
   136   68  146 1    
   137   69   70 am   BACKBONE|DICT|INTERRES
   138   69  147 1    
   139   70   71 2    
   140   70   72 1    
   141   72   73 1    
   142   72   74 1    
   143   72  148 1    
   144   73  149 1    
   145   73  150 1    
   146   73  151 1    
   147   74   75 am   BACKBONE|DICT|INTERRES
   148   74  152 1    
   149   75   76 2    
   150   75   77 1    
   151   77   78 1    
   152   77   79 1    
   153   77  153 1    
   154   78  154 1    
   155   78  155 1    
   156   78  156 1    
   157   79   80 am   BACKBONE|DICT|INTERRES
   158   79  157 1    
   159   80   81 2    
@<TRIPOS>SUBSTRUCTURE
     1 UNK         1 GROUP             0       ****    0 ROOT    
