@<TRIPOS>MOLECULE
3R207
157   159    1
SMALL
USER_CHARGES


@<TRIPOS>ATOM
      1 CA        -48.9685  -31.7081    2.6627 C.3       0 UNK        -0.1975 
      2 C         -48.6311  -30.5303    3.5653 C.2       0 UNK         0.4852 
      3 O         -47.5089  -30.0238    3.5161 O.2       0 UNK        -0.5216 
      4 N         -49.5957  -30.0859    4.3807 N.am      1 UNK        -0.4461 
      5 CA        -49.4380  -28.9962    5.3499 C.3       1 UNK         0.0864 
      6 C6        -50.8018  -28.4995    5.8849 C.3       14 UNK        -0.0898 
      7 S7        -51.8743  -27.8160    4.5778 S.3       14 UNK        -0.2598 
      8 C8        -53.5151  -27.9601    5.3582 C.3       14 UNK         0.0286 
      9 C9        -53.6369  -27.0667    6.5847 C.ar      14 UNK        -0.0844 
     10 C10       -53.9996  -25.7234    6.4477 C.ar      14 UNK        -0.0881 
     11 C11       -54.0934  -24.8946    7.5707 C.ar      14 UNK        -0.0643 
     12 C12       -53.8466  -25.4267    8.8402 C.ar      14 UNK        -0.0930 
     13 C13       -53.4291  -26.7530    8.9820 C.ar      14 UNK        -0.0827 
     14 C14       -53.3531  -27.5748    7.8554 C.ar      14 UNK        -0.1249 
     15 C15       -52.9474  -27.2724   10.3260 C.3       14 UNK         0.0141 
     16 S16       -54.1378  -28.3863   11.1285 S.3       14 UNK        -0.2313 
     17 C17       -52.9693  -29.5185   11.9551 C.3       14 UNK        -0.0915 
     18 CA        -53.6326  -30.4099   13.0357 C.3       13 UNK         0.0968 
     19 C         -52.6743  -31.5453   13.5070 C.2       13 UNK         0.5732 
     20 N         -52.3926  -31.7108   14.7949 N.am      13 UNK        -0.7310 
     21 O         -52.1827  -32.3110   12.6812 O.2       13 UNK        -0.5035 
     22 N         -54.1927  -29.6110   14.1365 N.am      13 UNK        -0.4233 
     23 C         -55.2500  -29.9884   14.8676 C.2       13 UNK         0.4989 
     24 O         -55.9203  -30.9943   14.6255 O.2       13 UNK        -0.4996 
     25 CA        -55.6178  -29.1017   16.0746 C.3       12 UNK         0.0216 
     26 CB        -56.5122  -29.8297   17.1010 C.3       12 UNK        -0.1964 
     27 N         -54.4577  -28.5010   16.7453 N.am      12 UNK        -0.4276 
     28 C         -53.4074  -29.1359   17.2929 C.2       12 UNK         0.5020 
     29 O         -53.2733  -30.3602   17.2744 O.2       12 UNK        -0.5489 
     30 CA        -52.3064  -28.2720   17.9413 C.3       11 UNK         0.0294 
     31 CB        -50.9019  -28.7834   17.5703 C.3       11 UNK        -0.2019 
     32 N         -52.4167  -26.8702   17.5359 N.am      11 UNK        -0.4493 
     33 C         -52.9588  -25.8850   18.2663 C.2       11 UNK         0.4932 
     34 O         -53.3360  -26.0230   19.4296 O.2       11 UNK        -0.5029 
     35 CA        -53.1508  -24.5214   17.5714 C.3       10 UNK         0.0280 
     36 CB        -52.0149  -23.5607   17.9551 C.3       10 UNK        -0.1976 
     37 N         -53.2351  -24.6241   16.1093 N.am      10 UNK        -0.4242 
     38 C         -54.2271  -25.2489   15.4512 C.2       10 UNK         0.5072 
     39 O         -55.2220  -25.7086   16.0112 O.2       10 UNK        -0.5224 
     40 CA        -54.0568  -25.4851   13.9383 C.3       9 UNK         0.0343 
     41 CB        -54.8621  -24.4540   13.1349 C.3       9 UNK        -0.2003 
     42 N         -52.6560  -25.4733   13.5070 N.am      9 UNK        -0.4272 
     43 C         -51.7336  -26.3644   13.9084 C.2       9 UNK         0.4988 
     44 O         -52.0169  -27.3509   14.5899 O.2       9 UNK        -0.5108 
     45 CA        -50.2529  -26.1001   13.5569 C.3       8 UNK         0.0248 
     46 CB        -49.7443  -27.1001   12.5067 C.3       8 UNK        -0.2001 
     47 N         -49.9737  -24.7363   13.0963 N.am      8 UNK        -0.4140 
     48 C         -50.1649  -23.6204   13.8188 C.2       8 UNK         0.5028 
     49 O         -50.5218  -23.6283   14.9971 O.2       8 UNK        -0.5428 
     50 CA        -50.0289  -22.2715   13.0853 C.3       7 UNK         0.0264 
     51 CB        -48.6709  -21.6223   13.3875 C.3       7 UNK        -0.1988 
     52 N         -50.2313  -22.3679   11.6321 N.am      7 UNK        -0.4454 
     53 C         -51.3776  -22.7775   11.0615 C.2       7 UNK         0.5027 
     54 O         -52.3775  -23.0717   11.7163 O.2       7 UNK        -0.5083 
     55 CA        -51.4351  -22.9562    9.5301 C.3       6 UNK         0.0844 
     56 C56       -52.4598  -21.9840    8.8951 C.3       14 UNK        -0.0967 
     57 S57       -52.8964  -22.4244    7.1773 S.3       14 UNK        -0.2604 
     58 C58       -54.4155  -23.4166    7.4002 C.3       14 UNK         0.0134 
     59 N         -50.1270  -22.9417    8.8691 N.am      6 UNK        -0.4116 
     60 C         -49.2056  -23.9036    9.0179 C.2       5 UNK         0.5034 
     61 O         -49.3580  -24.8766    9.7623 O.2       5 UNK        -0.5045 
     62 CA        -47.8887  -23.7641    8.2290 C.3       5 UNK         0.0224 
     63 CB        -47.6638  -22.3739    7.5904 C.3       5 UNK        -0.1978 
     64 N         -46.7418  -24.1572    9.0548 N.am      5 UNK        -0.4737 
     65 C         -46.3551  -23.6001   10.2136 C.2       4 UNK         0.5027 
     66 O         -46.8586  -22.5740   10.6715 O.2       4 UNK        -0.5211 
     67 CA        -45.2578  -24.3153   11.0287 C.3       4 UNK         0.0297 
     68 CB        -45.7939  -24.7147   12.4152 C.3       4 UNK        -0.1993 
     69 N         -44.7412  -25.5171   10.3696 N.am      4 UNK        -0.4486 
     70 C         -43.7813  -25.5360    9.4355 C.2       3 UNK         0.4961 
     71 O         -43.1557  -24.5399    9.0725 O.2       3 UNK        -0.5105 
     72 CA        -43.4901  -26.8973    8.7738 C.3       3 UNK         0.0299 
     73 CB        -42.3111  -27.5924    9.4739 C.3       3 UNK        -0.1972 
     74 N         -44.6453  -27.8062    8.7463 N.am      3 UNK        -0.4305 
     75 C         -45.7865  -27.5678    8.0855 C.2       2 UNK         0.5006 
     76 O         -46.0031  -26.5410    7.4365 O.2       2 UNK        -0.5106 
     77 CA        -46.8896  -28.6221    8.2119 C.3       2 UNK         0.0296 
     78 CB        -47.6659  -28.4468    9.5317 C.3       2 UNK        -0.2002 
     79 N         -47.7993  -28.4602    7.0828 N.am      2 UNK        -0.4032 
     80 C         -48.5401  -29.4246    6.5292 C.2       1 UNK         0.5000 
     81 O         -48.5661  -30.5909    6.9343 O.2       1 UNK        -0.5238 
     82 H82       -49.9962  -32.0447    2.7986 H         1 UNK         0.0889 
     83 H83       -48.3061  -32.5463    2.8771 H         1 UNK         0.0889 
     84 H84       -48.8388  -31.4291    1.6173 H         1 UNK         0.0889 
     85 H85       -50.4945  -30.5456    4.3867 H         1 UNK         0.3028 
     86 H86       -48.9482  -28.1654    4.8365 H         1 UNK         0.0864 
     87 H87       -50.6599  -27.7159    6.6325 H         1 UNK         0.0720 
     88 H88       -51.3267  -29.3143    6.3874 H         1 UNK         0.0720 
     89 H89       -54.2790  -27.6892    4.6278 H         1 UNK         0.0814 
     90 H90       -53.7054  -29.0015    5.6226 H         1 UNK         0.0814 
     91 H91       -54.1848  -25.3166    5.4627 H         1 UNK         0.1469 
     92 H92       -53.9110  -24.7875    9.7100 H         1 UNK         0.1381 
     93 H93       -53.0355  -28.6024    7.9669 H         1 UNK         0.1206 
     94 H94       -52.0036  -27.7956   10.1668 H         1 UNK         0.0813 
     95 H95       -52.7239  -26.4424   10.9946 H         1 UNK         0.0813 
     96 H96       -52.5176  -30.1321   11.1732 H         1 UNK         0.0638 
     97 H97       -52.1572  -28.9408   12.3952 H         1 UNK         0.0638 
     98 H98       -54.4569  -30.9288   12.5429 H         1 UNK         0.0568 
     99 H99       -52.8038  -31.1245   15.5139 H         1 UNK         0.3450 
    100 H100      -51.7746  -32.4594   15.0626 H         1 UNK         0.3450 
    101 H101      -53.6543  -28.7985   14.4111 H         1 UNK         0.2987 
    102 H102      -56.1966  -28.2719   15.6665 H         1 UNK         0.0766 
    103 H103      -56.7804  -29.1734   17.9289 H         1 UNK         0.0798 
    104 H104      -57.4434  -30.1660   16.6432 H         1 UNK         0.0798 
    105 H105      -56.0172  -30.7083   17.5160 H         1 UNK         0.0798 
    106 H106      -54.4776  -27.4879   16.7884 H         1 UNK         0.3198 
    107 H107      -52.4255  -28.3618   19.0230 H         1 UNK         0.0843 
    108 H108      -50.7467  -28.7933   16.4909 H         1 UNK         0.0831 
    109 H109      -50.7476  -29.8017   17.9295 H         1 UNK         0.0831 
    110 H110      -50.1234  -28.1643   18.0161 H         1 UNK         0.0831 
    111 H111      -52.1611  -26.6821   16.5729 H         1 UNK         0.3133 
    112 H112      -54.0910  -24.0975   17.9303 H         1 UNK         0.0566 
    113 H113      -51.0412  -23.9438   17.6471 H         1 UNK         0.0814 
    114 H114      -51.9785  -23.4114   19.0351 H         1 UNK         0.0814 
    115 H115      -52.1493  -22.5808   17.4967 H         1 UNK         0.0814 
    116 H116      -52.4353  -24.2783   15.5875 H         1 UNK         0.3091 
    117 H117      -54.4614  -26.4747   13.7155 H         1 UNK         0.0702 
    118 H118      -54.7918  -24.6436   12.0639 H         1 UNK         0.0785 
    119 H119      -54.5151  -23.4369   13.3210 H         1 UNK         0.0785 
    120 H120      -55.9192  -24.4919   13.4012 H         1 UNK         0.0785 
    121 H121      -52.3701  -24.6774   12.9453 H         1 UNK         0.2998 
    122 H122      -49.6830  -26.2567   14.4749 H         1 UNK         0.0697 
    123 H123      -50.2301  -26.9568   11.5420 H         1 UNK         0.0825 
    124 H124      -49.9248  -28.1287   12.8213 H         1 UNK         0.0825 
    125 H125      -48.6702  -26.9981   12.3524 H         1 UNK         0.0825 
    126 H126      -49.6967  -24.6363   12.1275 H         1 UNK         0.3029 
    127 H127      -50.8094  -21.6160   13.4782 H         1 UNK         0.0897 
    128 H128      -48.5724  -20.6531   12.8982 H         1 UNK         0.0792 
    129 H129      -48.5492  -21.4585   14.4591 H         1 UNK         0.0792 
    130 H130      -47.8431  -22.2498   13.0615 H         1 UNK         0.0792 
    131 H131      -49.4308  -22.1726   11.0451 H         1 UNK         0.3086 
    132 H132      -51.8104  -23.9664    9.3891 H         1 UNK         0.0583 
    133 H133      -53.3793  -21.9437    9.4827 H         1 UNK         0.1020 
    134 H134      -52.0664  -20.9659    8.9008 H         1 UNK         0.1020 
    135 H135      -54.9963  -23.0493    8.2473 H         1 UNK         0.0694 
    136 H136      -55.0492  -23.2802    6.5225 H         1 UNK         0.0694 
    137 H137      -49.9410  -22.1714    8.2441 H         1 UNK         0.2989 
    138 H138      -47.9466  -24.4949    7.4209 H         1 UNK         0.1055 
    139 H139      -46.7021  -22.3328    7.0786 H         1 UNK         0.0806 
    140 H140      -47.6754  -21.5719    8.3295 H         1 UNK         0.0806 
    141 H141      -48.4262  -22.1511    6.8430 H         1 UNK         0.0806 
    142 H142      -46.2739  -25.0030    8.7481 H         1 UNK         0.3061 
    143 H143      -44.4400  -23.6053   11.1694 H         1 UNK         0.0734 
    144 H144      -46.0866  -23.8352   12.9888 H         1 UNK         0.0832 
    145 H145      -46.6695  -25.3609   12.3403 H         1 UNK         0.0832 
    146 H146      -45.0371  -25.2375   13.0003 H         1 UNK         0.0832 
    147 H147      -45.1914  -26.3897   10.6038 H         1 UNK         0.3156 
    148 H148      -43.2020  -26.6995    7.7391 H         1 UNK         0.0589 
    149 H149      -42.5448  -27.8415   10.5098 H         1 UNK         0.0808 
    150 H150      -42.0300  -28.5125    8.9610 H         1 UNK         0.0808 
    151 H151      -41.4299  -26.9491    9.4849 H         1 UNK         0.0808 
    152 H152      -44.5515  -28.6720    9.2591 H         1 UNK         0.3098 
    153 H153      -46.4315  -29.6130    8.1757 H         1 UNK         0.0720 
    154 H154      -48.4627  -29.1851    9.6243 H         1 UNK         0.0791 
    155 H155      -47.0123  -28.5702   10.3958 H         1 UNK         0.0791 
    156 H156      -48.1211  -27.4574    9.6029 H         1 UNK         0.0791 
    157 H157      -47.7763  -27.5350    6.6714 H         1 UNK         0.3028 
@<TRIPOS>BOND
     1    1    2 1    
     2    1   82 1    
     3    1   83 1    
     4    1   84 1    
     5    2    3 2    
     6    2    4 am   BACKBONE|DICT|INTERRES
     7    4    5 1    
     8    4   85 1    
     9    5    6 1    
    10    5   80 1    
    11    5   86 1    
    12    6    7 1    
    13    6   87 1    
    14    6   88 1    
    15    7    8 1    
    16    8    9 1    
    17    8   89 1    
    18    8   90 1    
    19    9   10 ar   
    20    9   14 ar   
    21   10   11 ar   
    22   10   91 1    
    23   11   12 ar   
    24   11   58 1    
    25   12   13 ar   
    26   12   92 1    
    27   13   14 ar   
    28   13   15 1    
    29   14   93 1    
    30   15   16 1    
    31   15   94 1    
    32   15   95 1    
    33   16   17 1    
    34   17   18 1    
    35   17   96 1    
    36   17   97 1    
    37   18   19 1    
    38   18   22 1    
    39   18   98 1    
    40   19   20 am   BACKBONE|DICT|INTERRES
    41   19   21 2    
    42   20   99 1    
    43   20  100 1    
    44   22   23 am   BACKBONE|DICT|INTERRES
    45   22  101 1    
    46   23   24 2    
    47   23   25 1    
    48   25   26 1    
    49   25   27 1    
    50   25  102 1    
    51   26  103 1    
    52   26  104 1    
    53   26  105 1    
    54   27   28 am   BACKBONE|DICT|INTERRES
    55   27  106 1    
    56   28   29 2    
    57   28   30 1    
    58   30   31 1    
    59   30   32 1    
    60   30  107 1    
    61   31  108 1    
    62   31  109 1    
    63   31  110 1    
    64   32   33 am   BACKBONE|DICT|INTERRES
    65   32  111 1    
    66   33   34 2    
    67   33   35 1    
    68   35   36 1    
    69   35   37 1    
    70   35  112 1    
    71   36  113 1    
    72   36  114 1    
    73   36  115 1    
    74   37   38 am   BACKBONE|DICT|INTERRES
    75   37  116 1    
    76   38   39 2    
    77   38   40 1    
    78   40   41 1    
    79   40   42 1    
    80   40  117 1    
    81   41  118 1    
    82   41  119 1    
    83   41  120 1    
    84   42   43 am   BACKBONE|DICT|INTERRES
    85   42  121 1    
    86   43   44 2    
    87   43   45 1    
    88   45   46 1    
    89   45   47 1    
    90   45  122 1    
    91   46  123 1    
    92   46  124 1    
    93   46  125 1    
    94   47   48 am   BACKBONE|DICT|INTERRES
    95   47  126 1    
    96   48   49 2    
    97   48   50 1    
    98   50   51 1    
    99   50   52 1    
   100   50  127 1    
   101   51  128 1    
   102   51  129 1    
   103   51  130 1    
   104   52   53 am   BACKBONE|DICT|INTERRES
   105   52  131 1    
   106   53   54 2    
   107   53   55 1    
   108   55   56 1    
   109   55   59 1    
   110   55  132 1    
   111   56   57 1    
   112   56  133 1    
   113   56  134 1    
   114   57   58 1    
   115   58  135 1    
   116   58  136 1    
   117   59   60 am   BACKBONE|DICT|INTERRES
   118   59  137 1    
   119   60   61 2    
   120   60   62 1    
   121   62   63 1    
   122   62   64 1    
   123   62  138 1    
   124   63  139 1    
   125   63  140 1    
   126   63  141 1    
   127   64   65 am   BACKBONE|DICT|INTERRES
   128   64  142 1    
   129   65   66 2    
   130   65   67 1    
   131   67   68 1    
   132   67   69 1    
   133   67  143 1    
   134   68  144 1    
   135   68  145 1    
   136   68  146 1    
   137   69   70 am   BACKBONE|DICT|INTERRES
   138   69  147 1    
   139   70   71 2    
   140   70   72 1    
   141   72   73 1    
   142   72   74 1    
   143   72  148 1    
   144   73  149 1    
   145   73  150 1    
   146   73  151 1    
   147   74   75 am   BACKBONE|DICT|INTERRES
   148   74  152 1    
   149   75   76 2    
   150   75   77 1    
   151   77   78 1    
   152   77   79 1    
   153   77  153 1    
   154   78  154 1    
   155   78  155 1    
   156   78  156 1    
   157   79   80 am   BACKBONE|DICT|INTERRES
   158   79  157 1    
   159   80   81 2    
@<TRIPOS>SUBSTRUCTURE
     1 UNK         1 GROUP             0       ****    0 ROOT    
