@<TRIPOS>MOLECULE
3R207
157   159    1
SMALL
USER_CHARGES


@<TRIPOS>ATOM
      1 CA        -46.4592  -28.9591    5.1067 C.3       0 UNK        -0.1975 
      2 C         -47.5855  -27.9435    4.9881 C.2       0 UNK         0.4852 
      3 O         -47.6171  -27.1750    4.0267 O.2       0 UNK        -0.5216 
      4 N         -48.5063  -27.9319    5.9607 N.am      1 UNK        -0.4461 
      5 CA        -49.6278  -26.9914    6.0480 C.3       1 UNK         0.0864 
      6 C6        -50.6412  -27.4210    7.1357 C.3       14 UNK        -0.0898 
      7 S7        -51.7488  -28.7533    6.5650 S.3       14 UNK        -0.2598 
      8 C8        -50.9034  -30.2756    7.1037 C.3       14 UNK         0.0286 
      9 C9        -50.7845  -30.3890    8.6176 C.ar      14 UNK        -0.0844 
     10 C10       -49.5267  -30.3800    9.2256 C.ar      14 UNK        -0.0881 
     11 C11       -49.4032  -30.5112   10.6119 C.ar      14 UNK        -0.0643 
     12 C12       -50.5547  -30.6406   11.3958 C.ar      14 UNK        -0.0930 
     13 C13       -51.8200  -30.6727   10.7979 C.ar      14 UNK        -0.0827 
     14 C14       -51.9260  -30.5500    9.4083 C.ar      14 UNK        -0.1249 
     15 C15       -53.0679  -30.8887   11.6449 C.3       14 UNK         0.0141 
     16 S16       -54.2206  -29.4885   11.5281 S.3       14 UNK        -0.2313 
     17 C17       -55.4723  -29.9714   12.7611 C.3       14 UNK        -0.0915 
     18 CA        -56.6675  -28.9840   12.8013 C.3       13 UNK         0.0968 
     19 C         -57.7859  -29.4794   13.7664 C.2       13 UNK         0.5732 
     20 N         -58.1985  -28.7211   14.7764 N.am      13 UNK        -0.7310 
     21 O         -58.3071  -30.5771   13.5825 O.2       13 UNK        -0.5035 
     22 N         -56.2182  -27.6080   13.0509 N.am      13 UNK        -0.4233 
     23 C         -56.8963  -26.5044   12.7197 C.2       13 UNK         0.4989 
     24 O         -57.9539  -26.5104   12.0866 O.2       13 UNK        -0.4996 
     25 CA        -56.2836  -25.1744   13.1967 C.3       12 UNK         0.0216 
     26 CB        -57.2818  -23.9974   13.1597 C.3       12 UNK        -0.1964 
     27 N         -55.6537  -25.2899   14.5195 N.am      12 UNK        -0.4276 
     28 C         -56.2483  -25.6258   15.6735 C.2       12 UNK         0.5020 
     29 O         -57.4454  -25.9036   15.7741 O.2       12 UNK        -0.5489 
     30 CA        -55.3377  -25.6740   16.9128 C.3       11 UNK         0.0294 
     31 CB        -56.0667  -26.1662   18.1819 C.3       11 UNK        -0.2019 
     32 N         -54.1031  -26.4352   16.6904 N.am      11 UNK        -0.4493 
     33 C         -53.9802  -27.7442   16.4163 C.2       11 UNK         0.4932 
     34 O         -54.9421  -28.4929   16.2433 O.2       11 UNK        -0.5029 
     35 CA        -52.5541  -28.3358   16.3251 C.3       10 UNK         0.0280 
     36 CB        -52.4216  -29.3050   15.1377 C.3       10 UNK        -0.1976 
     37 N         -51.4976  -27.3262   16.2264 N.am      10 UNK        -0.4242 
     38 C         -50.9920  -26.6073   17.2380 C.2       10 UNK         0.5072 
     39 O         -51.2991  -26.7721   18.4185 O.2       10 UNK        -0.5224 
     40 CA        -50.0376  -25.4600   16.8560 C.3       9 UNK         0.0343 
     41 CB        -48.5815  -25.9491   16.7990 C.3       9 UNK        -0.2003 
     42 N         -50.4008  -24.8244   15.5835 N.am      9 UNK        -0.4272 
     43 C         -51.5418  -24.1502   15.3683 C.2       9 UNK         0.4988 
     44 O         -52.3856  -23.9350   16.2385 O.2       9 UNK        -0.5108 
     45 CA        -51.8187  -23.6969   13.9267 C.3       8 UNK         0.0248 
     46 CB        -51.0828  -22.3851   13.6114 C.3       8 UNK        -0.2001 
     47 N         -51.4539  -24.7305   12.9541 N.am      8 UNK        -0.4140 
     48 C         -52.1355  -25.8765   12.7938 C.2       8 UNK         0.5028 
     49 O         -53.1662  -26.1433   13.4107 O.2       8 UNK        -0.5428 
     50 CA        -51.5578  -26.9194   11.8205 C.3       7 UNK         0.0264 
     51 CB        -52.1130  -26.7078   10.4051 C.3       7 UNK        -0.1988 
     52 N         -50.0950  -26.9356   11.7836 N.am      7 UNK        -0.4454 
     53 C         -49.3170  -27.2211   12.8380 C.2       7 UNK         0.5027 
     54 O         -49.7623  -27.5947   13.9226 O.2       7 UNK        -0.5083 
     55 CA        -47.7993  -26.9791   12.6996 C.3       6 UNK         0.0844 
     56 C56       -47.0014  -28.3005   12.6065 C.3       14 UNK        -0.0967 
     57 S57       -47.0389  -29.0813   10.9541 S.3       14 UNK        -0.2604 
     58 C58       -48.0197  -30.5896   11.2421 C.3       14 UNK         0.0134 
     59 N         -47.4414  -26.0396   11.6320 N.am      6 UNK        -0.4116 
     60 C         -47.7936  -24.7495   11.5684 C.2       5 UNK         0.5034 
     61 O         -48.5004  -24.2044   12.4172 O.2       5 UNK        -0.5045 
     62 CA        -47.3519  -23.9453   10.3312 C.3       5 UNK         0.0224 
     63 CB        -46.6656  -22.6210   10.7228 C.3       5 UNK        -0.1978 
     64 N         -46.5506  -24.6975    9.3526 N.am      5 UNK        -0.4737 
     65 C         -45.2926  -25.1539    9.4706 C.2       4 UNK         0.5027 
     66 O         -44.6115  -25.0495   10.4895 O.2       4 UNK        -0.5211 
     67 CA        -44.7012  -25.8585    8.2370 C.3       4 UNK         0.0297 
     68 CB        -45.0883  -27.3461    8.2316 C.3       4 UNK        -0.1993 
     69 N         -45.1447  -25.2356    6.9879 N.am      4 UNK        -0.4486 
     70 C         -44.6825  -24.0671    6.5148 C.2       3 UNK         0.4961 
     71 O         -43.7369  -23.4498    7.0043 O.2       3 UNK        -0.5105 
     72 CA        -45.4468  -23.4627    5.3310 C.3       3 UNK         0.0299 
     73 CB        -45.1013  -24.1760    4.0108 C.3       3 UNK        -0.1972 
     74 N         -46.8745  -23.5468    5.6166 N.am      3 UNK        -0.4305 
     75 C         -47.8726  -22.8627    5.0588 C.2       2 UNK         0.5006 
     76 O         -47.7243  -22.0482    4.1461 O.2       2 UNK        -0.5106 
     77 CA        -49.2751  -23.1567    5.6385 C.3       2 UNK         0.0296 
     78 CB        -50.3824  -22.3345    4.9524 C.3       2 UNK        -0.2002 
     79 N         -49.6363  -24.5802    5.5819 N.am      2 UNK        -0.4032 
     80 C         -49.1087  -25.5671    6.3217 C.2       1 UNK         0.5000 
     81 O         -48.2398  -25.3909    7.1843 O.2       1 UNK        -0.5238 
     82 H82       -45.4937  -28.4583    5.0403 H         1 UNK         0.0889 
     83 H83       -46.5225  -29.6836    4.2954 H         1 UNK         0.0889 
     84 H84       -46.4954  -29.5019    6.0512 H         1 UNK         0.0889 
     85 H85       -48.4116  -28.5649    6.7394 H         1 UNK         0.3028 
     86 H86       -50.1324  -26.9842    5.0790 H         1 UNK         0.0864 
     87 H87       -50.1336  -27.7095    8.0575 H         1 UNK         0.0720 
     88 H88       -51.2941  -26.5881    7.4050 H         1 UNK         0.0720 
     89 H89       -51.4668  -31.1330    6.7329 H         1 UNK         0.0814 
     90 H90       -49.9249  -30.3328    6.6258 H         1 UNK         0.0814 
     91 H91       -48.6341  -30.2909    8.6223 H         1 UNK         0.1469 
     92 H92       -50.4637  -30.7486   12.4679 H         1 UNK         0.1381 
     93 H93       -52.9009  -30.5780    8.9407 H         1 UNK         0.1206 
     94 H94       -52.8009  -31.0442   12.6910 H         1 UNK         0.0813 
     95 H95       -53.5721  -31.7978   11.3145 H         1 UNK         0.0813 
     96 H96       -54.9975  -30.0324   13.7412 H         1 UNK         0.0638 
     97 H97       -55.8144  -30.9788   12.5168 H         1 UNK         0.0638 
     98 H98       -57.1221  -28.9976   11.8090 H         1 UNK         0.0568 
     99 H99       -57.7909  -27.8104   14.9528 H         1 UNK         0.3450 
    100 H100      -58.9261  -29.0663   15.3809 H         1 UNK         0.3450 
    101 H101      -55.3531  -27.5081   13.5636 H         1 UNK         0.2987 
    102 H102      -55.4801  -24.9454   12.4950 H         1 UNK         0.0766 
    103 H103      -56.8138  -23.0702   13.4901 H         1 UNK         0.0798 
    104 H104      -58.1490  -24.1810   13.7948 H         1 UNK         0.0798 
    105 H105      -57.6511  -23.8298   12.1472 H         1 UNK         0.0798 
    106 H106      -54.6397  -25.2338   14.5075 H         1 UNK         0.3198 
    107 H107      -55.0281  -24.6439   17.0965 H         1 UNK         0.0843 
    108 H108      -56.4487  -27.1806   18.0636 H         1 UNK         0.0831 
    109 H109      -56.9182  -25.5257   18.4147 H         1 UNK         0.0831 
    110 H110      -55.4064  -26.1545   19.0489 H         1 UNK         0.0831 
    111 H111      -53.2531  -25.8890   16.7619 H         1 UNK         0.3133 
    112 H112      -52.3912  -28.9083   17.2401 H         1 UNK         0.0566 
    113 H113      -51.4084  -29.6982   15.0521 H         1 UNK         0.0814 
    114 H114      -53.0893  -30.1593   15.2527 H         1 UNK         0.0814 
    115 H115      -52.6723  -28.8169   14.1964 H         1 UNK         0.0814 
    116 H116      -51.1149  -27.1720   15.2982 H         1 UNK         0.3091 
    117 H117      -50.1088  -24.6991   17.6363 H         1 UNK         0.0702 
    118 H118      -47.8967  -25.1342   16.5640 H         1 UNK         0.0785 
    119 H119      -48.4424  -26.7318   16.0534 H         1 UNK         0.0785 
    120 H120      -48.2747  -26.3619   17.7610 H         1 UNK         0.0785 
    121 H121      -49.7691  -24.9592   14.8071 H         1 UNK         0.2998 
    122 H122      -52.8907  -23.5091   13.8345 H         1 UNK         0.0697 
    123 H123      -50.0032  -22.4826   13.7277 H         1 UNK         0.0825 
    124 H124      -51.4087  -21.5884   14.2815 H         1 UNK         0.0825 
    125 H125      -51.2818  -22.0524   12.5926 H         1 UNK         0.0825 
    126 H126      -50.5815  -24.5975   12.4559 H         1 UNK         0.3029 
    127 H127      -51.8816  -27.9001   12.1698 H         1 UNK         0.0897 
    128 H128      -53.2018  -26.6379   10.4199 H         1 UNK         0.0792 
    129 H129      -51.8612  -27.5502    9.7616 H         1 UNK         0.0792 
    130 H130      -51.7308  -25.7956    9.9460 H         1 UNK         0.0792 
    131 H131      -49.6514  -26.6651   10.9191 H         1 UNK         0.3086 
    132 H132      -47.5001  -26.4984   13.6335 H         1 UNK         0.0583 
    133 H133      -45.9544  -28.0931   12.8335 H         1 UNK         0.1020 
    134 H134      -47.3195  -29.0017   13.3801 H         1 UNK         0.1020 
    135 H135      -47.4875  -31.4315   10.7973 H         1 UNK         0.0694 
    136 H136      -48.0879  -30.8125   12.3073 H         1 UNK         0.0694 
    137 H137      -46.8674  -26.4133   10.8906 H         1 UNK         0.2989 
    138 H138      -48.2763  -23.6879    9.8113 H         1 UNK         0.1055 
    139 H139      -47.3285  -22.0013   11.3283 H         1 UNK         0.0806 
    140 H140      -46.3952  -22.0389    9.8417 H         1 UNK         0.0806 
    141 H141      -45.7601  -22.7881   11.3064 H         1 UNK         0.0806 
    142 H142      -47.0533  -24.9306    8.4983 H         1 UNK         0.3061 
    143 H143      -43.6129  -25.7872    8.2978 H         1 UNK         0.0734 
    144 H144      -44.6193  -27.8742    7.4018 H         1 UNK         0.0832 
    145 H145      -44.7590  -27.8361    9.1490 H         1 UNK         0.0832 
    146 H146      -46.1674  -27.4871    8.1568 H         1 UNK         0.0832 
    147 H147      -45.9106  -25.6864    6.5086 H         1 UNK         0.3156 
    148 H148      -45.1695  -22.4095    5.2503 H         1 UNK         0.0589 
    149 H149      -45.4112  -25.2218    4.0210 H         1 UNK         0.0808 
    150 H150      -45.5861  -23.6948    3.1614 H         1 UNK         0.0808 
    151 H151      -44.0268  -24.1531    3.8248 H         1 UNK         0.0808 
    152 H152      -47.1436  -24.1814    6.3634 H         1 UNK         0.3098 
    153 H153      -49.2491  -22.8589    6.6891 H         1 UNK         0.0720 
    154 H154      -51.3519  -22.5038    5.4215 H         1 UNK         0.0791 
    155 H155      -50.4724  -22.5823    3.8940 H         1 UNK         0.0791 
    156 H156      -50.1758  -21.2655    5.0208 H         1 UNK         0.0791 
    157 H157      -50.3179  -24.8273    4.8787 H         1 UNK         0.3028 
@<TRIPOS>BOND
     1    1    2 1    
     2    1   82 1    
     3    1   83 1    
     4    1   84 1    
     5    2    3 2    
     6    2    4 am   BACKBONE|DICT|INTERRES
     7    4    5 1    
     8    4   85 1    
     9    5    6 1    
    10    5   80 1    
    11    5   86 1    
    12    6    7 1    
    13    6   87 1    
    14    6   88 1    
    15    7    8 1    
    16    8    9 1    
    17    8   89 1    
    18    8   90 1    
    19    9   10 ar   
    20    9   14 ar   
    21   10   11 ar   
    22   10   91 1    
    23   11   12 ar   
    24   11   58 1    
    25   12   13 ar   
    26   12   92 1    
    27   13   14 ar   
    28   13   15 1    
    29   14   93 1    
    30   15   16 1    
    31   15   94 1    
    32   15   95 1    
    33   16   17 1    
    34   17   18 1    
    35   17   96 1    
    36   17   97 1    
    37   18   19 1    
    38   18   22 1    
    39   18   98 1    
    40   19   20 am   BACKBONE|DICT|INTERRES
    41   19   21 2    
    42   20   99 1    
    43   20  100 1    
    44   22   23 am   BACKBONE|DICT|INTERRES
    45   22  101 1    
    46   23   24 2    
    47   23   25 1    
    48   25   26 1    
    49   25   27 1    
    50   25  102 1    
    51   26  103 1    
    52   26  104 1    
    53   26  105 1    
    54   27   28 am   BACKBONE|DICT|INTERRES
    55   27  106 1    
    56   28   29 2    
    57   28   30 1    
    58   30   31 1    
    59   30   32 1    
    60   30  107 1    
    61   31  108 1    
    62   31  109 1    
    63   31  110 1    
    64   32   33 am   BACKBONE|DICT|INTERRES
    65   32  111 1    
    66   33   34 2    
    67   33   35 1    
    68   35   36 1    
    69   35   37 1    
    70   35  112 1    
    71   36  113 1    
    72   36  114 1    
    73   36  115 1    
    74   37   38 am   BACKBONE|DICT|INTERRES
    75   37  116 1    
    76   38   39 2    
    77   38   40 1    
    78   40   41 1    
    79   40   42 1    
    80   40  117 1    
    81   41  118 1    
    82   41  119 1    
    83   41  120 1    
    84   42   43 am   BACKBONE|DICT|INTERRES
    85   42  121 1    
    86   43   44 2    
    87   43   45 1    
    88   45   46 1    
    89   45   47 1    
    90   45  122 1    
    91   46  123 1    
    92   46  124 1    
    93   46  125 1    
    94   47   48 am   BACKBONE|DICT|INTERRES
    95   47  126 1    
    96   48   49 2    
    97   48   50 1    
    98   50   51 1    
    99   50   52 1    
   100   50  127 1    
   101   51  128 1    
   102   51  129 1    
   103   51  130 1    
   104   52   53 am   BACKBONE|DICT|INTERRES
   105   52  131 1    
   106   53   54 2    
   107   53   55 1    
   108   55   56 1    
   109   55   59 1    
   110   55  132 1    
   111   56   57 1    
   112   56  133 1    
   113   56  134 1    
   114   57   58 1    
   115   58  135 1    
   116   58  136 1    
   117   59   60 am   BACKBONE|DICT|INTERRES
   118   59  137 1    
   119   60   61 2    
   120   60   62 1    
   121   62   63 1    
   122   62   64 1    
   123   62  138 1    
   124   63  139 1    
   125   63  140 1    
   126   63  141 1    
   127   64   65 am   BACKBONE|DICT|INTERRES
   128   64  142 1    
   129   65   66 2    
   130   65   67 1    
   131   67   68 1    
   132   67   69 1    
   133   67  143 1    
   134   68  144 1    
   135   68  145 1    
   136   68  146 1    
   137   69   70 am   BACKBONE|DICT|INTERRES
   138   69  147 1    
   139   70   71 2    
   140   70   72 1    
   141   72   73 1    
   142   72   74 1    
   143   72  148 1    
   144   73  149 1    
   145   73  150 1    
   146   73  151 1    
   147   74   75 am   BACKBONE|DICT|INTERRES
   148   74  152 1    
   149   75   76 2    
   150   75   77 1    
   151   77   78 1    
   152   77   79 1    
   153   77  153 1    
   154   78  154 1    
   155   78  155 1    
   156   78  156 1    
   157   79   80 am   BACKBONE|DICT|INTERRES
   158   79  157 1    
   159   80   81 2    
@<TRIPOS>SUBSTRUCTURE
     1 UNK         1 GROUP             0       ****    0 ROOT    
