@<TRIPOS>MOLECULE
3R207
157   159    1
SMALL
USER_CHARGES


@<TRIPOS>ATOM
      1 CA        -46.7352  -26.4718   11.2318 C.3       0 UNK        -0.1975 
      2 C         -47.4020  -27.6480   10.5386 C.2       0 UNK         0.4852 
      3 O         -47.0474  -28.7946   10.8127 O.2       0 UNK        -0.5216 
      4 N         -48.3754  -27.3764    9.6581 N.am      1 UNK        -0.4461 
      5 CA        -49.1037  -28.3964    8.8946 C.3       1 UNK         0.0864 
      6 C6        -50.4926  -27.8968    8.4207 C.3       14 UNK        -0.0898 
      7 S7        -50.4261  -26.5075    7.2395 S.3       14 UNK        -0.2598 
      8 C8        -52.0534  -26.6382    6.4358 C.3       14 UNK         0.0286 
      9 C9        -53.1438  -26.0487    7.3154 C.ar      14 UNK        -0.0844 
     10 C10       -53.3632  -24.6689    7.3168 C.ar      14 UNK        -0.0881 
     11 C11       -54.3252  -24.0995    8.1579 C.ar      14 UNK        -0.0643 
     12 C12       -55.1036  -24.9341    8.9660 C.ar      14 UNK        -0.0930 
     13 C13       -54.9161  -26.3203    8.9494 C.ar      14 UNK        -0.0827 
     14 C14       -53.9276  -26.8721    8.1286 C.ar      14 UNK        -0.1249 
     15 C15       -55.8010  -27.2156    9.8048 C.3       14 UNK         0.0141 
     16 S16       -55.2661  -27.2342   11.5424 S.3       14 UNK        -0.2313 
     17 C17       -53.9011  -28.4450   11.5079 C.3       14 UNK        -0.0915 
     18 CA        -54.2488  -29.7709   12.2415 C.3       13 UNK         0.0968 
     19 C         -53.1059  -30.8215   12.1291 C.2       13 UNK         0.5732 
     20 N         -52.7224  -31.5163   13.1954 N.am      13 UNK        -0.7310 
     21 O         -52.5620  -31.0255   11.0466 O.2       13 UNK        -0.5035 
     22 N         -54.6734  -29.5413   13.6329 N.am      13 UNK        -0.4233 
     23 C         -55.7639  -30.0777   14.1945 C.2       13 UNK         0.4989 
     24 O         -56.5654  -30.7888   13.5846 O.2       13 UNK        -0.4996 
     25 CA        -56.0113  -29.7649   15.6854 C.3       12 UNK         0.0216 
     26 CB        -56.9693  -30.7739   16.3550 C.3       12 UNK        -0.1964 
     27 N         -54.7893  -29.6170   16.4863 N.am      12 UNK        -0.4276 
     28 C         -53.8106  -30.5202   16.6633 C.2       12 UNK         0.5020 
     29 O         -53.7898  -31.6170   16.1018 O.2       12 UNK        -0.5489 
     30 CA        -52.6486  -30.1237   17.5972 C.3       11 UNK         0.0294 
     31 CB        -51.3130  -30.7411   17.1416 C.3       11 UNK        -0.2019 
     32 N         -52.4986  -28.6695   17.6442 N.am      11 UNK        -0.4493 
     33 C         -52.7335  -27.8789   18.7000 C.2       11 UNK         0.4932 
     34 O         -53.0261  -28.3006   19.8188 O.2       11 UNK        -0.5029 
     35 CA        -52.6554  -26.3539   18.4698 C.3       10 UNK         0.0280 
     36 CB        -51.3039  -25.8085   18.9579 C.3       10 UNK        -0.1976 
     37 N         -52.8547  -25.9525   17.0725 N.am      10 UNK        -0.4242 
     38 C         -53.9764  -26.1514   16.3631 C.2       10 UNK         0.5072 
     39 O         -55.0131  -26.6110   16.8426 O.2       10 UNK        -0.5224 
     40 CA        -53.9048  -25.8854   14.8470 C.3       9 UNK         0.0343 
     41 CB        -54.4301  -24.4804   14.5182 C.3       9 UNK        -0.2003 
     42 N         -52.5640  -26.0662   14.2700 N.am      9 UNK        -0.4272 
     43 C         -51.8518  -27.2035   14.3382 C.2       9 UNK         0.4988 
     44 O         -52.3087  -28.2354   14.8288 O.2       9 UNK        -0.5108 
     45 CA        -50.4059  -27.2280   13.8042 C.3       8 UNK         0.0248 
     46 CB        -50.2253  -28.3196   12.7365 C.3       8 UNK        -0.2001 
     47 N         -49.9290  -25.9447   13.2846 N.am      8 UNK        -0.4140 
     48 C         -49.6073  -24.8818   14.0357 C.2       8 UNK         0.5028 
     49 O         -49.5881  -24.9003   15.2669 O.2       8 UNK        -0.5428 
     50 CA        -49.3140  -23.5602   13.2961 C.3       7 UNK         0.0264 
     51 CB        -47.8036  -23.2807   13.2423 C.3       7 UNK        -0.1988 
     52 N         -49.8770  -23.4660   11.9402 N.am      7 UNK        -0.4454 
     53 C         -51.1800  -23.5462   11.6344 C.2       7 UNK         0.5027 
     54 O         -52.0423  -23.7886   12.4779 O.2       7 UNK        -0.5083 
     55 CA        -51.6246  -23.3536   10.1674 C.3       6 UNK         0.0844 
     56 C56       -52.4106  -22.0199   10.0164 C.3       14 UNK        -0.0967 
     57 S57       -52.9696  -21.6517    8.3146 S.3       14 UNK        -0.2604 
     58 C58       -54.5321  -22.5885    8.1951 C.3       14 UNK         0.0134 
     59 N         -50.5932  -23.5545    9.1358 N.am      6 UNK        -0.4116 
     60 C         -49.4999  -22.8209    8.8973 C.2       5 UNK         0.5034 
     61 O         -49.0514  -21.9703    9.6683 O.2       5 UNK        -0.5045 
     62 CA        -48.8241  -23.0434    7.5383 C.3       5 UNK         0.0224 
     63 CB        -49.2930  -21.9774    6.5348 C.3       5 UNK        -0.1978 
     64 N         -47.3701  -22.9814    7.6563 N.am      5 UNK        -0.4737 
     65 C         -46.5967  -24.0390    7.9155 C.2       4 UNK         0.5027 
     66 O         -47.0252  -25.1804    8.1126 O.2       4 UNK        -0.5211 
     67 CA        -45.0845  -23.7853    7.9545 C.3       4 UNK         0.0297 
     68 CB        -44.5433  -23.8953    9.3883 C.3       4 UNK        -0.1993 
     69 N         -44.4335  -24.7795    7.1071 N.am      4 UNK        -0.4486 
     70 C         -44.2367  -24.6388    5.7894 C.2       3 UNK         0.4961 
     71 O         -44.3809  -23.5790    5.1790 O.2       3 UNK        -0.5105 
     72 CA        -43.8454  -25.9108    5.0151 C.3       3 UNK         0.0299 
     73 CB        -42.3194  -26.0968    5.0120 C.3       3 UNK        -0.1972 
     74 N         -44.4875  -27.1183    5.5475 N.am      3 UNK        -0.4305 
     75 C         -45.8075  -27.3592    5.5214 C.2       2 UNK         0.5006 
     76 O         -46.6257  -26.6204    4.9716 O.2       2 UNK        -0.5106 
     77 CA        -46.3111  -28.6238    6.2308 C.3       2 UNK         0.0296 
     78 CB        -45.2012  -29.5004    6.8560 C.3       2 UNK        -0.2002 
     79 N         -47.2679  -28.2188    7.2568 N.am      2 UNK        -0.4032 
     80 C         -48.2536  -28.9852    7.7451 C.2       1 UNK         0.5000 
     81 O         -48.4922  -30.1273    7.3463 O.2       1 UNK        -0.5238 
     82 H82       -45.6522  -26.5628   11.1612 H         1 UNK         0.0889 
     83 H83       -47.0056  -26.4616   12.2872 H         1 UNK         0.0889 
     84 H84       -47.0290  -25.5206   10.7901 H         1 UNK         0.0889 
     85 H85       -48.5515  -26.4177    9.3881 H         1 UNK         0.3028 
     86 H86       -49.2960  -29.2287    9.5760 H         1 UNK         0.0864 
     87 H87       -51.0870  -27.5831    9.2802 H         1 UNK         0.0720 
     88 H88       -51.0436  -28.7234    7.9685 H         1 UNK         0.0720 
     89 H89       -52.2700  -27.6784    6.1879 H         1 UNK         0.0814 
     90 H90       -52.0203  -26.1023    5.4860 H         1 UNK         0.0814 
     91 H91       -52.7635  -24.0321    6.6808 H         1 UNK         0.1469 
     92 H92       -55.8597  -24.5075    9.6111 H         1 UNK         0.1381 
     93 H93       -53.7693  -27.9418    8.1198 H         1 UNK         0.1206 
     94 H94       -55.8250  -28.2336    9.4128 H         1 UNK         0.0813 
     95 H95       -56.8287  -26.8523    9.7610 H         1 UNK         0.0813 
     96 H96       -53.0301  -27.9730   11.9544 H         1 UNK         0.0638 
     97 H97       -53.6278  -28.6434   10.4709 H         1 UNK         0.0638 
     98 H98       -55.0767  -30.2138   11.6860 H         1 UNK         0.0568 
     99 H99       -51.9864  -32.1959   13.0947 H         1 UNK         0.3450 
    100 H100      -53.1759  -31.3977   14.0934 H         1 UNK         0.3450 
    101 H101      -54.0155  -29.0254   14.2078 H         1 UNK         0.2987 
    102 H102      -56.4997  -28.7894   15.7030 H         1 UNK         0.0766 
    103 H103      -57.9370  -30.7923   15.8522 H         1 UNK         0.0798 
    104 H104      -57.1546  -30.5136   17.3972 H         1 UNK         0.0798 
    105 H105      -56.5687  -31.7879   16.3285 H         1 UNK         0.0798 
    106 H106      -54.6945  -28.7198   16.9497 H         1 UNK         0.3198 
    107 H107      -52.8895  -30.5156   18.5873 H         1 UNK         0.0843 
    108 H108      -51.0568  -30.4376   16.1254 H         1 UNK         0.0831 
    109 H109      -51.3580  -31.8309   17.1558 H         1 UNK         0.0831 
    110 H110      -50.4946  -30.4441   17.7973 H         1 UNK         0.0831 
    111 H111      -52.3012  -28.2433   16.7428 H         1 UNK         0.3133 
    112 H112      -53.4472  -25.8927   19.0638 H         1 UNK         0.0566 
    113 H113      -51.2649  -24.7212   18.8872 H         1 UNK         0.0814 
    114 H114      -50.4724  -26.2126   18.3786 H         1 UNK         0.0814 
    115 H115      -51.1310  -26.0695   20.0030 H         1 UNK         0.0814 
    116 H116      -52.0513  -25.5711   16.5915 H         1 UNK         0.3091 
    117 H117      -54.5651  -26.6109   14.3696 H         1 UNK         0.0702 
    118 H118      -54.5319  -24.3421   13.4415 H         1 UNK         0.0785 
    119 H119      -53.7660  -23.7020   14.8959 H         1 UNK         0.0785 
    120 H120      -55.4151  -24.3158   14.9573 H         1 UNK         0.0785 
    121 H121      -52.1748  -25.2629   13.7850 H         1 UNK         0.2998 
    122 H122      -49.7796  -27.5001   14.6564 H         1 UNK         0.0697 
    123 H123      -49.1698  -28.5239   12.5694 H         1 UNK         0.0825 
    124 H124      -50.6738  -28.0442   11.7823 H         1 UNK         0.0825 
    125 H125      -50.6716  -29.2640   13.0502 H         1 UNK         0.0825 
    126 H126      -49.9436  -25.8245   12.2833 H         1 UNK         0.3029 
    127 H127      -49.7786  -22.7682   13.8876 H         1 UNK         0.0897 
    128 H128      -47.2761  -24.0051   12.6244 H         1 UNK         0.0792 
    129 H129      -47.3626  -23.3207   14.2395 H         1 UNK         0.0792 
    130 H130      -47.5993  -22.2880   12.8404 H         1 UNK         0.0792 
    131 H131      -49.2548  -23.1530   11.2015 H         1 UNK         0.3086 
    132 H132      -52.3307  -24.1662    9.9985 H         1 UNK         0.0583 
    133 H133      -53.2807  -22.0137   10.6762 H         1 UNK         0.1020 
    134 H134      -51.7877  -21.1828   10.3378 H         1 UNK         0.1020 
    135 H135      -55.1805  -22.3023    9.0246 H         1 UNK         0.0694 
    136 H136      -55.0483  -22.2890    7.2822 H         1 UNK         0.0694 
    137 H137      -50.8349  -24.2604    8.4534 H         1 UNK         0.2989 
    138 H138      -49.1064  -24.0201    7.1441 H         1 UNK         0.1055 
    139 H139      -49.0468  -20.9687    6.8696 H         1 UNK         0.0806 
    140 H140      -50.3747  -22.0192    6.3983 H         1 UNK         0.0806 
    141 H141      -48.8385  -22.1273    5.5553 H         1 UNK         0.0806 
    142 H142      -46.9472  -22.0689    7.5619 H         1 UNK         0.3061 
    143 H143      -44.8713  -22.7804    7.5829 H         1 UNK         0.0734 
    144 H144      -44.6684  -24.8992    9.7920 H         1 UNK         0.0832 
    145 H145      -43.4816  -23.6514    9.4279 H         1 UNK         0.0832 
    146 H146      -45.0604  -23.2052   10.0565 H         1 UNK         0.0832 
    147 H147      -44.3354  -25.7026    7.5024 H         1 UNK         0.3156 
    148 H148      -44.1752  -25.7842    3.9817 H         1 UNK         0.0589 
    149 H149      -41.9264  -26.2498    6.0180 H         1 UNK         0.0808 
    150 H150      -41.8216  -25.2185    4.5986 H         1 UNK         0.0808 
    151 H151      -42.0243  -26.9506    4.4017 H         1 UNK         0.0808 
    152 H152      -43.8870  -27.7921    6.0008 H         1 UNK         0.3098 
    153 H153      -46.8324  -29.2131    5.4737 H         1 UNK         0.0720 
    154 H154      -44.4738  -29.8186    6.1079 H         1 UNK         0.0791 
    155 H155      -45.6195  -30.4095    7.2888 H         1 UNK         0.0791 
    156 H156      -44.6677  -28.9792    7.6520 H         1 UNK         0.0791 
    157 H157      -47.1936  -27.2581    7.5797 H         1 UNK         0.3028 
@<TRIPOS>BOND
     1    1    2 1    
     2    1   82 1    
     3    1   83 1    
     4    1   84 1    
     5    2    3 2    
     6    2    4 am   BACKBONE|DICT|INTERRES
     7    4    5 1    
     8    4   85 1    
     9    5    6 1    
    10    5   80 1    
    11    5   86 1    
    12    6    7 1    
    13    6   87 1    
    14    6   88 1    
    15    7    8 1    
    16    8    9 1    
    17    8   89 1    
    18    8   90 1    
    19    9   10 ar   
    20    9   14 ar   
    21   10   11 ar   
    22   10   91 1    
    23   11   12 ar   
    24   11   58 1    
    25   12   13 ar   
    26   12   92 1    
    27   13   14 ar   
    28   13   15 1    
    29   14   93 1    
    30   15   16 1    
    31   15   94 1    
    32   15   95 1    
    33   16   17 1    
    34   17   18 1    
    35   17   96 1    
    36   17   97 1    
    37   18   19 1    
    38   18   22 1    
    39   18   98 1    
    40   19   20 am   BACKBONE|DICT|INTERRES
    41   19   21 2    
    42   20   99 1    
    43   20  100 1    
    44   22   23 am   BACKBONE|DICT|INTERRES
    45   22  101 1    
    46   23   24 2    
    47   23   25 1    
    48   25   26 1    
    49   25   27 1    
    50   25  102 1    
    51   26  103 1    
    52   26  104 1    
    53   26  105 1    
    54   27   28 am   BACKBONE|DICT|INTERRES
    55   27  106 1    
    56   28   29 2    
    57   28   30 1    
    58   30   31 1    
    59   30   32 1    
    60   30  107 1    
    61   31  108 1    
    62   31  109 1    
    63   31  110 1    
    64   32   33 am   BACKBONE|DICT|INTERRES
    65   32  111 1    
    66   33   34 2    
    67   33   35 1    
    68   35   36 1    
    69   35   37 1    
    70   35  112 1    
    71   36  113 1    
    72   36  114 1    
    73   36  115 1    
    74   37   38 am   BACKBONE|DICT|INTERRES
    75   37  116 1    
    76   38   39 2    
    77   38   40 1    
    78   40   41 1    
    79   40   42 1    
    80   40  117 1    
    81   41  118 1    
    82   41  119 1    
    83   41  120 1    
    84   42   43 am   BACKBONE|DICT|INTERRES
    85   42  121 1    
    86   43   44 2    
    87   43   45 1    
    88   45   46 1    
    89   45   47 1    
    90   45  122 1    
    91   46  123 1    
    92   46  124 1    
    93   46  125 1    
    94   47   48 am   BACKBONE|DICT|INTERRES
    95   47  126 1    
    96   48   49 2    
    97   48   50 1    
    98   50   51 1    
    99   50   52 1    
   100   50  127 1    
   101   51  128 1    
   102   51  129 1    
   103   51  130 1    
   104   52   53 am   BACKBONE|DICT|INTERRES
   105   52  131 1    
   106   53   54 2    
   107   53   55 1    
   108   55   56 1    
   109   55   59 1    
   110   55  132 1    
   111   56   57 1    
   112   56  133 1    
   113   56  134 1    
   114   57   58 1    
   115   58  135 1    
   116   58  136 1    
   117   59   60 am   BACKBONE|DICT|INTERRES
   118   59  137 1    
   119   60   61 2    
   120   60   62 1    
   121   62   63 1    
   122   62   64 1    
   123   62  138 1    
   124   63  139 1    
   125   63  140 1    
   126   63  141 1    
   127   64   65 am   BACKBONE|DICT|INTERRES
   128   64  142 1    
   129   65   66 2    
   130   65   67 1    
   131   67   68 1    
   132   67   69 1    
   133   67  143 1    
   134   68  144 1    
   135   68  145 1    
   136   68  146 1    
   137   69   70 am   BACKBONE|DICT|INTERRES
   138   69  147 1    
   139   70   71 2    
   140   70   72 1    
   141   72   73 1    
   142   72   74 1    
   143   72  148 1    
   144   73  149 1    
   145   73  150 1    
   146   73  151 1    
   147   74   75 am   BACKBONE|DICT|INTERRES
   148   74  152 1    
   149   75   76 2    
   150   75   77 1    
   151   77   78 1    
   152   77   79 1    
   153   77  153 1    
   154   78  154 1    
   155   78  155 1    
   156   78  156 1    
   157   79   80 am   BACKBONE|DICT|INTERRES
   158   79  157 1    
   159   80   81 2    
@<TRIPOS>SUBSTRUCTURE
     1 UNK         1 GROUP             0       ****    0 ROOT    
