@<TRIPOS>MOLECULE
3R207
157   159    1
SMALL
USER_CHARGES


@<TRIPOS>ATOM
      1 CA        -45.1672  -29.4011    6.8738 C.3       0 UNK        -0.1975 
      2 C         -46.2429  -28.3772    6.5475 C.2       0 UNK         0.4852 
      3 O         -46.2554  -27.2968    7.1375 O.2       0 UNK        -0.5216 
      4 N         -47.1357  -28.6971    5.5998 N.am      1 UNK        -0.4461 
      5 CA        -48.2835  -27.8754    5.1803 C.3       1 UNK         0.0864 
      6 C6        -49.3834  -27.7701    6.2739 C.3       14 UNK        -0.0898 
      7 S7        -49.9593  -29.4187    6.8201 S.3       14 UNK        -0.2598 
      8 C8        -51.7203  -29.4024    6.3629 C.3       14 UNK         0.0286 
      9 C9        -52.5763  -28.8161    7.4756 C.ar      14 UNK        -0.0844 
     10 C10       -52.7499  -27.4347    7.5781 C.ar      14 UNK        -0.0881 
     11 C11       -53.5265  -26.8847    8.6030 C.ar      14 UNK        -0.0643 
     12 C12       -54.1591  -27.7350    9.5165 C.ar      14 UNK        -0.0930 
     13 C13       -54.0191  -29.1229    9.4048 C.ar      14 UNK        -0.0827 
     14 C14       -53.2138  -29.6558    8.3933 C.ar      14 UNK        -0.1249 
     15 C15       -54.7811  -30.0542   10.3348 C.3       14 UNK         0.0141 
     16 S16       -53.8446  -30.4393   11.8460 S.3       14 UNK        -0.2313 
     17 C17       -54.9473  -31.6914   12.5985 C.3       14 UNK        -0.0915 
     18 CA        -55.7999  -31.1706   13.7875 C.3       13 UNK         0.0968 
     19 C         -54.9798  -31.0690   15.1076 C.2       13 UNK         0.5732 
     20 N         -54.7852  -29.8890   15.6839 N.am      13 UNK        -0.7310 
     21 O         -54.5313  -32.0873   15.6289 O.2       13 UNK        -0.5035 
     22 N         -56.5335  -29.9480   13.4330 N.am      13 UNK        -0.4233 
     23 C         -57.6746  -29.5434   13.9986 C.2       13 UNK         0.4989 
     24 O         -58.3277  -30.2119   14.8022 O.2       13 UNK        -0.4996 
     25 CA        -58.1341  -28.1187   13.6369 C.3       12 UNK         0.0216 
     26 CB        -59.6548  -28.0520   13.4091 C.3       12 UNK        -0.1964 
     27 N         -57.7578  -27.1660   14.6852 N.am      12 UNK        -0.4276 
     28 C         -56.4988  -26.8777   15.0381 C.2       12 UNK         0.5020 
     29 O         -55.5035  -27.3325   14.4626 O.2       12 UNK        -0.5489 
     30 CA        -56.3117  -25.9694   16.2589 C.3       11 UNK         0.0294 
     31 CB        -56.7169  -26.7112   17.5500 C.3       11 UNK        -0.2019 
     32 N         -54.9005  -25.6051   16.3000 N.am      11 UNK        -0.4493 
     33 C         -54.2953  -24.7328   17.1099 C.2       11 UNK         0.4932 
     34 O         -54.8961  -24.0442   17.9363 O.2       11 UNK        -0.5029 
     35 CA        -52.7667  -24.5783   16.9596 C.3       10 UNK         0.0280 
     36 CB        -52.0590  -24.4121   18.3204 C.3       10 UNK        -0.1976 
     37 N         -52.1120  -25.6250   16.1607 N.am      10 UNK        -0.4242 
     38 C         -52.0153  -26.9380   16.4279 C.2       10 UNK         0.5072 
     39 O         -52.5399  -27.4931   17.3939 O.2       10 UNK        -0.5224 
     40 CA        -51.1629  -27.7701   15.4530 C.3       9 UNK         0.0343 
     41 CB        -51.9295  -28.0546   14.1506 C.3       9 UNK        -0.2003 
     42 N         -49.8903  -27.1221   15.1310 N.am      9 UNK        -0.4272 
     43 C         -48.9090  -26.8595   16.0076 C.2       9 UNK         0.4988 
     44 O         -48.9213  -27.2154   17.1864 O.2       9 UNK        -0.5108 
     45 CA        -47.7182  -26.0422   15.4821 C.3       8 UNK         0.0248 
     46 CB        -46.6973  -26.9461   14.7707 C.3       8 UNK        -0.2001 
     47 N         -48.1589  -24.9782   14.5777 N.am      8 UNK        -0.4140 
     48 C         -48.7054  -23.8224   14.9817 C.2       8 UNK         0.5028 
     49 O         -48.8097  -23.4890   16.1623 O.2       8 UNK        -0.5428 
     50 CA        -49.2350  -22.8775   13.8892 C.3       7 UNK         0.0264 
     51 CB        -48.1456  -21.8799   13.4647 C.3       7 UNK        -0.1988 
     52 N         -49.7319  -23.5817   12.7048 N.am      7 UNK        -0.4454 
     53 C         -50.8614  -24.3089   12.6700 C.2       7 UNK         0.5027 
     54 O         -51.6064  -24.4580   13.6379 O.2       7 UNK        -0.5083 
     55 CA        -51.2013  -25.0036   11.3314 C.3       6 UNK         0.0844 
     56 C56       -51.9556  -23.9883   10.4307 C.3       14 UNK        -0.0967 
     57 S57       -52.1349  -24.4789    8.6837 S.3       14 UNK        -0.2604 
     58 C58       -53.7219  -25.3762    8.6786 C.3       14 UNK         0.0134 
     59 N         -50.0146  -25.5672   10.6789 N.am      6 UNK        -0.4116 
     60 C         -49.0818  -26.3496   11.2414 C.2       5 UNK         0.5034 
     61 O         -49.1915  -26.8352   12.3668 O.2       5 UNK        -0.5045 
     62 CA        -47.7629  -26.5614   10.4699 C.3       5 UNK         0.0224 
     63 CB        -47.6456  -28.0207   10.0043 C.3       5 UNK        -0.1978 
     64 N         -47.5409  -25.6493    9.3347 N.am      5 UNK        -0.4737 
     65 C         -47.5380  -24.3071    9.4031 C.2       4 UNK         0.5027 
     66 O         -47.6796  -23.6809   10.4567 O.2       4 UNK        -0.5211 
     67 CA        -47.4408  -23.5533    8.0660 C.3       4 UNK         0.0297 
     68 CB        -47.3467  -22.0214    8.2348 C.3       4 UNK        -0.1993 
     69 N         -46.3768  -24.0665    7.2013 N.am      4 UNK        -0.4486 
     70 C         -45.0515  -24.0166    7.4125 C.2       3 UNK         0.4961 
     71 O         -44.5335  -23.5012    8.4038 O.2       3 UNK        -0.5105 
     72 CA        -44.1344  -24.6366    6.3379 C.3       3 UNK         0.0299 
     73 CB        -43.2036  -25.6992    6.9492 C.3       3 UNK        -0.1972 
     74 N         -44.8848  -25.2355    5.2306 N.am      3 UNK        -0.4305 
     75 C         -45.3086  -24.5784    4.1410 C.2       2 UNK         0.5006 
     76 O         -45.0411  -23.3991    3.9090 O.2       2 UNK        -0.5106 
     77 CA        -46.1939  -25.3524    3.1436 C.3       2 UNK         0.0296 
     78 CB        -45.3688  -25.7856    1.9205 C.3       2 UNK        -0.2002 
     79 N         -46.8557  -26.5300    3.7168 N.am      2 UNK        -0.4032 
     80 C         -47.8175  -26.4986    4.6521 C.2       1 UNK         0.5000 
     81 O         -48.2624  -25.4538    5.1332 O.2       1 UNK        -0.5238 
     82 H82       -45.2077  -29.6596    7.9313 H         1 UNK         0.0889 
     83 H83       -44.1809  -28.9901    6.6608 H         1 UNK         0.0889 
     84 H84       -45.2872  -30.3171    6.2959 H         1 UNK         0.0889 
     85 H85       -47.0708  -29.6016    5.1535 H         1 UNK         0.3028 
     86 H86       -48.7284  -28.3839    4.3232 H         1 UNK         0.0864 
     87 H87       -50.2282  -27.1935    5.8964 H         1 UNK         0.0720 
     88 H88       -49.0162  -27.2271    7.1455 H         1 UNK         0.0720 
     89 H89       -52.0334  -30.4271    6.1566 H         1 UNK         0.0814 
     90 H90       -51.8679  -28.8522    5.4324 H         1 UNK         0.0814 
     91 H91       -52.2771  -26.7793    6.8607 H         1 UNK         0.1469 
     92 H92       -54.7812  -27.3207   10.2982 H         1 UNK         0.1381 
     93 H93       -53.0977  -30.7280    8.3099 H         1 UNK         0.1206 
     94 H94       -55.7405  -29.6096   10.6027 H         1 UNK         0.0813 
     95 H95       -55.0136  -30.9818    9.8090 H         1 UNK         0.0813 
     96 H96       -55.6146  -32.0840   11.8301 H         1 UNK         0.0638 
     97 H97       -54.3377  -32.5442   12.9031 H         1 UNK         0.0638 
     98 H98       -56.5457  -31.9427   13.9868 H         1 UNK         0.0568 
     99 H99       -55.1042  -29.0381   15.2321 H         1 UNK         0.3450 
    100 H100      -54.2589  -29.8382   16.5411 H         1 UNK         0.3450 
    101 H101      -56.0180  -29.2900   12.8665 H         1 UNK         0.2987 
    102 H102      -57.6431  -27.8161   12.7092 H         1 UNK         0.0766 
    103 H103      -59.9634  -28.7573   12.6363 H         1 UNK         0.0798 
    104 H104      -59.9639  -27.0591   13.0815 H         1 UNK         0.0798 
    105 H105      -60.2136  -28.2958   14.3138 H         1 UNK         0.0798 
    106 H106      -58.5142  -26.7743   15.2279 H         1 UNK         0.3198 
    107 H107      -56.9126  -25.0671   16.1307 H         1 UNK         0.0843 
    108 H108      -56.1110  -27.6056   17.7035 H         1 UNK         0.0831 
    109 H109      -57.7605  -27.0258   17.5187 H         1 UNK         0.0831 
    110 H110      -56.6046  -26.0792   18.4306 H         1 UNK         0.0831 
    111 H111      -54.3469  -26.1141   15.6194 H         1 UNK         0.3133 
    112 H112      -52.6179  -23.6535   16.4005 H         1 UNK         0.0566 
    113 H113      -50.9853  -24.2714   18.1920 H         1 UNK         0.0814 
    114 H114      -52.2097  -25.2800   18.9630 H         1 UNK         0.0814 
    115 H115      -52.4363  -23.5408   18.8570 H         1 UNK         0.0814 
    116 H116      -51.7142  -25.2924   15.2838 H         1 UNK         0.3091 
    117 H117      -50.9384  -28.7246   15.9334 H         1 UNK         0.0702 
    118 H118      -51.3467  -28.6796   13.4736 H         1 UNK         0.0785 
    119 H119      -52.1866  -27.1390   13.6190 H         1 UNK         0.0785 
    120 H120      -52.8617  -28.5805   14.3501 H         1 UNK         0.0785 
    121 H121      -49.7458  -26.8647   14.1579 H         1 UNK         0.2998 
    122 H122      -47.2202  -25.5852   16.3402 H         1 UNK         0.0697 
    123 H123      -47.1303  -27.4589   13.9116 H         1 UNK         0.0825 
    124 H124      -46.3223  -27.7136   15.4492 H         1 UNK         0.0825 
    125 H125      -45.8368  -26.3750   14.4220 H         1 UNK         0.0825 
    126 H126      -48.1535  -25.1895   13.5899 H         1 UNK         0.3029 
    127 H127      -50.0654  -22.3134   14.3202 H         1 UNK         0.0897 
    128 H128      -47.2936  -22.3834   13.0055 H         1 UNK         0.0792 
    129 H129      -47.7715  -21.3205   14.3233 H         1 UNK         0.0792 
    130 H130      -48.5301  -21.1539   12.7479 H         1 UNK         0.0792 
    131 H131      -49.1495  -23.5351   11.8725 H         1 UNK         0.3086 
    132 H132      -51.8695  -25.8402   11.5434 H         1 UNK         0.0583 
    133 H133      -52.9388  -23.7683   10.8512 H         1 UNK         0.1020 
    134 H134      -51.4301  -23.0306   10.4125 H         1 UNK         0.1020 
    135 H135      -54.3189  -25.1001    9.5487 H         1 UNK         0.0694 
    136 H136      -54.2938  -25.0602    7.8052 H         1 UNK         0.0694 
    137 H137      -49.8475  -25.2430    9.7383 H         1 UNK         0.2989 
    138 H138      -46.9603  -26.3738   11.1860 H         1 UNK         0.1055 
    139 H139      -48.3662  -28.2558    9.2214 H         1 UNK         0.0806 
    140 H140      -46.6473  -28.2335    9.6238 H         1 UNK         0.0806 
    141 H141      -47.8243  -28.7131   10.8284 H         1 UNK         0.0806 
    142 H142      -47.3297  -26.0888    8.4431 H         1 UNK         0.3061 
    143 H143      -48.3742  -23.7608    7.5399 H         1 UNK         0.0734 
    144 H144      -46.4706  -21.7277    8.8135 H         1 UNK         0.0832 
    145 H145      -47.2977  -21.5174    7.2697 H         1 UNK         0.0832 
    146 H146      -48.2218  -21.6343    8.7582 H         1 UNK         0.0832 
    147 H147      -46.7034  -24.5518    6.3735 H         1 UNK         0.3156 
    148 H148      -43.5074  -23.8319    5.9487 H         1 UNK         0.0589 
    149 H149      -42.5613  -26.1500    6.1926 H         1 UNK         0.0808 
    150 H150      -42.5509  -25.2569    7.7029 H         1 UNK         0.0808 
    151 H151      -43.7621  -26.4974    7.4376 H         1 UNK         0.0808 
    152 H152      -45.1924  -26.1876    5.3733 H         1 UNK         0.3098 
    153 H153      -46.9724  -24.6657    2.8042 H         1 UNK         0.0720 
    154 H154      -44.8890  -24.9267    1.4488 H         1 UNK         0.0791 
    155 H155      -45.9964  -26.2576    1.1642 H         1 UNK         0.0791 
    156 H156      -44.5811  -26.4894    2.1925 H         1 UNK         0.0791 
    157 H157      -46.5318  -27.4312    3.3949 H         1 UNK         0.3028 
@<TRIPOS>BOND
     1    1    2 1    
     2    1   82 1    
     3    1   83 1    
     4    1   84 1    
     5    2    3 2    
     6    2    4 am   BACKBONE|DICT|INTERRES
     7    4    5 1    
     8    4   85 1    
     9    5    6 1    
    10    5   80 1    
    11    5   86 1    
    12    6    7 1    
    13    6   87 1    
    14    6   88 1    
    15    7    8 1    
    16    8    9 1    
    17    8   89 1    
    18    8   90 1    
    19    9   10 ar   
    20    9   14 ar   
    21   10   11 ar   
    22   10   91 1    
    23   11   12 ar   
    24   11   58 1    
    25   12   13 ar   
    26   12   92 1    
    27   13   14 ar   
    28   13   15 1    
    29   14   93 1    
    30   15   16 1    
    31   15   94 1    
    32   15   95 1    
    33   16   17 1    
    34   17   18 1    
    35   17   96 1    
    36   17   97 1    
    37   18   19 1    
    38   18   22 1    
    39   18   98 1    
    40   19   20 am   BACKBONE|DICT|INTERRES
    41   19   21 2    
    42   20   99 1    
    43   20  100 1    
    44   22   23 am   BACKBONE|DICT|INTERRES
    45   22  101 1    
    46   23   24 2    
    47   23   25 1    
    48   25   26 1    
    49   25   27 1    
    50   25  102 1    
    51   26  103 1    
    52   26  104 1    
    53   26  105 1    
    54   27   28 am   BACKBONE|DICT|INTERRES
    55   27  106 1    
    56   28   29 2    
    57   28   30 1    
    58   30   31 1    
    59   30   32 1    
    60   30  107 1    
    61   31  108 1    
    62   31  109 1    
    63   31  110 1    
    64   32   33 am   BACKBONE|DICT|INTERRES
    65   32  111 1    
    66   33   34 2    
    67   33   35 1    
    68   35   36 1    
    69   35   37 1    
    70   35  112 1    
    71   36  113 1    
    72   36  114 1    
    73   36  115 1    
    74   37   38 am   BACKBONE|DICT|INTERRES
    75   37  116 1    
    76   38   39 2    
    77   38   40 1    
    78   40   41 1    
    79   40   42 1    
    80   40  117 1    
    81   41  118 1    
    82   41  119 1    
    83   41  120 1    
    84   42   43 am   BACKBONE|DICT|INTERRES
    85   42  121 1    
    86   43   44 2    
    87   43   45 1    
    88   45   46 1    
    89   45   47 1    
    90   45  122 1    
    91   46  123 1    
    92   46  124 1    
    93   46  125 1    
    94   47   48 am   BACKBONE|DICT|INTERRES
    95   47  126 1    
    96   48   49 2    
    97   48   50 1    
    98   50   51 1    
    99   50   52 1    
   100   50  127 1    
   101   51  128 1    
   102   51  129 1    
   103   51  130 1    
   104   52   53 am   BACKBONE|DICT|INTERRES
   105   52  131 1    
   106   53   54 2    
   107   53   55 1    
   108   55   56 1    
   109   55   59 1    
   110   55  132 1    
   111   56   57 1    
   112   56  133 1    
   113   56  134 1    
   114   57   58 1    
   115   58  135 1    
   116   58  136 1    
   117   59   60 am   BACKBONE|DICT|INTERRES
   118   59  137 1    
   119   60   61 2    
   120   60   62 1    
   121   62   63 1    
   122   62   64 1    
   123   62  138 1    
   124   63  139 1    
   125   63  140 1    
   126   63  141 1    
   127   64   65 am   BACKBONE|DICT|INTERRES
   128   64  142 1    
   129   65   66 2    
   130   65   67 1    
   131   67   68 1    
   132   67   69 1    
   133   67  143 1    
   134   68  144 1    
   135   68  145 1    
   136   68  146 1    
   137   69   70 am   BACKBONE|DICT|INTERRES
   138   69  147 1    
   139   70   71 2    
   140   70   72 1    
   141   72   73 1    
   142   72   74 1    
   143   72  148 1    
   144   73  149 1    
   145   73  150 1    
   146   73  151 1    
   147   74   75 am   BACKBONE|DICT|INTERRES
   148   74  152 1    
   149   75   76 2    
   150   75   77 1    
   151   77   78 1    
   152   77   79 1    
   153   77  153 1    
   154   78  154 1    
   155   78  155 1    
   156   78  156 1    
   157   79   80 am   BACKBONE|DICT|INTERRES
   158   79  157 1    
   159   80   81 2    
@<TRIPOS>SUBSTRUCTURE
     1 UNK         1 GROUP             0       ****    0 ROOT    
