@<TRIPOS>MOLECULE
3R207
157   159    1
SMALL
USER_CHARGES


@<TRIPOS>ATOM
      1 CA        -45.3186  -28.2040    4.2931 C.3       0 UNK        -0.1975 
      2 C         -46.7989  -27.8559    4.3473 C.2       0 UNK         0.4852 
      3 O         -47.3358  -27.3142    3.3796 O.2       0 UNK        -0.5216 
      4 N         -47.4620  -28.1712    5.4671 N.am      1 UNK        -0.4461 
      5 CA        -48.8706  -27.8565    5.7296 C.3       1 UNK         0.0864 
      6 C6        -49.4176  -28.6526    6.9383 C.3       14 UNK        -0.0898 
      7 S7        -49.3169  -30.4551    6.6604 S.3       14 UNK        -0.2598 
      8 C8        -50.9681  -31.0249    7.1846 C.3       14 UNK         0.0286 
      9 C9        -51.2135  -30.8000    8.6713 C.ar      14 UNK        -0.0844 
     10 C10       -50.3324  -31.3274    9.6196 C.ar      14 UNK        -0.0881 
     11 C11       -50.5267  -31.0938   10.9833 C.ar      14 UNK        -0.0643 
     12 C12       -51.6369  -30.3501   11.3994 C.ar      14 UNK        -0.0930 
     13 C13       -52.5430  -29.8373   10.4626 C.ar      14 UNK        -0.0827 
     14 C14       -52.3225  -30.0656    9.1003 C.ar      14 UNK        -0.1249 
     15 C15       -53.7383  -29.0019   10.9055 C.3       14 UNK         0.0141 
     16 S16       -54.8874  -29.9419   11.9607 S.3       14 UNK        -0.2313 
     17 C17       -56.5073  -29.2531   11.4645 C.3       14 UNK        -0.0915 
     18 CA        -56.9909  -28.0041   12.2654 C.3       13 UNK         0.0968 
     19 C         -57.4550  -28.2491   13.7248 C.2       13 UNK         0.5732 
     20 N         -57.2002  -29.4145   14.3041 N.am      13 UNK        -0.7310 
     21 O         -58.1111  -27.3955   14.3177 O.2       13 UNK        -0.5035 
     22 N         -56.0688  -26.8649   12.1897 N.am      13 UNK        -0.4233 
     23 C         -55.9074  -26.0958   11.1049 C.2       13 UNK         0.4989 
     24 O         -56.5483  -26.2582   10.0650 O.2       13 UNK        -0.4996 
     25 CA        -54.8265  -24.9950   11.1392 C.3       12 UNK         0.0216 
     26 CB        -55.2451  -23.7295   10.3603 C.3       12 UNK        -0.1964 
     27 N         -54.3336  -24.6520   12.4766 N.am      12 UNK        -0.4276 
     28 C         -55.0031  -24.0694   13.4802 C.2       12 UNK         0.5020 
     29 O         -56.1844  -23.7242   13.4123 O.2       12 UNK        -0.5489 
     30 CA        -54.2058  -23.8603   14.7847 C.3       11 UNK         0.0294 
     31 CB        -55.0916  -23.3997   15.9615 C.3       11 UNK        -0.2019 
     32 N         -53.4101  -25.0330   15.1754 N.am      11 UNK        -0.4493 
     33 C         -53.8578  -26.2822   15.3832 C.2       11 UNK         0.4932 
     34 O         -55.0308  -26.6136   15.2208 O.2       11 UNK        -0.5029 
     35 CA        -52.8498  -27.3647   15.8187 C.3       10 UNK         0.0280 
     36 CB        -52.8745  -28.5487   14.8378 C.3       10 UNK        -0.1976 
     37 N         -51.4729  -26.8825   15.9484 N.am      10 UNK        -0.4242 
     38 C         -50.9895  -26.1889   16.9881 C.2       10 UNK         0.5072 
     39 O         -51.6434  -25.9141   17.9945 O.2       10 UNK        -0.5224 
     40 CA        -49.5436  -25.6743   16.8609 C.3       9 UNK         0.0343 
     41 CB        -48.5348  -26.7709   17.2384 C.3       9 UNK        -0.2003 
     42 N         -49.2335  -25.1583   15.5234 N.am      9 UNK        -0.4272 
     43 C         -49.8453  -24.1123   14.9451 C.2       9 UNK         0.4988 
     44 O         -50.7308  -23.4478   15.4825 O.2       9 UNK        -0.5108 
     45 CA        -49.4370  -23.7950   13.4999 C.3       8 UNK         0.0248 
     46 CB        -48.0722  -23.0863   13.4621 C.3       8 UNK        -0.2001 
     47 N         -49.4149  -25.0167   12.6921 N.am      8 UNK        -0.4140 
     48 C         -50.5248  -25.6711   12.3157 C.2       8 UNK         0.5028 
     49 O         -51.6621  -25.2406   12.4969 O.2       8 UNK        -0.5428 
     50 CA        -50.3655  -27.0596   11.6823 C.3       7 UNK         0.0264 
     51 CB        -50.5087  -27.0160   10.1546 C.3       7 UNK        -0.1988 
     52 N         -49.1123  -27.7112   12.0548 N.am      7 UNK        -0.4454 
     53 C         -48.8865  -28.2385   13.2684 C.2       7 UNK         0.5027 
     54 O         -49.7229  -28.2361   14.1705 O.2       7 UNK        -0.5083 
     55 CA        -47.4850  -28.8193   13.5529 C.3       6 UNK         0.0844 
     56 C56       -47.4553  -30.3628   13.4331 C.3       14 UNK        -0.0967 
     57 S57       -47.8543  -31.0035   11.7668 S.3       14 UNK        -0.2604 
     58 C58       -49.5442  -31.6632   11.9985 C.3       14 UNK         0.0134 
     59 N         -46.4262  -28.1675   12.7756 N.am      6 UNK        -0.4116 
     60 C         -46.1072  -26.8696   12.8829 C.2       5 UNK         0.5034 
     61 O         -46.6643  -26.1028   13.6714 O.2       5 UNK        -0.5045 
     62 CA        -45.0279  -26.3066   11.9369 C.3       5 UNK         0.0224 
     63 CB        -44.3577  -27.3679   11.0333 C.3       5 UNK        -0.1978 
     64 N         -45.5472  -25.1962   11.1243 N.am      5 UNK        -0.4737 
     65 C         -46.5997  -25.2394   10.2949 C.2       4 UNK         0.5027 
     66 O         -47.2792  -26.2512   10.1076 O.2       4 UNK        -0.5211 
     67 CA        -46.9270  -23.9391    9.5446 C.3       4 UNK         0.0297 
     68 CB        -45.9796  -23.7630    8.3463 C.3       4 UNK        -0.1993 
     69 N         -48.3044  -23.9836    9.0531 N.am      4 UNK        -0.4486 
     70 C         -49.3132  -23.2185    9.4940 C.2       3 UNK         0.4961 
     71 O         -49.1670  -22.3044   10.3059 O.2       3 UNK        -0.5105 
     72 CA        -50.7289  -23.5304    8.9561 C.3       3 UNK         0.0299 
     73 CB        -51.6929  -22.3302    9.0723 C.3       3 UNK        -0.1972 
     74 N         -50.7395  -24.0849    7.5954 N.am      3 UNK        -0.4305 
     75 C         -50.2938  -23.4843    6.4811 C.2       2 UNK         0.5006 
     76 O         -49.8571  -22.3321    6.4510 O.2       2 UNK        -0.5106 
     77 CA        -50.3410  -24.3172    5.1808 C.3       2 UNK         0.0296 
     78 CB        -49.3963  -23.7548    4.0965 C.3       2 UNK        -0.2002 
     79 N         -50.0942  -25.7604    5.3442 N.am      2 UNK        -0.4032 
     80 C         -49.0380  -26.3379    5.9394 C.2       1 UNK         0.5000 
     81 O         -48.2182  -25.7307    6.6321 O.2       1 UNK        -0.5238 
     82 H82       -45.1216  -28.8774    3.4594 H         1 UNK         0.0889 
     83 H83       -44.9803  -28.6895    5.2084 H         1 UNK         0.0889 
     84 H84       -44.7265  -27.3006    4.1498 H         1 UNK         0.0889 
     85 H85       -46.9682  -28.6040    6.2338 H         1 UNK         0.3028 
     86 H86       -49.4431  -28.1448    4.8450 H         1 UNK         0.0864 
     87 H87       -50.4557  -28.3788    7.1356 H         1 UNK         0.0720 
     88 H88       -48.8580  -28.4136    7.8451 H         1 UNK         0.0720 
     89 H89       -51.0575  -32.0907    6.9709 H         1 UNK         0.0814 
     90 H90       -51.7264  -30.5251    6.5797 H         1 UNK         0.0814 
     91 H91       -49.4756  -31.9014    9.2937 H         1 UNK         0.1469 
     92 H92       -51.7975  -30.1671   12.4528 H         1 UNK         0.1381 
     93 H93       -53.0097  -29.6602    8.3703 H         1 UNK         0.1206 
     94 H94       -54.2678  -28.6193   10.0323 H         1 UNK         0.0813 
     95 H95       -53.3928  -28.1255   11.4532 H         1 UNK         0.0813 
     96 H96       -56.4790  -29.0187   10.4000 H         1 UNK         0.0638 
     97 H97       -57.2464  -30.0515   11.5482 H         1 UNK         0.0638 
     98 H98       -57.9121  -27.6855   11.7733 H         1 UNK         0.0568 
     99 H99       -56.6534  -30.1107   13.8208 H         1 UNK         0.3450 
    100 H100      -57.5187  -29.5792   15.2455 H         1 UNK         0.3450 
    101 H101      -55.5745  -26.6474   13.0476 H         1 UNK         0.2987 
    102 H102      -53.9655  -25.4197   10.6210 H         1 UNK         0.0766 
    103 H103      -56.1650  -23.2975   10.7552 H         1 UNK         0.0798 
    104 H104      -54.4711  -22.9636   10.4019 H         1 UNK         0.0798 
    105 H105      -55.4193  -23.9557    9.3077 H         1 UNK         0.0798 
    106 H106      -53.3485  -24.8833   12.6336 H         1 UNK         0.3198 
    107 H107      -53.4905  -23.0627   14.5775 H         1 UNK         0.0843 
    108 H108      -55.6028  -22.4659   15.7245 H         1 UNK         0.0831 
    109 H109      -54.4986  -23.2250   16.8592 H         1 UNK         0.0831 
    110 H110      -55.8575  -24.1379   16.2026 H         1 UNK         0.0831 
    111 H111      -52.4215  -24.8534   15.3043 H         1 UNK         0.3133 
    112 H112      -53.1774  -27.7323   16.7931 H         1 UNK         0.0566 
    113 H113      -52.1780  -29.3318   15.1378 H         1 UNK         0.0814 
    114 H114      -53.8663  -29.0004   14.7907 H         1 UNK         0.0814 
    115 H115      -52.6127  -28.2342   13.8287 H         1 UNK         0.0814 
    116 H116      -50.8324  -27.1460   15.2025 H         1 UNK         0.3091 
    117 H117      -49.4253  -24.8479   17.5649 H         1 UNK         0.0702 
    118 H118      -47.5109  -26.3981   17.2037 H         1 UNK         0.0785 
    119 H119      -48.6012  -27.6314   16.5724 H         1 UNK         0.0785 
    120 H120      -48.7141  -27.1309   18.2524 H         1 UNK         0.0785 
    121 H121      -48.5054  -25.6346   15.0058 H         1 UNK         0.2998 
    122 H122      -50.1795  -23.1172   13.0722 H         1 UNK         0.0697 
    123 H123      -47.2934  -23.6522   13.9719 H         1 UNK         0.0825 
    124 H124      -48.1332  -22.1145   13.9531 H         1 UNK         0.0825 
    125 H125      -47.7403  -22.9085   12.4411 H         1 UNK         0.0825 
    126 H126      -48.5149  -25.4543   12.5437 H         1 UNK         0.3029 
    127 H127      -51.1797  -27.6711   12.0683 H         1 UNK         0.0897 
    128 H128      -50.3742  -28.0076    9.7248 H         1 UNK         0.0792 
    129 H129      -49.7813  -26.3544    9.6899 H         1 UNK         0.0792 
    130 H130      -51.5032  -26.6733    9.8679 H         1 UNK         0.0792 
    131 H131      -48.3677  -27.6950   11.3665 H         1 UNK         0.3086 
    132 H132      -47.2738  -28.5872   14.5991 H         1 UNK         0.0583 
    133 H133      -46.4606  -30.7250   13.6974 H         1 UNK         0.1020 
    134 H134      -48.1177  -30.8072   14.1779 H         1 UNK         0.1020 
    135 H135      -49.5138  -32.7485   11.8935 H         1 UNK         0.0694 
    136 H136      -49.9000  -31.4673   13.0105 H         1 UNK         0.0694 
    137 H137      -45.9614  -28.7336   12.0809 H         1 UNK         0.2989 
    138 H138      -44.2557  -25.8875   12.5842 H         1 UNK         0.1055 
    139 H139      -43.8897  -28.1559   11.6250 H         1 UNK         0.0806 
    140 H140      -43.5695  -26.9196   10.4282 H         1 UNK         0.0806 
    141 H141      -45.0651  -27.8373   10.3482 H         1 UNK         0.0806 
    142 H142      -45.0632  -24.3156   11.2357 H         1 UNK         0.3061 
    143 H143      -46.7880  -23.0982   10.2264 H         1 UNK         0.0734 
    144 H144      -46.2289  -22.8699    7.7730 H         1 UNK         0.0832 
    145 H145      -44.9445  -23.6600    8.6740 H         1 UNK         0.0832 
    146 H146      -46.0222  -24.6165    7.6686 H         1 UNK         0.0832 
    147 H147      -48.4869  -24.7132    8.3697 H         1 UNK         0.3156 
    148 H148      -51.1284  -24.3095    9.6036 H         1 UNK         0.0589 
    149 H149      -51.3198  -21.4571    8.5363 H         1 UNK         0.0808 
    150 H150      -52.6785  -22.5719    8.6754 H         1 UNK         0.0808 
    151 H151      -51.8269  -22.0381   10.1147 H         1 UNK         0.0808 
    152 H152      -51.0770  -25.0326    7.5073 H         1 UNK         0.3098 
    153 H153      -51.3617  -24.2234    4.8071 H         1 UNK         0.0720 
    154 H154      -49.4668  -24.3275    3.1716 H         1 UNK         0.0791 
    155 H155      -48.3556  -23.7755    4.4231 H         1 UNK         0.0791 
    156 H156      -49.6427  -22.7205    3.8529 H         1 UNK         0.0791 
    157 H157      -50.7350  -26.3592    4.8414 H         1 UNK         0.3028 
@<TRIPOS>BOND
     1    1    2 1    
     2    1   82 1    
     3    1   83 1    
     4    1   84 1    
     5    2    3 2    
     6    2    4 am   BACKBONE|DICT|INTERRES
     7    4    5 1    
     8    4   85 1    
     9    5    6 1    
    10    5   80 1    
    11    5   86 1    
    12    6    7 1    
    13    6   87 1    
    14    6   88 1    
    15    7    8 1    
    16    8    9 1    
    17    8   89 1    
    18    8   90 1    
    19    9   10 ar   
    20    9   14 ar   
    21   10   11 ar   
    22   10   91 1    
    23   11   12 ar   
    24   11   58 1    
    25   12   13 ar   
    26   12   92 1    
    27   13   14 ar   
    28   13   15 1    
    29   14   93 1    
    30   15   16 1    
    31   15   94 1    
    32   15   95 1    
    33   16   17 1    
    34   17   18 1    
    35   17   96 1    
    36   17   97 1    
    37   18   19 1    
    38   18   22 1    
    39   18   98 1    
    40   19   20 am   BACKBONE|DICT|INTERRES
    41   19   21 2    
    42   20   99 1    
    43   20  100 1    
    44   22   23 am   BACKBONE|DICT|INTERRES
    45   22  101 1    
    46   23   24 2    
    47   23   25 1    
    48   25   26 1    
    49   25   27 1    
    50   25  102 1    
    51   26  103 1    
    52   26  104 1    
    53   26  105 1    
    54   27   28 am   BACKBONE|DICT|INTERRES
    55   27  106 1    
    56   28   29 2    
    57   28   30 1    
    58   30   31 1    
    59   30   32 1    
    60   30  107 1    
    61   31  108 1    
    62   31  109 1    
    63   31  110 1    
    64   32   33 am   BACKBONE|DICT|INTERRES
    65   32  111 1    
    66   33   34 2    
    67   33   35 1    
    68   35   36 1    
    69   35   37 1    
    70   35  112 1    
    71   36  113 1    
    72   36  114 1    
    73   36  115 1    
    74   37   38 am   BACKBONE|DICT|INTERRES
    75   37  116 1    
    76   38   39 2    
    77   38   40 1    
    78   40   41 1    
    79   40   42 1    
    80   40  117 1    
    81   41  118 1    
    82   41  119 1    
    83   41  120 1    
    84   42   43 am   BACKBONE|DICT|INTERRES
    85   42  121 1    
    86   43   44 2    
    87   43   45 1    
    88   45   46 1    
    89   45   47 1    
    90   45  122 1    
    91   46  123 1    
    92   46  124 1    
    93   46  125 1    
    94   47   48 am   BACKBONE|DICT|INTERRES
    95   47  126 1    
    96   48   49 2    
    97   48   50 1    
    98   50   51 1    
    99   50   52 1    
   100   50  127 1    
   101   51  128 1    
   102   51  129 1    
   103   51  130 1    
   104   52   53 am   BACKBONE|DICT|INTERRES
   105   52  131 1    
   106   53   54 2    
   107   53   55 1    
   108   55   56 1    
   109   55   59 1    
   110   55  132 1    
   111   56   57 1    
   112   56  133 1    
   113   56  134 1    
   114   57   58 1    
   115   58  135 1    
   116   58  136 1    
   117   59   60 am   BACKBONE|DICT|INTERRES
   118   59  137 1    
   119   60   61 2    
   120   60   62 1    
   121   62   63 1    
   122   62   64 1    
   123   62  138 1    
   124   63  139 1    
   125   63  140 1    
   126   63  141 1    
   127   64   65 am   BACKBONE|DICT|INTERRES
   128   64  142 1    
   129   65   66 2    
   130   65   67 1    
   131   67   68 1    
   132   67   69 1    
   133   67  143 1    
   134   68  144 1    
   135   68  145 1    
   136   68  146 1    
   137   69   70 am   BACKBONE|DICT|INTERRES
   138   69  147 1    
   139   70   71 2    
   140   70   72 1    
   141   72   73 1    
   142   72   74 1    
   143   72  148 1    
   144   73  149 1    
   145   73  150 1    
   146   73  151 1    
   147   74   75 am   BACKBONE|DICT|INTERRES
   148   74  152 1    
   149   75   76 2    
   150   75   77 1    
   151   77   78 1    
   152   77   79 1    
   153   77  153 1    
   154   78  154 1    
   155   78  155 1    
   156   78  156 1    
   157   79   80 am   BACKBONE|DICT|INTERRES
   158   79  157 1    
   159   80   81 2    
@<TRIPOS>SUBSTRUCTURE
     1 UNK         1 GROUP             0       ****    0 ROOT    
