@<TRIPOS>MOLECULE
3R207
157   159    1
SMALL
USER_CHARGES


@<TRIPOS>ATOM
      1 CA        -51.4445  -23.8672    2.4850 C.3       0 UNK        -0.1975 
      2 C         -52.3003  -24.2671    3.6777 C.2       0 UNK         0.4852 
      3 O         -53.0473  -23.4396    4.2003 O.2       0 UNK        -0.5216 
      4 N         -52.1925  -25.5282    4.1165 N.am      1 UNK        -0.4461 
      5 CA        -52.9302  -26.0936    5.2550 C.3       1 UNK         0.0864 
      6 C6        -53.1114  -27.6264    5.1059 C.3       14 UNK        -0.0898 
      7 S7        -51.5469  -28.5711    5.0267 S.3       14 UNK        -0.2598 
      8 C8        -52.0455  -30.1745    5.7383 C.3       14 UNK         0.0286 
      9 C9        -52.1275  -30.1268    7.2581 C.ar      14 UNK        -0.0844 
     10 C10       -50.9745  -30.3062    8.0295 C.ar      14 UNK        -0.0881 
     11 C11       -51.0361  -30.2468    9.4260 C.ar      14 UNK        -0.0643 
     12 C12       -52.2636  -30.0060   10.0483 C.ar      14 UNK        -0.0930 
     13 C13       -53.4271  -29.8525    9.2896 C.ar      14 UNK        -0.0827 
     14 C14       -53.3541  -29.9175    7.8959 C.ar      14 UNK        -0.1249 
     15 C15       -54.7573  -29.5821    9.9744 C.3       14 UNK         0.0141 
     16 S16       -55.7637  -31.0854   10.1860 S.3       14 UNK        -0.2313 
     17 C17       -54.8928  -31.9584   11.5333 C.3       14 UNK        -0.0915 
     18 CA        -55.6382  -31.8991   12.9014 C.3       13 UNK         0.0968 
     19 C         -55.0148  -32.8612   13.9609 C.2       13 UNK         0.5732 
     20 N         -55.0219  -32.5273   15.2462 N.am      13 UNK        -0.7310 
     21 O         -54.5494  -33.9475   13.6232 O.2       13 UNK        -0.5035 
     22 N         -55.8803  -30.5258   13.3894 N.am      13 UNK        -0.4233 
     23 C         -54.9443  -29.6213   13.7059 C.2       13 UNK         0.4989 
     24 O         -53.7300  -29.8099   13.6034 O.2       13 UNK        -0.4996 
     25 CA        -55.4507  -28.2811   14.2621 C.3       12 UNK         0.0216 
     26 CB        -55.2855  -28.2357   15.7894 C.3       12 UNK        -0.1964 
     27 N         -54.7101  -27.1727   13.6589 N.am      12 UNK        -0.4276 
     28 C         -54.9596  -26.6854   12.4352 C.2       12 UNK         0.5020 
     29 O         -55.9294  -27.0330   11.7585 O.2       12 UNK        -0.5489 
     30 CA        -53.9598  -25.6624   11.8565 C.3       11 UNK         0.0294 
     31 CB        -54.5970  -24.7548   10.7827 C.3       11 UNK        -0.2019 
     32 N         -53.2709  -24.8646   12.8771 N.am      11 UNK        -0.4493 
     33 C         -53.8302  -24.0116   13.7497 C.2       11 UNK         0.4932 
     34 O         -55.0354  -23.7575   13.7862 O.2       11 UNK        -0.5029 
     35 CA        -52.8767  -23.3339   14.7533 C.3       10 UNK         0.0280 
     36 CB        -53.6131  -22.7301   15.9683 C.3       10 UNK        -0.1976 
     37 N         -51.7778  -24.2012   15.1962 N.am      10 UNK        -0.4242 
     38 C         -51.8780  -25.3815   15.8300 C.2       10 UNK         0.5072 
     39 O         -52.9557  -25.9163   16.0910 O.2       10 UNK        -0.5224 
     40 CA        -50.5800  -26.1193   16.2227 C.3       9 UNK         0.0343 
     41 CB        -50.5693  -27.5408   15.6325 C.3       9 UNK        -0.2003 
     42 N         -49.3519  -25.4292   15.8187 N.am      9 UNK        -0.4272 
     43 C         -48.8262  -24.3516   16.4187 C.2       9 UNK         0.4988 
     44 O         -49.2684  -23.8617   17.4577 O.2       9 UNK        -0.5108 
     45 CA        -47.6458  -23.6679   15.7008 C.3       8 UNK         0.0248 
     46 CB        -46.3114  -24.3087   16.1125 C.3       8 UNK        -0.2001 
     47 N         -47.7777  -23.6842   14.2376 N.am      8 UNK        -0.4140 
     48 C         -48.7837  -23.1082   13.5608 C.2       8 UNK         0.5028 
     49 O         -49.6692  -22.4409   14.0939 O.2       8 UNK        -0.5428 
     50 CA        -48.8657  -23.3799   12.0516 C.3       7 UNK         0.0264 
     51 CB        -47.9432  -22.4384   11.2612 C.3       7 UNK        -0.1988 
     52 N         -48.5607  -24.7774   11.7398 N.am      7 UNK        -0.4454 
     53 C         -49.3901  -25.8027   11.9934 C.2       7 UNK         0.5027 
     54 O         -50.5327  -25.6631   12.4318 O.2       7 UNK        -0.5083 
     55 CA        -48.8386  -27.2210   11.7418 C.3       6 UNK         0.0844 
     56 C56       -49.1811  -27.6892   10.3059 C.3       14 UNK        -0.0967 
     57 S57       -48.4439  -29.3006    9.8693 S.3       14 UNK        -0.2604 
     58 C58       -49.7872  -30.4606   10.2721 C.3       14 UNK         0.0134 
     59 N         -47.4050  -27.2922   12.0436 N.am      6 UNK        -0.4116 
     60 C         -46.8938  -27.2594   13.2817 C.2       5 UNK         0.5034 
     61 O         -47.5812  -27.1736   14.2974 O.2       5 UNK        -0.5045 
     62 CA        -45.3616  -27.2853   13.4196 C.3       5 UNK         0.0224 
     63 CB        -44.8598  -28.7338   13.5248 C.3       5 UNK        -0.1978 
     64 N         -44.6546  -26.6033   12.3324 N.am      5 UNK        -0.4737 
     65 C         -44.7789  -25.3056   12.0224 C.2       4 UNK         0.5027 
     66 O         -45.5132  -24.5303   12.6367 O.2       4 UNK        -0.5211 
     67 CA        -43.9962  -24.7924   10.7937 C.3       4 UNK         0.0297 
     68 CB        -42.9935  -25.8186   10.2181 C.3       4 UNK        -0.1993 
     69 N         -44.8734  -24.3080    9.7171 N.am      4 UNK        -0.4486 
     70 C         -45.9304  -24.9453    9.1951 C.2       3 UNK         0.4961 
     71 O         -46.3654  -26.0236    9.6073 O.2       3 UNK        -0.5105 
     72 CA        -46.6334  -24.2756    8.0111 C.3       3 UNK         0.0299 
     73 CB        -46.0542  -24.8061    6.6847 C.3       3 UNK        -0.1972 
     74 N         -48.0518  -24.5934    8.1406 N.am      3 UNK        -0.4305 
     75 C         -49.0628  -24.1563    7.3874 C.2       2 UNK         0.5006 
     76 O         -48.9380  -23.4283    6.4001 O.2       2 UNK        -0.5106 
     77 CA        -50.4636  -24.5855    7.8315 C.3       2 UNK         0.0296 
     78 CB        -51.1771  -23.4319    8.5609 C.3       2 UNK        -0.2002 
     79 N         -51.2080  -24.9948    6.6475 N.am      2 UNK        -0.4032 
     80 C         -52.3457  -25.7013    6.6340 C.2       1 UNK         0.5000 
     81 O         -52.9390  -26.0475    7.6571 O.2       1 UNK        -0.5238 
     82 H82       -50.7719  -23.0557    2.7616 H         1 UNK         0.0889 
     83 H83       -52.0776  -23.5221    1.6681 H         1 UNK         0.0889 
     84 H84       -50.8414  -24.6978    2.1186 H         1 UNK         0.0889 
     85 H85       -51.5628  -26.1696    3.6536 H         1 UNK         0.3028 
     86 H86       -53.9335  -25.6617    5.2387 H         1 UNK         0.0864 
     87 H87       -53.7306  -28.0037    5.9193 H         1 UNK         0.0720 
     88 H88       -53.6731  -27.8388    4.1950 H         1 UNK         0.0720 
     89 H89       -51.3193  -30.9314    5.4379 H         1 UNK         0.0814 
     90 H90       -52.9994  -30.4861    5.3097 H         1 UNK         0.0814 
     91 H91       -50.0245  -30.4819    7.5433 H         1 UNK         0.1469 
     92 H92       -52.3162  -29.9453   11.1271 H         1 UNK         0.1381 
     93 H93       -54.2545  -29.7949    7.3101 H         1 UNK         0.1206 
     94 H94       -55.3258  -28.8523    9.3959 H         1 UNK         0.0813 
     95 H95       -54.5842  -29.1267   10.9459 H         1 UNK         0.0813 
     96 H96       -53.8753  -31.5855   11.6346 H         1 UNK         0.0638 
     97 H97       -54.7910  -32.9938   11.2042 H         1 UNK         0.0638 
     98 H98       -56.6328  -32.3121   12.7312 H         1 UNK         0.0568 
     99 H99       -54.6279  -33.1634   15.9212 H         1 UNK         0.3450 
    100 H100      -55.4119  -31.6495   15.5464 H         1 UNK         0.3450 
    101 H101      -56.8520  -30.2822   13.5159 H         1 UNK         0.2987 
    102 H102      -56.5115  -28.1665   14.0285 H         1 UNK         0.0766 
    103 H103      -55.6151  -27.2789   16.1954 H         1 UNK         0.0798 
    104 H104      -54.2463  -28.3826   16.0878 H         1 UNK         0.0798 
    105 H105      -55.8773  -29.0145   16.2716 H         1 UNK         0.0798 
    106 H106      -53.9099  -26.8279   14.1744 H         1 UNK         0.3198 
    107 H107      -53.1819  -26.2498   11.3656 H         1 UNK         0.0843 
    108 H108      -53.8972  -23.9973   10.4338 H         1 UNK         0.0831 
    109 H109      -55.4829  -24.2428   11.1594 H         1 UNK         0.0831 
    110 H110      -54.9028  -25.3384    9.9132 H         1 UNK         0.0831 
    111 H111      -52.2646  -25.0159   12.9235 H         1 UNK         0.3133 
    112 H112      -52.4111  -22.5100   14.2113 H         1 UNK         0.0566 
    113 H113      -52.9175  -22.2406   16.6499 H         1 UNK         0.0814 
    114 H114      -54.3385  -21.9788   15.6538 H         1 UNK         0.0814 
    115 H115      -54.1559  -23.4905   16.5308 H         1 UNK         0.0814 
    116 H116      -50.8521  -23.8392   14.9929 H         1 UNK         0.3091 
    117 H117      -50.5806  -26.2055   17.3110 H         1 UNK         0.0702 
    118 H118      -49.6771  -28.0897   15.9342 H         1 UNK         0.0785 
    119 H119      -50.6001  -27.5235   14.5429 H         1 UNK         0.0785 
    120 H120      -51.4311  -28.1171   15.9719 H         1 UNK         0.0785 
    121 H121      -48.8601  -25.8230   15.0229 H         1 UNK         0.2998 
    122 H122      -47.6302  -22.6217   16.0130 H         1 UNK         0.0697 
    123 H123      -45.4682  -23.8339   15.6104 H         1 UNK         0.0825 
    124 H124      -46.1490  -24.2088   17.1865 H         1 UNK         0.0825 
    125 H125      -46.2860  -25.3727   15.8802 H         1 UNK         0.0825 
    126 H126      -47.0441  -24.1534   13.7115 H         1 UNK         0.3029 
    127 H127      -49.8937  -23.1770   11.7435 H         1 UNK         0.0897 
    128 H128      -48.0789  -22.5583   10.1872 H         1 UNK         0.0792 
    129 H129      -48.1626  -21.3958   11.4957 H         1 UNK         0.0792 
    130 H130      -46.8907  -22.6057   11.4894 H         1 UNK         0.0792 
    131 H131      -47.6129  -24.9866   11.4539 H         1 UNK         0.3086 
    132 H132      -49.3522  -27.8931   12.4326 H         1 UNK         0.0583 
    133 H133      -50.2632  -27.7277   10.1661 H         1 UNK         0.1020 
    134 H134      -48.8155  -26.9758    9.5695 H         1 UNK         0.1020 
    135 H135      -49.4288  -31.4788   10.1159 H         1 UNK         0.0694 
    136 H136      -50.0148  -30.3753   11.3360 H         1 UNK         0.0694 
    137 H137      -46.7796  -27.3046   11.2455 H         1 UNK         0.2989 
    138 H138      -45.1096  -26.7693   14.3479 H         1 UNK         0.1055 
    139 H139      -45.3525  -29.2583   14.3450 H         1 UNK         0.0806 
    140 H140      -43.7875  -28.7705   13.7183 H         1 UNK         0.0806 
    141 H141      -45.0575  -29.2980   12.6123 H         1 UNK         0.0806 
    142 H142      -44.0511  -27.1719   11.7560 H         1 UNK         0.3061 
    143 H143      -43.4249  -23.9309   11.1428 H         1 UNK         0.0734 
    144 H144      -43.4934  -26.6959    9.8050 H         1 UNK         0.0832 
    145 H145      -42.4020  -25.3756    9.4167 H         1 UNK         0.0832 
    146 H146      -42.2878  -26.1571   10.9781 H         1 UNK         0.0832 
    147 H147      -44.6251  -23.4071    9.3317 H         1 UNK         0.3156 
    148 H148      -46.5055  -23.1931    8.0714 H         1 UNK         0.0589 
    149 H149      -46.4976  -24.3105    5.8215 H         1 UNK         0.0808 
    150 H150      -44.9783  -24.6346    6.6316 H         1 UNK         0.0808 
    151 H151      -46.2191  -25.8790    6.5761 H         1 UNK         0.0808 
    152 H152      -48.2374  -25.2170    8.9137 H         1 UNK         0.3098 
    153 H153      -50.3873  -25.4421    8.5036 H         1 UNK         0.0720 
    154 H154      -50.6051  -23.1030    9.4283 H         1 UNK         0.0791 
    155 H155      -52.1599  -23.7344    8.9183 H         1 UNK         0.0791 
    156 H156      -51.3110  -22.5674    7.9094 H         1 UNK         0.0791 
    157 H157      -50.7809  -24.7370    5.7674 H         1 UNK         0.3028 
@<TRIPOS>BOND
     1    1    2 1    
     2    1   82 1    
     3    1   83 1    
     4    1   84 1    
     5    2    3 2    
     6    2    4 am   BACKBONE|DICT|INTERRES
     7    4    5 1    
     8    4   85 1    
     9    5    6 1    
    10    5   80 1    
    11    5   86 1    
    12    6    7 1    
    13    6   87 1    
    14    6   88 1    
    15    7    8 1    
    16    8    9 1    
    17    8   89 1    
    18    8   90 1    
    19    9   10 ar   
    20    9   14 ar   
    21   10   11 ar   
    22   10   91 1    
    23   11   12 ar   
    24   11   58 1    
    25   12   13 ar   
    26   12   92 1    
    27   13   14 ar   
    28   13   15 1    
    29   14   93 1    
    30   15   16 1    
    31   15   94 1    
    32   15   95 1    
    33   16   17 1    
    34   17   18 1    
    35   17   96 1    
    36   17   97 1    
    37   18   19 1    
    38   18   22 1    
    39   18   98 1    
    40   19   20 am   BACKBONE|DICT|INTERRES
    41   19   21 2    
    42   20   99 1    
    43   20  100 1    
    44   22   23 am   BACKBONE|DICT|INTERRES
    45   22  101 1    
    46   23   24 2    
    47   23   25 1    
    48   25   26 1    
    49   25   27 1    
    50   25  102 1    
    51   26  103 1    
    52   26  104 1    
    53   26  105 1    
    54   27   28 am   BACKBONE|DICT|INTERRES
    55   27  106 1    
    56   28   29 2    
    57   28   30 1    
    58   30   31 1    
    59   30   32 1    
    60   30  107 1    
    61   31  108 1    
    62   31  109 1    
    63   31  110 1    
    64   32   33 am   BACKBONE|DICT|INTERRES
    65   32  111 1    
    66   33   34 2    
    67   33   35 1    
    68   35   36 1    
    69   35   37 1    
    70   35  112 1    
    71   36  113 1    
    72   36  114 1    
    73   36  115 1    
    74   37   38 am   BACKBONE|DICT|INTERRES
    75   37  116 1    
    76   38   39 2    
    77   38   40 1    
    78   40   41 1    
    79   40   42 1    
    80   40  117 1    
    81   41  118 1    
    82   41  119 1    
    83   41  120 1    
    84   42   43 am   BACKBONE|DICT|INTERRES
    85   42  121 1    
    86   43   44 2    
    87   43   45 1    
    88   45   46 1    
    89   45   47 1    
    90   45  122 1    
    91   46  123 1    
    92   46  124 1    
    93   46  125 1    
    94   47   48 am   BACKBONE|DICT|INTERRES
    95   47  126 1    
    96   48   49 2    
    97   48   50 1    
    98   50   51 1    
    99   50   52 1    
   100   50  127 1    
   101   51  128 1    
   102   51  129 1    
   103   51  130 1    
   104   52   53 am   BACKBONE|DICT|INTERRES
   105   52  131 1    
   106   53   54 2    
   107   53   55 1    
   108   55   56 1    
   109   55   59 1    
   110   55  132 1    
   111   56   57 1    
   112   56  133 1    
   113   56  134 1    
   114   57   58 1    
   115   58  135 1    
   116   58  136 1    
   117   59   60 am   BACKBONE|DICT|INTERRES
   118   59  137 1    
   119   60   61 2    
   120   60   62 1    
   121   62   63 1    
   122   62   64 1    
   123   62  138 1    
   124   63  139 1    
   125   63  140 1    
   126   63  141 1    
   127   64   65 am   BACKBONE|DICT|INTERRES
   128   64  142 1    
   129   65   66 2    
   130   65   67 1    
   131   67   68 1    
   132   67   69 1    
   133   67  143 1    
   134   68  144 1    
   135   68  145 1    
   136   68  146 1    
   137   69   70 am   BACKBONE|DICT|INTERRES
   138   69  147 1    
   139   70   71 2    
   140   70   72 1    
   141   72   73 1    
   142   72   74 1    
   143   72  148 1    
   144   73  149 1    
   145   73  150 1    
   146   73  151 1    
   147   74   75 am   BACKBONE|DICT|INTERRES
   148   74  152 1    
   149   75   76 2    
   150   75   77 1    
   151   77   78 1    
   152   77   79 1    
   153   77  153 1    
   154   78  154 1    
   155   78  155 1    
   156   78  156 1    
   157   79   80 am   BACKBONE|DICT|INTERRES
   158   79  157 1    
   159   80   81 2    
@<TRIPOS>SUBSTRUCTURE
     1 UNK         1 GROUP             0       ****    0 ROOT    
