@<TRIPOS>MOLECULE
3R207
157   159    1
SMALL
USER_CHARGES


@<TRIPOS>ATOM
      1 CA        -45.9525  -28.8539    7.4464 C.3       0 UNK        -0.1975 
      2 C         -46.7793  -27.8104    6.7122 C.2       0 UNK         0.4852 
      3 O         -46.2659  -26.7347    6.4003 O.2       0 UNK        -0.5216 
      4 N         -48.0468  -28.1297    6.4068 N.am      1 UNK        -0.4461 
      5 CA        -49.0373  -27.2473    5.7697 C.3       1 UNK         0.0864 
      6 C6        -49.5521  -26.1656    6.7600 C.3       14 UNK        -0.0898 
      7 S7        -51.1782  -25.4843    6.2874 S.3       14 UNK        -0.2598 
      8 C8        -52.3197  -26.4500    7.3340 C.3       14 UNK         0.0286 
      9 C9        -52.2392  -26.1087    8.8196 C.ar      14 UNK        -0.0844 
     10 C10       -52.1437  -24.7819    9.2536 C.ar      14 UNK        -0.0881 
     11 C11       -52.0901  -24.4791   10.6164 C.ar      14 UNK        -0.0643 
     12 C12       -52.1620  -25.5123   11.5553 C.ar      14 UNK        -0.0930 
     13 C13       -52.2749  -26.8407   11.1370 C.ar      14 UNK        -0.0827 
     14 C14       -52.3030  -27.1326    9.7699 C.ar      14 UNK        -0.1249 
     15 C15       -52.3649  -27.9647   12.1558 C.3       14 UNK         0.0141 
     16 S16       -54.0788  -28.5318   12.3641 S.3       14 UNK        -0.2313 
     17 C17       -53.7935  -30.0224   13.3675 C.3       14 UNK        -0.0915 
     18 CA        -55.1061  -30.7876   13.6724 C.3       13 UNK         0.0968 
     19 C         -54.7879  -32.1839   14.2752 C.2       13 UNK         0.5732 
     20 N         -54.6405  -33.2013   13.4377 N.am      13 UNK        -0.7310 
     21 O         -54.6331  -32.3444   15.4849 O.2       13 UNK        -0.5035 
     22 N         -55.9971  -30.0039   14.5395 N.am      13 UNK        -0.4233 
     23 C         -57.2693  -30.3233   14.8061 C.2       13 UNK         0.4989 
     24 O         -57.8819  -31.2194   14.2233 O.2       13 UNK        -0.4996 
     25 CA        -57.9899  -29.5375   15.9119 C.3       12 UNK         0.0216 
     26 CB        -57.7436  -30.2035   17.2767 C.3       12 UNK        -0.1964 
     27 N         -57.5797  -28.1314   15.9884 N.am      12 UNK        -0.4276 
     28 C         -58.4247  -27.0902   15.9600 C.2       12 UNK         0.5020 
     29 O         -59.6382  -27.2024   15.7763 O.2       12 UNK        -0.5489 
     30 CA        -57.8535  -25.6806   16.2148 C.3       11 UNK         0.0294 
     31 CB        -58.2206  -25.2055   17.6309 C.3       11 UNK        -0.2019 
     32 N         -56.4024  -25.5884   16.0496 N.am      11 UNK        -0.4493 
     33 C         -55.7740  -25.5462   14.8683 C.2       11 UNK         0.4932 
     34 O         -56.3597  -25.5146   13.7862 O.2       11 UNK        -0.5029 
     35 CA        -54.2331  -25.5450   14.8908 C.3       10 UNK         0.0280 
     36 CB        -53.7006  -24.1100   14.7450 C.3       10 UNK        -0.1976 
     37 N         -53.5971  -26.1714   16.0595 N.am      10 UNK        -0.4242 
     38 C         -53.8217  -27.4100   16.5271 C.2       10 UNK         0.5072 
     39 O         -54.7288  -28.1347   16.1191 O.2       10 UNK        -0.5224 
     40 CA        -52.8733  -27.9310   17.6189 C.3       9 UNK         0.0343 
     41 CB        -52.8179  -29.4723   17.6667 C.3       9 UNK        -0.2003 
     42 N         -51.5339  -27.3828   17.4184 N.am      9 UNK        -0.4272 
     43 C         -50.5886  -27.2175   18.3467 C.2       9 UNK         0.4988 
     44 O         -50.7317  -27.5433   19.5266 O.2       9 UNK        -0.5108 
     45 CA        -49.2647  -26.5730   17.8734 C.3       8 UNK         0.0248 
     46 CB        -48.1470  -26.6816   18.9284 C.3       8 UNK        -0.2001 
     47 N         -48.7622  -27.0999   16.5959 N.am      8 UNK        -0.4140 
     48 C         -49.2754  -26.8488   15.3846 C.2       8 UNK         0.5028 
     49 O         -50.3042  -26.1904   15.2005 O.2       8 UNK        -0.5428 
     50 CA        -48.5556  -27.4826   14.1845 C.3       7 UNK         0.0264 
     51 CB        -49.0722  -28.9095   13.9359 C.3       7 UNK        -0.1988 
     52 N         -48.7732  -26.6669   12.9886 N.am      7 UNK        -0.4454 
     53 C         -48.0943  -25.5438   12.7247 C.2       7 UNK         0.5027 
     54 O         -47.1147  -25.1634   13.3719 O.2       7 UNK        -0.5083 
     55 CA        -48.6286  -24.6666   11.5758 C.3       6 UNK         0.0844 
     56 C56       -49.3831  -23.4483   12.1659 C.3       14 UNK        -0.0967 
     57 S57       -50.2260  -22.4542   10.8906 S.3       14 UNK        -0.2604 
     58 C58       -51.9440  -23.0333   11.0647 C.3       14 UNK         0.0134 
     59 N         -47.5452  -24.2596   10.6779 N.am      6 UNK        -0.4116 
     60 C         -46.7988  -25.0970    9.9481 C.2       5 UNK         0.5034 
     61 O         -46.9928  -26.3123    9.8773 O.2       5 UNK        -0.5045 
     62 CA        -45.6632  -24.4589    9.1392 C.3       5 UNK         0.0224 
     63 CB        -44.4234  -25.3681    9.0594 C.3       5 UNK        -0.1978 
     64 N         -46.1397  -24.1850    7.7883 N.am      5 UNK        -0.4737 
     65 C         -46.6813  -23.0273    7.3879 C.2       4 UNK         0.5027 
     66 O         -46.8333  -22.0611    8.1373 O.2       4 UNK        -0.5211 
     67 CA        -47.1266  -22.9308    5.9124 C.3       4 UNK         0.0297 
     68 CB        -47.1120  -21.4837    5.3756 C.3       4 UNK        -0.1993 
     69 N         -46.3867  -23.8352    5.0219 N.am      4 UNK        -0.4486 
     70 C         -45.0681  -23.8296    4.7600 C.2       3 UNK         0.4961 
     71 O         -44.2955  -22.9600    5.1647 O.2       3 UNK        -0.5105 
     72 CA        -44.4941  -24.9997    3.9364 C.3       3 UNK         0.0299 
     73 CB        -43.3501  -25.6906    4.7009 C.3       3 UNK        -0.1972 
     74 N         -45.5114  -26.0049    3.6227 N.am      3 UNK        -0.4305 
     75 C         -46.1249  -26.1436    2.4390 C.2       2 UNK         0.5006 
     76 O         -45.8468  -25.4756    1.4423 O.2       2 UNK        -0.5106 
     77 CA        -47.2509  -27.1944    2.3387 C.3       2 UNK         0.0296 
     78 CB        -46.7243  -28.4787    1.6774 C.3       2 UNK        -0.2002 
     79 N         -47.8841  -27.5395    3.6174 N.am      2 UNK        -0.4032 
     80 C         -48.5398  -26.6815    4.4144 C.2       1 UNK         0.5000 
     81 O         -48.6827  -25.4891    4.1378 O.2       1 UNK        -0.5238 
     82 H82       -44.9827  -28.9725    6.9642 H         1 UNK         0.0889 
     83 H83       -46.4448  -29.8258    7.4632 H         1 UNK         0.0889 
     84 H84       -45.7865  -28.5378    8.4759 H         1 UNK         0.0889 
     85 H85       -48.3946  -29.0405    6.6743 H         1 UNK         0.3028 
     86 H86       -49.8799  -27.8953    5.5230 H         1 UNK         0.0864 
     87 H87       -49.6386  -26.5869    7.7630 H         1 UNK         0.0720 
     88 H88       -48.8350  -25.3501    6.8555 H         1 UNK         0.0720 
     89 H89       -52.1288  -27.5118    7.1702 H         1 UNK         0.0814 
     90 H90       -53.3399  -26.2657    6.9955 H         1 UNK         0.0814 
     91 H91       -52.0978  -23.9792    8.5305 H         1 UNK         0.1469 
     92 H92       -52.1236  -25.2840   12.6106 H         1 UNK         0.1381 
     93 H93       -52.3939  -28.1614    9.4485 H         1 UNK         0.1206 
     94 H94       -51.7381  -28.7977   11.8339 H         1 UNK         0.0813 
     95 H95       -51.9838  -27.6358   13.1238 H         1 UNK         0.0813 
     96 H96       -53.0994  -30.6596   12.8158 H         1 UNK         0.0638 
     97 H97       -53.2857  -29.7389   14.2912 H         1 UNK         0.0638 
     98 H98       -55.6318  -30.9484   12.7290 H         1 UNK         0.0568 
     99 H99       -54.4192  -34.1118   13.8091 H         1 UNK         0.3450 
    100 H100      -54.7538  -33.0800   12.4433 H         1 UNK         0.3450 
    101 H101      -55.5370  -29.2837   15.0924 H         1 UNK         0.2987 
    102 H102      -59.0576  -29.6088   15.6941 H         1 UNK         0.0766 
    103 H103      -58.0388  -31.2536   17.2599 H         1 UNK         0.0798 
    104 H104      -58.3202  -29.7175   18.0639 H         1 UNK         0.0798 
    105 H105      -56.6904  -30.1645   17.5592 H         1 UNK         0.0798 
    106 H106      -56.5840  -27.9544   16.1015 H         1 UNK         0.3198 
    107 H107      -58.3267  -25.0056   15.4980 H         1 UNK         0.0843 
    108 H108      -57.7768  -25.8409   18.3985 H         1 UNK         0.0831 
    109 H109      -59.3012  -25.2224   17.7804 H         1 UNK         0.0831 
    110 H110      -57.8885  -24.1820   17.8061 H         1 UNK         0.0831 
    111 H111      -55.8416  -25.6061   16.8890 H         1 UNK         0.3133 
    112 H112      -53.9088  -26.1135   14.0196 H         1 UNK         0.0566 
    113 H113      -52.6133  -24.0922   14.6649 H         1 UNK         0.0814 
    114 H114      -53.9838  -23.4878   15.5949 H         1 UNK         0.0814 
    115 H115      -54.0988  -23.6355   13.8469 H         1 UNK         0.0814 
    116 H116      -52.8494  -25.6415   16.4840 H         1 UNK         0.3091 
    117 H117      -53.2648  -27.5662   18.5705 H         1 UNK         0.0702 
    118 H118      -52.1701  -29.8238   18.4695 H         1 UNK         0.0785 
    119 H119      -52.4463  -29.8887   16.7298 H         1 UNK         0.0785 
    120 H120      -53.8064  -29.8986   17.8437 H         1 UNK         0.0785 
    121 H121      -51.3102  -27.0628   16.4769 H         1 UNK         0.2998 
    122 H122      -49.4767  -25.5111   17.7324 H         1 UNK         0.0697 
    123 H123      -47.8909  -27.7209   19.1384 H         1 UNK         0.0825 
    124 H124      -48.4495  -26.2234   19.8711 H         1 UNK         0.0825 
    125 H125      -47.2409  -26.1703   18.6029 H         1 UNK         0.0825 
    126 H126      -47.9477  -27.6944   16.6561 H         1 UNK         0.3029 
    127 H127      -47.4844  -27.5304   14.3943 H         1 UNK         0.0897 
    128 H128      -50.1547  -28.9410   13.8194 H         1 UNK         0.0792 
    129 H129      -48.8222  -29.5637   14.7722 H         1 UNK         0.0792 
    130 H130      -48.6240  -29.3451   13.0426 H         1 UNK         0.0792 
    131 H131      -49.5857  -26.8862   12.4318 H         1 UNK         0.3086 
    132 H132      -49.3279  -25.2612   10.9846 H         1 UNK         0.0583 
    133 H133      -50.1169  -23.7678   12.9091 H         1 UNK         0.1020 
    134 H134      -48.6914  -22.7953   12.7020 H         1 UNK         0.1020 
    135 H135      -52.2721  -22.9087   12.0978 H         1 UNK         0.0694 
    136 H136      -52.5935  -22.3980   10.4606 H         1 UNK         0.0694 
    137 H137      -47.3488  -23.2700   10.6393 H         1 UNK         0.2989 
    138 H138      -45.3589  -23.5305    9.6282 H         1 UNK         0.1055 
    139 H139      -43.6117  -24.8801    8.5196 H         1 UNK         0.0806 
    140 H140      -44.6369  -26.3096    8.5539 H         1 UNK         0.0806 
    141 H141      -44.0532  -25.6098   10.0564 H         1 UNK         0.0806 
    142 H142      -46.1164  -24.9708    7.1418 H         1 UNK         0.3061 
    143 H143      -48.1624  -23.2715    5.8896 H         1 UNK         0.0734 
    144 H144      -46.1202  -21.0358    5.4413 H         1 UNK         0.0832 
    145 H145      -47.4319  -21.4433    4.3345 H         1 UNK         0.0832 
    146 H146      -47.7910  -20.8493    5.9464 H         1 UNK         0.0832 
    147 H147      -46.9502  -24.5800    4.6232 H         1 UNK         0.3156 
    148 H148      -44.0816  -24.5772    3.0182 H         1 UNK         0.0589 
    149 H149      -42.9306  -26.5162    4.1260 H         1 UNK         0.0808 
    150 H150      -42.5360  -24.9938    4.9044 H         1 UNK         0.0808 
    151 H151      -43.6869  -26.0862    5.6602 H         1 UNK         0.0808 
    152 H152      -45.8250  -26.5620    4.4111 H         1 UNK         0.3098 
    153 H153      -48.0257  -26.7720    1.6955 H         1 UNK         0.0720 
    154 H154      -46.2745  -28.2626    0.7071 H         1 UNK         0.0791 
    155 H155      -47.5270  -29.1962    1.5059 H         1 UNK         0.0791 
    156 H156      -45.9622  -28.9641    2.2884 H         1 UNK         0.0791 
    157 H157      -47.7857  -28.4957    3.9275 H         1 UNK         0.3028 
@<TRIPOS>BOND
     1    1    2 1    
     2    1   82 1    
     3    1   83 1    
     4    1   84 1    
     5    2    3 2    
     6    2    4 am   BACKBONE|DICT|INTERRES
     7    4    5 1    
     8    4   85 1    
     9    5    6 1    
    10    5   80 1    
    11    5   86 1    
    12    6    7 1    
    13    6   87 1    
    14    6   88 1    
    15    7    8 1    
    16    8    9 1    
    17    8   89 1    
    18    8   90 1    
    19    9   10 ar   
    20    9   14 ar   
    21   10   11 ar   
    22   10   91 1    
    23   11   12 ar   
    24   11   58 1    
    25   12   13 ar   
    26   12   92 1    
    27   13   14 ar   
    28   13   15 1    
    29   14   93 1    
    30   15   16 1    
    31   15   94 1    
    32   15   95 1    
    33   16   17 1    
    34   17   18 1    
    35   17   96 1    
    36   17   97 1    
    37   18   19 1    
    38   18   22 1    
    39   18   98 1    
    40   19   20 am   BACKBONE|DICT|INTERRES
    41   19   21 2    
    42   20   99 1    
    43   20  100 1    
    44   22   23 am   BACKBONE|DICT|INTERRES
    45   22  101 1    
    46   23   24 2    
    47   23   25 1    
    48   25   26 1    
    49   25   27 1    
    50   25  102 1    
    51   26  103 1    
    52   26  104 1    
    53   26  105 1    
    54   27   28 am   BACKBONE|DICT|INTERRES
    55   27  106 1    
    56   28   29 2    
    57   28   30 1    
    58   30   31 1    
    59   30   32 1    
    60   30  107 1    
    61   31  108 1    
    62   31  109 1    
    63   31  110 1    
    64   32   33 am   BACKBONE|DICT|INTERRES
    65   32  111 1    
    66   33   34 2    
    67   33   35 1    
    68   35   36 1    
    69   35   37 1    
    70   35  112 1    
    71   36  113 1    
    72   36  114 1    
    73   36  115 1    
    74   37   38 am   BACKBONE|DICT|INTERRES
    75   37  116 1    
    76   38   39 2    
    77   38   40 1    
    78   40   41 1    
    79   40   42 1    
    80   40  117 1    
    81   41  118 1    
    82   41  119 1    
    83   41  120 1    
    84   42   43 am   BACKBONE|DICT|INTERRES
    85   42  121 1    
    86   43   44 2    
    87   43   45 1    
    88   45   46 1    
    89   45   47 1    
    90   45  122 1    
    91   46  123 1    
    92   46  124 1    
    93   46  125 1    
    94   47   48 am   BACKBONE|DICT|INTERRES
    95   47  126 1    
    96   48   49 2    
    97   48   50 1    
    98   50   51 1    
    99   50   52 1    
   100   50  127 1    
   101   51  128 1    
   102   51  129 1    
   103   51  130 1    
   104   52   53 am   BACKBONE|DICT|INTERRES
   105   52  131 1    
   106   53   54 2    
   107   53   55 1    
   108   55   56 1    
   109   55   59 1    
   110   55  132 1    
   111   56   57 1    
   112   56  133 1    
   113   56  134 1    
   114   57   58 1    
   115   58  135 1    
   116   58  136 1    
   117   59   60 am   BACKBONE|DICT|INTERRES
   118   59  137 1    
   119   60   61 2    
   120   60   62 1    
   121   62   63 1    
   122   62   64 1    
   123   62  138 1    
   124   63  139 1    
   125   63  140 1    
   126   63  141 1    
   127   64   65 am   BACKBONE|DICT|INTERRES
   128   64  142 1    
   129   65   66 2    
   130   65   67 1    
   131   67   68 1    
   132   67   69 1    
   133   67  143 1    
   134   68  144 1    
   135   68  145 1    
   136   68  146 1    
   137   69   70 am   BACKBONE|DICT|INTERRES
   138   69  147 1    
   139   70   71 2    
   140   70   72 1    
   141   72   73 1    
   142   72   74 1    
   143   72  148 1    
   144   73  149 1    
   145   73  150 1    
   146   73  151 1    
   147   74   75 am   BACKBONE|DICT|INTERRES
   148   74  152 1    
   149   75   76 2    
   150   75   77 1    
   151   77   78 1    
   152   77   79 1    
   153   77  153 1    
   154   78  154 1    
   155   78  155 1    
   156   78  156 1    
   157   79   80 am   BACKBONE|DICT|INTERRES
   158   79  157 1    
   159   80   81 2    
@<TRIPOS>SUBSTRUCTURE
     1 UNK         1 GROUP             0       ****    0 ROOT    
