@<TRIPOS>MOLECULE
3R207
157   159    1
SMALL
USER_CHARGES


@<TRIPOS>ATOM
      1 CA        -48.2561  -30.1729    5.7774 C.3       0 UNK        -0.1975 
      2 C         -48.3964  -28.8825    4.9845 C.2       0 UNK         0.4852 
      3 O         -48.1063  -28.8568    3.7879 O.2       0 UNK        -0.5216 
      4 N         -48.8156  -27.8005    5.6476 N.am      1 UNK        -0.4461 
      5 CA        -48.9963  -26.4648    5.0787 C.3       1 UNK         0.0864 
      6 C6        -50.1615  -25.7183    5.7832 C.3       14 UNK        -0.0898 
      7 S7        -51.7775  -26.0899    5.0232 S.3       14 UNK        -0.2598 
      8 C8        -52.2382  -27.6927    5.7616 C.3       14 UNK         0.0286 
      9 C9        -52.5153  -27.6152    7.2571 C.ar      14 UNK        -0.0844 
     10 C10       -53.5153  -26.7713    7.7494 C.ar      14 UNK        -0.0881 
     11 C11       -53.8080  -26.7213    9.1157 C.ar      14 UNK        -0.0643 
     12 C12       -53.0870  -27.5469    9.9908 C.ar      14 UNK        -0.0930 
     13 C13       -52.0821  -28.3919    9.5141 C.ar      14 UNK        -0.0827 
     14 C14       -51.8014  -28.4225    8.1459 C.ar      14 UNK        -0.1249 
     15 C15       -51.2765  -29.2495   10.4784 C.3       14 UNK         0.0141 
     16 S16       -52.0778  -30.8511   10.8005 S.3       14 UNK        -0.2313 
     17 C17       -53.3483  -30.4108   12.0364 C.3       14 UNK        -0.0915 
     18 CA        -54.7817  -30.2860   11.4347 C.3       13 UNK         0.0968 
     19 C         -55.5147  -31.6528   11.2497 C.2       13 UNK         0.5732 
     20 N         -56.8402  -31.6999   11.3227 N.am      13 UNK        -0.7310 
     21 O         -54.8891  -32.6830   11.0117 O.2       13 UNK        -0.5035 
     22 N         -55.5802  -29.2544   12.1220 N.am      13 UNK        -0.4233 
     23 C         -55.9396  -29.2811   13.4122 C.2       13 UNK         0.4989 
     24 O         -55.6549  -30.1899   14.1962 O.2       13 UNK        -0.4996 
     25 CA        -56.8041  -28.1068   13.9029 C.3       12 UNK         0.0216 
     26 CB        -58.2909  -28.4988   13.9108 C.3       12 UNK        -0.1964 
     27 N         -56.4136  -27.6619   15.2425 N.am      12 UNK        -0.4276 
     28 C         -55.2376  -27.0953   15.5382 C.2       12 UNK         0.5020 
     29 O         -54.3601  -26.8450   14.7064 O.2       12 UNK        -0.5489 
     30 CA        -54.9940  -26.7557   17.0134 C.3       11 UNK         0.0294 
     31 CB        -54.6673  -28.0265   17.8226 C.3       11 UNK        -0.2019 
     32 N         -53.8740  -25.8251   17.0623 N.am      11 UNK        -0.4493 
     33 C         -53.4753  -25.0819   18.0991 C.2       11 UNK         0.4932 
     34 O         -54.0581  -25.0530   19.1845 O.2       11 UNK        -0.5029 
     35 CA        -52.2101  -24.2280   17.8727 C.3       10 UNK         0.0280 
     36 CB        -51.5069  -23.8218   19.1853 C.3       10 UNK        -0.1976 
     37 N         -51.2691  -24.8531   16.9332 N.am      10 UNK        -0.4242 
     38 C         -50.6195  -26.0191   17.0848 C.2       10 UNK         0.5072 
     39 O         -50.6607  -26.7100   18.1036 O.2       10 UNK        -0.5224 
     40 CA        -49.7974  -26.5173   15.8838 C.3       9 UNK         0.0343 
     41 CB        -50.6644  -27.4043   14.9735 C.3       9 UNK        -0.2003 
     42 N         -49.2155  -25.4381   15.0849 N.am      9 UNK        -0.4272 
     43 C         -48.2322  -24.6216   15.4898 C.2       9 UNK         0.4988 
     44 O         -47.6902  -24.6895   16.5934 O.2       9 UNK        -0.5108 
     45 CA        -47.7779  -23.5467   14.4912 C.3       8 UNK         0.0248 
     46 CB        -46.8150  -24.1416   13.4493 C.3       8 UNK        -0.2001 
     47 N         -48.9208  -22.9339   13.8123 N.am      8 UNK        -0.4140 
     48 C         -49.6263  -21.9036   14.2994 C.2       8 UNK         0.5028 
     49 O         -49.3499  -21.3175   15.3466 O.2       8 UNK        -0.5428 
     50 CA        -50.8501  -21.4411   13.4859 C.3       7 UNK         0.0264 
     51 CB        -50.4564  -20.3112   12.5206 C.3       7 UNK        -0.1988 
     52 N         -51.5015  -22.5157   12.7306 N.am      7 UNK        -0.4454 
     53 C         -52.1499  -23.5497   13.2870 C.2       7 UNK         0.5027 
     54 O         -52.2716  -23.7021   14.5026 O.2       7 UNK        -0.5083 
     55 CA        -52.7178  -24.6196   12.3293 C.3       6 UNK         0.0844 
     56 C56       -54.1395  -24.2236   11.8535 C.3       14 UNK        -0.0967 
     57 S57       -55.1669  -25.6555   11.3815 S.3       14 UNK        -0.2604 
     58 C58       -54.9275  -25.7842    9.5764 C.3       14 UNK         0.0134 
     59 N         -51.8241  -24.9152   11.1996 N.am      6 UNK        -0.4116 
     60 C         -50.5431  -25.2957   11.2955 C.2       5 UNK         0.5034 
     61 O         -49.9251  -25.3751   12.3607 O.2       5 UNK        -0.5045 
     62 CA        -49.8081  -25.5912    9.9853 C.3       5 UNK         0.0224 
     63 CB        -49.3611  -24.2874    9.3025 C.3       5 UNK        -0.1978 
     64 N         -48.6359  -26.4028   10.2980 N.am      5 UNK        -0.4737 
     65 C         -48.1093  -27.3474    9.5178 C.2       4 UNK         0.5027 
     66 O         -48.5571  -27.6644    8.4143 O.2       4 UNK        -0.5211 
     67 CA        -46.8992  -28.1020   10.0897 C.3       4 UNK         0.0297 
     68 CB        -47.3501  -29.4086   10.7620 C.3       4 UNK        -0.1993 
     69 N         -45.9334  -28.4094    9.0345 N.am      4 UNK        -0.4486 
     70 C         -45.1409  -27.5024    8.4481 C.2       3 UNK         0.4961 
     71 O         -45.0517  -26.3333    8.8254 O.2       3 UNK        -0.5105 
     72 CA        -44.3119  -27.9648    7.2361 C.3       3 UNK         0.0299 
     73 CB        -44.2645  -29.4959    7.0479 C.3       3 UNK        -0.1972 
     74 N         -44.8693  -27.3546    6.0316 N.am      3 UNK        -0.4305 
     75 C         -44.4812  -26.1897    5.4943 C.2       2 UNK         0.5006 
     76 O         -43.5111  -25.5376    5.8828 O.2       2 UNK        -0.5106 
     77 CA        -45.3126  -25.6624    4.3093 C.3       2 UNK         0.0296 
     78 CB        -44.6533  -26.0482    2.9749 C.3       2 UNK        -0.2002 
     79 N         -46.6973  -26.1449    4.3199 N.am      2 UNK        -0.4032 
     80 C         -47.6472  -25.7255    5.1688 C.2       1 UNK         0.5000 
     81 O         -47.4720  -24.8374    6.0047 O.2       1 UNK        -0.5238 
     82 H82       -49.0324  -30.8778    5.4815 H         1 UNK         0.0889 
     83 H83       -48.3436  -30.0010    6.8504 H         1 UNK         0.0889 
     84 H84       -47.2879  -30.6330    5.5838 H         1 UNK         0.0889 
     85 H85       -48.9139  -27.8432    6.6632 H         1 UNK         0.3028 
     86 H86       -49.2362  -26.5446    4.0157 H         1 UNK         0.0864 
     87 H87       -50.0405  -24.6364    5.7024 H         1 UNK         0.0720 
     88 H88       -50.1900  -25.9355    6.8518 H         1 UNK         0.0720 
     89 H89       -51.4647  -28.4286    5.5425 H         1 UNK         0.0814 
     90 H90       -53.1397  -28.0529    5.2643 H         1 UNK         0.0814 
     91 H91       -54.0737  -26.1535    7.0588 H         1 UNK         0.1469 
     92 H92       -53.2900  -27.5368   11.0515 H         1 UNK         0.1381 
     93 H93       -51.0240  -29.0767    7.7754 H         1 UNK         0.1206 
     94 H94       -51.1004  -28.7159   11.4138 H         1 UNK         0.0813 
     95 H95       -50.2907  -29.4423   10.0546 H         1 UNK         0.0813 
     96 H96       -53.3285  -31.1516   12.8375 H         1 UNK         0.0638 
     97 H97       -53.0498  -29.4737   12.5087 H         1 UNK         0.0638 
     98 H98       -54.6777  -29.9032   10.4193 H         1 UNK         0.0568 
     99 H99       -57.3081  -32.5832   11.1946 H         1 UNK         0.3450 
    100 H100      -57.3748  -30.8668   11.5054 H         1 UNK         0.3450 
    101 H101      -55.8708  -28.4738   11.5508 H         1 UNK         0.2987 
    102 H102      -56.6775  -27.2624   13.2247 H         1 UNK         0.0766 
    103 H103      -58.9206  -27.6649   14.2218 H         1 UNK         0.0798 
    104 H104      -58.4846  -29.3361   14.5828 H         1 UNK         0.0798 
    105 H105      -58.6221  -28.7970   12.9152 H         1 UNK         0.0798 
    106 H106      -57.0585  -27.8657   15.9922 H         1 UNK         0.3198 
    107 H107      -55.8827  -26.2671   17.4180 H         1 UNK         0.0843 
    108 H108      -54.5044  -27.8003   18.8764 H         1 UNK         0.0831 
    109 H109      -53.7704  -28.5200   17.4454 H         1 UNK         0.0831 
    110 H110      -55.4828  -28.7488   17.7724 H         1 UNK         0.0831 
    111 H111      -53.3817  -25.7548   16.1775 H         1 UNK         0.3133 
    112 H112      -52.5496  -23.3121   17.3869 H         1 UNK         0.0566 
    113 H113      -50.6174  -23.2231   18.9891 H         1 UNK         0.0814 
    114 H114      -52.1681  -23.2231   19.8129 H         1 UNK         0.0814 
    115 H115      -51.2051  -24.6908   19.7705 H         1 UNK         0.0814 
    116 H116      -51.2293  -24.4064   16.0214 H         1 UNK         0.3091 
    117 H117      -48.9780  -27.1249   16.2736 H         1 UNK         0.0702 
    118 H118      -50.0791  -27.8297   14.1581 H         1 UNK         0.0785 
    119 H119      -51.4907  -26.8447   14.5337 H         1 UNK         0.0785 
    120 H120      -51.0968  -28.2356   15.5322 H         1 UNK         0.0785 
    121 H121      -49.5619  -25.3446   14.1324 H         1 UNK         0.2998 
    122 H122      -47.2353  -22.7786   15.0469 H         1 UNK         0.0697 
    123 H123      -45.9406  -24.5780   13.9339 H         1 UNK         0.0825 
    124 H124      -46.4548  -23.3767   12.7612 H         1 UNK         0.0825 
    125 H125      -47.2848  -24.9280   12.8588 H         1 UNK         0.0825 
    126 H126      -49.2516  -23.3965   12.9762 H         1 UNK         0.3029 
    127 H127      -51.5789  -21.0442   14.1965 H         1 UNK         0.0897 
    128 H128      -51.3274  -19.9085   12.0032 H         1 UNK         0.0792 
    129 H129      -49.9911  -19.4837   13.0583 H         1 UNK         0.0792 
    130 H130      -49.7440  -20.6513   11.7677 H         1 UNK         0.0792 
    131 H131      -51.4470  -22.4646   11.7237 H         1 UNK         0.3086 
    132 H132      -52.7951  -25.5380   12.9142 H         1 UNK         0.0583 
    133 H133      -54.6887  -23.7305   12.6590 H         1 UNK         0.1020 
    134 H134      -54.1002  -23.4952   11.0418 H         1 UNK         0.1020 
    135 H135      -55.8625  -26.1478    9.1481 H         1 UNK         0.0694 
    136 H136      -54.7705  -24.7890    9.1583 H         1 UNK         0.0694 
    137 H137      -52.2505  -24.8869   10.2852 H         1 UNK         0.2989 
    138 H138      -50.4759  -26.1424    9.3218 H         1 UNK         0.1055 
    139 H139      -48.7319  -23.6830    9.9574 H         1 UNK         0.0806 
    140 H140      -50.2179  -23.6785    9.0121 H         1 UNK         0.0806 
    141 H141      -48.7910  -24.4930    8.3964 H         1 UNK         0.0806 
    142 H142      -48.2759  -26.2619   11.2332 H         1 UNK         0.3061 
    143 H143      -46.4085  -27.4756   10.8383 H         1 UNK         0.0734 
    144 H144      -46.5064  -29.9399   11.2028 H         1 UNK         0.0832 
    145 H145      -48.0608  -29.2096   11.5655 H         1 UNK         0.0832 
    146 H146      -47.8376  -30.0805   10.0544 H         1 UNK         0.0832 
    147 H147      -45.9640  -29.3423    8.6517 H         1 UNK         0.3156 
    148 H148      -43.2884  -27.6175    7.3921 H         1 UNK         0.0589 
    149 H149      -45.2454  -29.9219    6.8364 H         1 UNK         0.0808 
    150 H150      -43.6090  -29.7629    6.2186 H         1 UNK         0.0808 
    151 H151      -43.8666  -29.9903    7.9354 H         1 UNK         0.0808 
    152 H152      -45.6919  -27.7929    5.6470 H         1 UNK         0.3098 
    153 H153      -45.3294  -24.5725    4.3794 H         1 UNK         0.0720 
    154 H154      -45.1898  -25.6192    2.1283 H         1 UNK         0.0791 
    155 H155      -44.6185  -27.1299    2.8383 H         1 UNK         0.0791 
    156 H156      -43.6273  -25.6803    2.9261 H         1 UNK         0.0791 
    157 H157      -46.9279  -26.9012    3.6863 H         1 UNK         0.3028 
@<TRIPOS>BOND
     1    1    2 1    
     2    1   82 1    
     3    1   83 1    
     4    1   84 1    
     5    2    3 2    
     6    2    4 am   BACKBONE|DICT|INTERRES
     7    4    5 1    
     8    4   85 1    
     9    5    6 1    
    10    5   80 1    
    11    5   86 1    
    12    6    7 1    
    13    6   87 1    
    14    6   88 1    
    15    7    8 1    
    16    8    9 1    
    17    8   89 1    
    18    8   90 1    
    19    9   10 ar   
    20    9   14 ar   
    21   10   11 ar   
    22   10   91 1    
    23   11   12 ar   
    24   11   58 1    
    25   12   13 ar   
    26   12   92 1    
    27   13   14 ar   
    28   13   15 1    
    29   14   93 1    
    30   15   16 1    
    31   15   94 1    
    32   15   95 1    
    33   16   17 1    
    34   17   18 1    
    35   17   96 1    
    36   17   97 1    
    37   18   19 1    
    38   18   22 1    
    39   18   98 1    
    40   19   20 am   BACKBONE|DICT|INTERRES
    41   19   21 2    
    42   20   99 1    
    43   20  100 1    
    44   22   23 am   BACKBONE|DICT|INTERRES
    45   22  101 1    
    46   23   24 2    
    47   23   25 1    
    48   25   26 1    
    49   25   27 1    
    50   25  102 1    
    51   26  103 1    
    52   26  104 1    
    53   26  105 1    
    54   27   28 am   BACKBONE|DICT|INTERRES
    55   27  106 1    
    56   28   29 2    
    57   28   30 1    
    58   30   31 1    
    59   30   32 1    
    60   30  107 1    
    61   31  108 1    
    62   31  109 1    
    63   31  110 1    
    64   32   33 am   BACKBONE|DICT|INTERRES
    65   32  111 1    
    66   33   34 2    
    67   33   35 1    
    68   35   36 1    
    69   35   37 1    
    70   35  112 1    
    71   36  113 1    
    72   36  114 1    
    73   36  115 1    
    74   37   38 am   BACKBONE|DICT|INTERRES
    75   37  116 1    
    76   38   39 2    
    77   38   40 1    
    78   40   41 1    
    79   40   42 1    
    80   40  117 1    
    81   41  118 1    
    82   41  119 1    
    83   41  120 1    
    84   42   43 am   BACKBONE|DICT|INTERRES
    85   42  121 1    
    86   43   44 2    
    87   43   45 1    
    88   45   46 1    
    89   45   47 1    
    90   45  122 1    
    91   46  123 1    
    92   46  124 1    
    93   46  125 1    
    94   47   48 am   BACKBONE|DICT|INTERRES
    95   47  126 1    
    96   48   49 2    
    97   48   50 1    
    98   50   51 1    
    99   50   52 1    
   100   50  127 1    
   101   51  128 1    
   102   51  129 1    
   103   51  130 1    
   104   52   53 am   BACKBONE|DICT|INTERRES
   105   52  131 1    
   106   53   54 2    
   107   53   55 1    
   108   55   56 1    
   109   55   59 1    
   110   55  132 1    
   111   56   57 1    
   112   56  133 1    
   113   56  134 1    
   114   57   58 1    
   115   58  135 1    
   116   58  136 1    
   117   59   60 am   BACKBONE|DICT|INTERRES
   118   59  137 1    
   119   60   61 2    
   120   60   62 1    
   121   62   63 1    
   122   62   64 1    
   123   62  138 1    
   124   63  139 1    
   125   63  140 1    
   126   63  141 1    
   127   64   65 am   BACKBONE|DICT|INTERRES
   128   64  142 1    
   129   65   66 2    
   130   65   67 1    
   131   67   68 1    
   132   67   69 1    
   133   67  143 1    
   134   68  144 1    
   135   68  145 1    
   136   68  146 1    
   137   69   70 am   BACKBONE|DICT|INTERRES
   138   69  147 1    
   139   70   71 2    
   140   70   72 1    
   141   72   73 1    
   142   72   74 1    
   143   72  148 1    
   144   73  149 1    
   145   73  150 1    
   146   73  151 1    
   147   74   75 am   BACKBONE|DICT|INTERRES
   148   74  152 1    
   149   75   76 2    
   150   75   77 1    
   151   77   78 1    
   152   77   79 1    
   153   77  153 1    
   154   78  154 1    
   155   78  155 1    
   156   78  156 1    
   157   79   80 am   BACKBONE|DICT|INTERRES
   158   79  157 1    
   159   80   81 2    
@<TRIPOS>SUBSTRUCTURE
     1 UNK         1 GROUP             0       ****    0 ROOT    
