@<TRIPOS>MOLECULE
3R207
157   159    1
SMALL
USER_CHARGES


@<TRIPOS>ATOM
      1 CA        -48.6942  -25.5898    4.3964 C.3       0 UNK        -0.1975 
      2 C         -49.3812  -26.0129    5.6848 C.2       0 UNK         0.4852 
      3 O         -49.2518  -25.3230    6.6981 O.2       0 UNK        -0.5216 
      4 N         -50.1358  -27.1226    5.6515 N.am      1 UNK        -0.4461 
      5 CA        -50.8163  -27.7545    6.7967 C.3       1 UNK         0.0864 
      6 C6        -49.8102  -28.3582    7.8171 C.3       14 UNK        -0.0898 
      7 S7        -49.0821  -29.9317    7.2632 S.3       14 UNK        -0.2598 
      8 C8        -50.2665  -31.1416    7.9483 C.3       14 UNK         0.0286 
      9 C9        -50.2259  -31.2265    9.4710 C.ar      14 UNK        -0.0844 
     10 C10       -49.2492  -31.9961   10.1099 C.ar      14 UNK        -0.0881 
     11 C11       -49.2284  -32.1040   11.5044 C.ar      14 UNK        -0.0643 
     12 C12       -50.1942  -31.4329   12.2611 C.ar      14 UNK        -0.0930 
     13 C13       -51.1665  -30.6457   11.6373 C.ar      14 UNK        -0.0827 
     14 C14       -51.1815  -30.5563   10.2419 C.ar      14 UNK        -0.1249 
     15 C15       -52.1427  -29.8318   12.4796 C.3       14 UNK         0.0141 
     16 S16       -53.7692  -30.6225   12.6588 S.3       14 UNK        -0.2313 
     17 C17       -54.6010  -30.2826   11.0656 C.3       14 UNK        -0.0915 
     18 CA        -54.6146  -28.7990   10.5730 C.3       13 UNK         0.0968 
     19 C         -55.3979  -28.6393    9.2353 C.2       13 UNK         0.5732 
     20 N         -56.2348  -27.6231    9.0535 N.am      13 UNK        -0.7310 
     21 O         -55.2283  -29.4464    8.3243 O.2       13 UNK        -0.5035 
     22 N         -54.9541  -27.8002   11.5994 N.am      13 UNK        -0.4233 
     23 C         -56.0529  -27.7741   12.3667 C.2       13 UNK         0.4989 
     24 O         -56.9081  -28.6594   12.3934 O.2       13 UNK        -0.4996 
     25 CA        -56.2575  -26.5124   13.2291 C.3       12 UNK         0.0216 
     26 CB        -55.5766  -26.6813   14.5963 C.3       12 UNK        -0.1964 
     27 N         -55.7685  -25.2850   12.5903 N.am      12 UNK        -0.4276 
     28 C         -56.1900  -24.8218   11.4039 C.2       12 UNK         0.5020 
     29 O         -57.1114  -25.3322   10.7656 O.2       12 UNK        -0.5489 
     30 CA        -55.4483  -23.6217   10.7889 C.3       11 UNK         0.0294 
     31 CB        -56.2855  -22.3416   10.9399 C.3       11 UNK        -0.2019 
     32 N         -54.0950  -23.3674   11.2953 N.am      11 UNK        -0.4493 
     33 C         -53.0683  -24.2294   11.3324 C.2       11 UNK         0.4932 
     34 O         -53.1666  -25.4267   11.0624 O.2       11 UNK        -0.5029 
     35 CA        -51.6960  -23.6611   11.7452 C.3       10 UNK         0.0280 
     36 CB        -51.6955  -22.1475   12.0536 C.3       10 UNK        -0.1976 
     37 N         -51.0823  -24.3941   12.8551 N.am      10 UNK        -0.4242 
     38 C         -51.6378  -24.7021   14.0382 C.2       10 UNK         0.5072 
     39 O         -52.7949  -24.4128   14.3513 O.2       10 UNK        -0.5224 
     40 CA        -50.7686  -25.4630   15.0602 C.3       9 UNK         0.0343 
     41 CB        -51.1506  -26.9518   15.0922 C.3       9 UNK        -0.2003 
     42 N         -49.3204  -25.3419   14.8565 N.am      9 UNK        -0.4272 
     43 C         -48.6174  -24.2064   14.9963 C.2       9 UNK         0.4988 
     44 O         -49.1284  -23.1247   15.2935 O.2       9 UNK        -0.5108 
     45 CA        -47.0910  -24.2995   14.7800 C.3       8 UNK         0.0248 
     46 CB        -46.3254  -23.0796   15.3369 C.3       8 UNK        -0.2001 
     47 N         -46.5110  -25.5549   15.2723 N.am      8 UNK        -0.4140 
     48 C         -46.5162  -26.0140   16.5354 C.2       8 UNK         0.5028 
     49 O         -46.9749  -25.3845   17.4903 O.2       8 UNK        -0.5428 
     50 CA        -45.9022  -27.4124   16.7773 C.3       7 UNK         0.0264 
     51 CB        -46.5556  -28.1421   17.9714 C.3       7 UNK        -0.1988 
     52 N         -45.8893  -28.2795   15.5887 N.am      7 UNK        -0.4454 
     53 C         -46.9536  -28.6833   14.8795 C.2       7 UNK         0.5027 
     54 O         -48.1202  -28.3916   15.1520 O.2       7 UNK        -0.5083 
     55 CA        -46.6609  -29.5201   13.6195 C.3       6 UNK         0.0844 
     56 C56       -46.9784  -31.0135   13.8747 C.3       14 UNK        -0.0967 
     57 S57       -46.6051  -32.0697   12.4317 S.3       14 UNK        -0.2604 
     58 C58       -48.1741  -32.9636   12.1874 C.3       14 UNK         0.0134 
     59 N         -47.3943  -28.9783   12.4732 N.am      6 UNK        -0.4116 
     60 C         -47.2520  -27.7406   11.9789 C.2       5 UNK         0.5034 
     61 O         -46.4217  -26.9265   12.3935 O.2       5 UNK        -0.5045 
     62 CA        -48.2170  -27.3799   10.8385 C.3       5 UNK         0.0224 
     63 CB        -49.6677  -27.3231   11.3517 C.3       5 UNK        -0.1978 
     64 N         -47.8645  -26.1456   10.1252 N.am      5 UNK        -0.4737 
     65 C         -47.9743  -24.8812   10.5558 C.2       4 UNK         0.5027 
     66 O         -48.4472  -24.5507   11.6429 O.2       4 UNK        -0.5211 
     67 CA        -47.5105  -23.7931    9.5813 C.3       4 UNK         0.0297 
     68 CB        -46.2944  -24.2150    8.7318 C.3       4 UNK        -0.1993 
     69 N         -48.6200  -23.4535    8.6939 N.am      4 UNK        -0.4486 
     70 C         -49.3645  -22.3452    8.7875 C.2       3 UNK         0.4961 
     71 O         -49.1976  -21.4727    9.6398 O.2       3 UNK        -0.5105 
     72 CA        -50.4772  -22.1615    7.7473 C.3       3 UNK         0.0299 
     73 CB        -49.8856  -21.7079    6.4016 C.3       3 UNK        -0.1972 
     74 N         -51.2536  -23.3878    7.5438 N.am      3 UNK        -0.4305 
     75 C         -52.5781  -23.4895    7.7321 C.2       2 UNK         0.5006 
     76 O         -53.2710  -22.5704    8.1697 O.2       2 UNK        -0.5106 
     77 CA        -53.2750  -24.8101    7.3483 C.3       2 UNK         0.0296 
     78 CB        -54.3869  -24.5598    6.3142 C.3       2 UNK        -0.2002 
     79 N         -52.3459  -25.8046    6.8052 N.am      2 UNK        -0.4032 
     80 C         -51.8729  -26.8555    7.4883 C.2       1 UNK         0.5000 
     81 O         -52.2546  -27.1415    8.6208 O.2       1 UNK        -0.5238 
     82 H82       -49.0366  -24.5998    4.0967 H         1 UNK         0.0889 
     83 H83       -48.8955  -26.2825    3.5795 H         1 UNK         0.0889 
     84 H84       -47.6160  -25.5462    4.5469 H         1 UNK         0.0889 
     85 H85       -50.2127  -27.6313    4.7811 H         1 UNK         0.3028 
     86 H86       -51.4031  -28.5751    6.3811 H         1 UNK         0.0864 
     87 H87       -48.9984  -27.6566    8.0026 H         1 UNK         0.0720 
     88 H88       -50.2588  -28.5341    8.7909 H         1 UNK         0.0720 
     89 H89       -50.0434  -32.1232    7.5276 H         1 UNK         0.0814 
     90 H90       -51.2731  -30.8931    7.6084 H         1 UNK         0.0814 
     91 H91       -48.5062  -32.5161    9.5203 H         1 UNK         0.1469 
     92 H92       -50.1833  -31.5119   13.3393 H         1 UNK         0.1381 
     93 H93       -51.9258  -29.9472    9.7503 H         1 UNK         0.1206 
     94 H94       -52.2519  -28.8259   12.0761 H         1 UNK         0.0813 
     95 H95       -51.7315  -29.6950   13.4806 H         1 UNK         0.0813 
     96 H96       -54.1304  -30.9190   10.3145 H         1 UNK         0.0638 
     97 H97       -55.6237  -30.6514   11.1567 H         1 UNK         0.0638 
     98 H98       -53.5951  -28.5445   10.2969 H         1 UNK         0.0568 
     99 H99       -56.4165  -26.9451    9.7844 H         1 UNK         0.3450 
    100 H100      -56.7196  -27.5471    8.1744 H         1 UNK         0.3450 
    101 H101      -54.3447  -26.9874   11.6054 H         1 UNK         0.2987 
    102 H102      -57.3310  -26.3938   13.3903 H         1 UNK         0.0766 
    103 H103      -55.9398  -27.5746   15.1064 H         1 UNK         0.0798 
    104 H104      -55.7757  -25.8310   15.2488 H         1 UNK         0.0798 
    105 H105      -54.4955  -26.7800   14.4952 H         1 UNK         0.0798 
    106 H106      -54.9847  -24.8200   13.0309 H         1 UNK         0.3198 
    107 H107      -55.3478  -23.8344    9.7228 H         1 UNK         0.0843 
    108 H108      -56.3827  -22.0439   11.9847 H         1 UNK         0.0831 
    109 H109      -57.2932  -22.4839   10.5466 H         1 UNK         0.0831 
    110 H110      -55.8427  -21.5104   10.3904 H         1 UNK         0.0831 
    111 H111      -53.9000  -22.4134   11.5613 H         1 UNK         0.3133 
    112 H112      -51.0443  -23.8201   10.8855 H         1 UNK         0.0566 
    113 H113      -50.6852  -21.8017   12.2748 H         1 UNK         0.0814 
    114 H114      -52.0422  -21.5659   11.1980 H         1 UNK         0.0814 
    115 H115      -52.3206  -21.9019   12.9131 H         1 UNK         0.0814 
    116 H116      -50.1154  -24.6613   12.6898 H         1 UNK         0.3091 
    117 H117      -50.9939  -25.0395   16.0412 H         1 UNK         0.0702 
    118 H118      -52.2190  -27.0806   15.2674 H         1 UNK         0.0785 
    119 H119      -50.6294  -27.4763   15.8933 H         1 UNK         0.0785 
    120 H120      -50.9097  -27.4518   14.1548 H         1 UNK         0.0785 
    121 H121      -48.8187  -26.1983   14.6591 H         1 UNK         0.2998 
    122 H122      -46.9360  -24.3079   13.7015 H         1 UNK         0.0697 
    123 H123      -46.4755  -22.9618   16.4104 H         1 UNK         0.0825 
    124 H124      -46.6612  -22.1581   14.8597 H         1 UNK         0.0825 
    125 H125      -45.2544  -23.1653   15.1541 H         1 UNK         0.0825 
    126 H126      -46.1370  -26.1597   14.5506 H         1 UNK         0.3029 
    127 H127      -44.8569  -27.2339   17.0346 H         1 UNK         0.0897 
    128 H128      -46.1031  -29.1199   18.1358 H         1 UNK         0.0792 
    129 H129      -47.6257  -28.2881   17.8197 H         1 UNK         0.0792 
    130 H130      -46.4341  -27.5730   18.8939 H         1 UNK         0.0792 
    131 H131      -44.9710  -28.5556   15.2664 H         1 UNK         0.3086 
    132 H132      -45.5975  -29.4346   13.3854 H         1 UNK         0.0583 
    133 H133      -46.3866  -31.3859   14.7133 H         1 UNK         0.1020 
    134 H134      -48.0205  -31.1382   14.1716 H         1 UNK         0.1020 
    135 H135      -47.9784  -33.8468   11.5774 H         1 UNK         0.0694 
    136 H136      -48.5396  -33.3368   13.1454 H         1 UNK         0.0694 
    137 H137      -48.0934  -29.5897   12.0772 H         1 UNK         0.2989 
    138 H138      -48.1409  -28.1865   10.1085 H         1 UNK         0.1055 
    139 H139      -49.7635  -26.6743   12.2185 H         1 UNK         0.0806 
    140 H140      -49.9928  -28.3073   11.6679 H         1 UNK         0.0806 
    141 H141      -50.3641  -26.9715   10.5906 H         1 UNK         0.0806 
    142 H142      -47.4391  -26.2813    9.2195 H         1 UNK         0.3061 
    143 H143      -47.2128  -22.9297   10.1803 H         1 UNK         0.0734 
    144 H144      -45.9019  -23.3660    8.1720 H         1 UNK         0.0832 
    145 H145      -45.4843  -24.5852    9.3620 H         1 UNK         0.0832 
    146 H146      -46.5391  -24.9941    8.0088 H         1 UNK         0.0832 
    147 H147      -48.8367  -24.1365    7.9688 H         1 UNK         0.3156 
    148 H148      -51.1202  -21.3576    8.1118 H         1 UNK         0.0589 
    149 H149      -49.2330  -22.4667    5.9678 H         1 UNK         0.0808 
    150 H150      -50.6718  -21.4906    5.6786 H         1 UNK         0.0808 
    151 H151      -49.2952  -20.7983    6.5209 H         1 UNK         0.0808 
    152 H152      -50.7332  -24.2012    7.2299 H         1 UNK         0.3098 
    153 H153      -53.7480  -25.1907    8.2562 H         1 UNK         0.0720 
    154 H154      -54.9116  -25.4831    6.0681 H         1 UNK         0.0791 
    155 H155      -53.9918  -24.1394    5.3886 H         1 UNK         0.0791 
    156 H156      -55.1315  -23.8615    6.6989 H         1 UNK         0.0791 
    157 H157      -52.0028  -25.6479    5.8684 H         1 UNK         0.3028 
@<TRIPOS>BOND
     1    1    2 1    
     2    1   82 1    
     3    1   83 1    
     4    1   84 1    
     5    2    3 2    
     6    2    4 am   BACKBONE|DICT|INTERRES
     7    4    5 1    
     8    4   85 1    
     9    5    6 1    
    10    5   80 1    
    11    5   86 1    
    12    6    7 1    
    13    6   87 1    
    14    6   88 1    
    15    7    8 1    
    16    8    9 1    
    17    8   89 1    
    18    8   90 1    
    19    9   10 ar   
    20    9   14 ar   
    21   10   11 ar   
    22   10   91 1    
    23   11   12 ar   
    24   11   58 1    
    25   12   13 ar   
    26   12   92 1    
    27   13   14 ar   
    28   13   15 1    
    29   14   93 1    
    30   15   16 1    
    31   15   94 1    
    32   15   95 1    
    33   16   17 1    
    34   17   18 1    
    35   17   96 1    
    36   17   97 1    
    37   18   19 1    
    38   18   22 1    
    39   18   98 1    
    40   19   20 am   BACKBONE|DICT|INTERRES
    41   19   21 2    
    42   20   99 1    
    43   20  100 1    
    44   22   23 am   BACKBONE|DICT|INTERRES
    45   22  101 1    
    46   23   24 2    
    47   23   25 1    
    48   25   26 1    
    49   25   27 1    
    50   25  102 1    
    51   26  103 1    
    52   26  104 1    
    53   26  105 1    
    54   27   28 am   BACKBONE|DICT|INTERRES
    55   27  106 1    
    56   28   29 2    
    57   28   30 1    
    58   30   31 1    
    59   30   32 1    
    60   30  107 1    
    61   31  108 1    
    62   31  109 1    
    63   31  110 1    
    64   32   33 am   BACKBONE|DICT|INTERRES
    65   32  111 1    
    66   33   34 2    
    67   33   35 1    
    68   35   36 1    
    69   35   37 1    
    70   35  112 1    
    71   36  113 1    
    72   36  114 1    
    73   36  115 1    
    74   37   38 am   BACKBONE|DICT|INTERRES
    75   37  116 1    
    76   38   39 2    
    77   38   40 1    
    78   40   41 1    
    79   40   42 1    
    80   40  117 1    
    81   41  118 1    
    82   41  119 1    
    83   41  120 1    
    84   42   43 am   BACKBONE|DICT|INTERRES
    85   42  121 1    
    86   43   44 2    
    87   43   45 1    
    88   45   46 1    
    89   45   47 1    
    90   45  122 1    
    91   46  123 1    
    92   46  124 1    
    93   46  125 1    
    94   47   48 am   BACKBONE|DICT|INTERRES
    95   47  126 1    
    96   48   49 2    
    97   48   50 1    
    98   50   51 1    
    99   50   52 1    
   100   50  127 1    
   101   51  128 1    
   102   51  129 1    
   103   51  130 1    
   104   52   53 am   BACKBONE|DICT|INTERRES
   105   52  131 1    
   106   53   54 2    
   107   53   55 1    
   108   55   56 1    
   109   55   59 1    
   110   55  132 1    
   111   56   57 1    
   112   56  133 1    
   113   56  134 1    
   114   57   58 1    
   115   58  135 1    
   116   58  136 1    
   117   59   60 am   BACKBONE|DICT|INTERRES
   118   59  137 1    
   119   60   61 2    
   120   60   62 1    
   121   62   63 1    
   122   62   64 1    
   123   62  138 1    
   124   63  139 1    
   125   63  140 1    
   126   63  141 1    
   127   64   65 am   BACKBONE|DICT|INTERRES
   128   64  142 1    
   129   65   66 2    
   130   65   67 1    
   131   67   68 1    
   132   67   69 1    
   133   67  143 1    
   134   68  144 1    
   135   68  145 1    
   136   68  146 1    
   137   69   70 am   BACKBONE|DICT|INTERRES
   138   69  147 1    
   139   70   71 2    
   140   70   72 1    
   141   72   73 1    
   142   72   74 1    
   143   72  148 1    
   144   73  149 1    
   145   73  150 1    
   146   73  151 1    
   147   74   75 am   BACKBONE|DICT|INTERRES
   148   74  152 1    
   149   75   76 2    
   150   75   77 1    
   151   77   78 1    
   152   77   79 1    
   153   77  153 1    
   154   78  154 1    
   155   78  155 1    
   156   78  156 1    
   157   79   80 am   BACKBONE|DICT|INTERRES
   158   79  157 1    
   159   80   81 2    
@<TRIPOS>SUBSTRUCTURE
     1 UNK         1 GROUP             0       ****    0 ROOT    
