@<TRIPOS>MOLECULE
3R207
157   159    1
SMALL
USER_CHARGES


@<TRIPOS>ATOM
      1 CA        -50.1619  -29.3189    8.3503 C.3       0 UNK        -0.1975 
      2 C         -49.6649  -28.8205    7.0081 C.2       0 UNK         0.4852 
      3 O         -48.4565  -28.6642    6.8233 O.2       0 UNK        -0.5216 
      4 N         -50.5963  -28.5514    6.0833 N.am      1 UNK        -0.4461 
      5 CA        -50.3661  -28.1681    4.6825 C.3       1 UNK         0.0864 
      6 C6        -51.6902  -28.0280    3.8890 C.3       14 UNK        -0.0898 
      7 S7        -52.7959  -29.4725    4.0671 S.3       14 UNK        -0.2598 
      8 C8        -54.2282  -28.7572    4.9400 C.3       14 UNK         0.0286 
      9 C9        -53.9332  -28.4732    6.4074 C.ar      14 UNK        -0.0844 
     10 C10       -53.4807  -27.2106    6.8058 C.ar      14 UNK        -0.0881 
     11 C11       -53.2224  -26.9432    8.1525 C.ar      14 UNK        -0.0643 
     12 C12       -53.4380  -27.9383    9.1067 C.ar      14 UNK        -0.0930 
     13 C13       -53.9124  -29.1959    8.7265 C.ar      14 UNK        -0.0827 
     14 C14       -54.1478  -29.4630    7.3736 C.ar      14 UNK        -0.1249 
     15 C15       -54.1791  -30.2476    9.7915 C.3       14 UNK         0.0141 
     16 S16       -55.6432  -29.8006   10.7750 S.3       14 UNK        -0.2313 
     17 C17       -55.4951  -30.9306   12.1949 C.3       14 UNK        -0.0915 
     18 CA        -54.9076  -30.2295   13.4506 C.3       13 UNK         0.0968 
     19 C         -55.1610  -31.0844   14.7181 C.2       13 UNK         0.5732 
     20 N         -56.3076  -30.9138   15.3621 N.am      13 UNK        -0.7310 
     21 O         -54.3517  -31.9312   15.0962 O.2       13 UNK        -0.5035 
     22 N         -53.4681  -29.9805   13.3079 N.am      13 UNK        -0.4233 
     23 C         -52.8876  -28.7833   13.1926 C.2       13 UNK         0.4989 
     24 O         -53.4928  -27.7173   13.0762 O.2       13 UNK        -0.4996 
     25 CA        -51.3580  -28.7765   13.1751 C.3       12 UNK         0.0216 
     26 CB        -50.8211  -28.4210   11.7799 C.3       12 UNK        -0.1964 
     27 N         -50.8709  -27.8180   14.1613 N.am      12 UNK        -0.4276 
     28 C         -49.6833  -27.9044   14.7751 C.2       12 UNK         0.5020 
     29 O         -48.8555  -28.7897   14.5550 O.2       12 UNK        -0.5489 
     30 CA        -49.3797  -26.8460   15.8440 C.3       11 UNK         0.0294 
     31 CB        -49.0115  -25.4981   15.1985 C.3       11 UNK        -0.2019 
     32 N         -50.5170  -26.6871   16.7528 N.am      11 UNK        -0.4493 
     33 C         -50.7554  -27.4906   17.8016 C.2       11 UNK         0.4932 
     34 O         -49.9959  -28.3930   18.1552 O.2       11 UNK        -0.5029 
     35 CA        -52.0470  -27.2556   18.6087 C.3       10 UNK         0.0280 
     36 CB        -51.7540  -26.3883   19.8439 C.3       10 UNK        -0.1976 
     37 N         -53.1167  -26.6320   17.8295 N.am      10 UNK        -0.4242 
     38 C         -53.8068  -27.2317   16.8484 C.2       10 UNK         0.5072 
     39 O         -53.6836  -28.4191   16.5505 O.2       10 UNK        -0.5224 
     40 CA        -54.7779  -26.3429   16.0450 C.3       9 UNK         0.0343 
     41 CB        -56.1997  -26.4486   16.6190 C.3       9 UNK        -0.2003 
     42 N         -54.3797  -24.9290   15.9805 N.am      9 UNK        -0.4272 
     43 C         -53.2170  -24.4792   15.4872 C.2       9 UNK         0.4988 
     44 O         -52.3447  -25.2093   15.0052 O.2       9 UNK        -0.5108 
     45 CA        -52.9464  -22.9782   15.6402 C.3       8 UNK         0.0248 
     46 CB        -52.7021  -22.6275   17.1241 C.3       8 UNK        -0.2001 
     47 N         -51.7708  -22.6485   14.8404 N.am      8 UNK        -0.4140 
     48 C         -51.3082  -21.4266   14.5537 C.2       8 UNK         0.5028 
     49 O         -51.8475  -20.3817   14.9207 O.2       8 UNK        -0.5428 
     50 CA        -50.0166  -21.3535   13.7195 C.3       7 UNK         0.0264 
     51 CB        -48.7866  -21.2782   14.6393 C.3       7 UNK        -0.1988 
     52 N         -49.8531  -22.4785   12.7943 N.am      7 UNK        -0.4454 
     53 C         -50.5688  -22.6527   11.6725 C.2       7 UNK         0.5027 
     54 O         -51.4637  -21.8818   11.3211 O.2       7 UNK        -0.5083 
     55 CA        -50.2266  -23.8973   10.8150 C.3       6 UNK         0.0844 
     56 C56       -50.7519  -23.8049    9.3544 C.3       14 UNK        -0.0967 
     57 S57       -50.9337  -25.4584    8.6071 S.3       14 UNK        -0.2604 
     58 C58       -52.7482  -25.5697    8.5885 C.3       14 UNK         0.0134 
     59 N         -48.8007  -24.2487   10.8871 N.am      6 UNK        -0.4116 
     60 C         -47.7618  -23.4890   10.5112 C.2       5 UNK         0.5034 
     61 O         -47.8741  -22.3812    9.9861 O.2       5 UNK        -0.5045 
     62 CA        -46.3504  -24.0327   10.7975 C.3       5 UNK         0.0224 
     63 CB        -45.9972  -23.8832   12.2908 C.3       5 UNK        -0.1978 
     64 N         -46.0960  -25.4001   10.3234 N.am      5 UNK        -0.4737 
     65 C         -46.6691  -26.5540   10.6901 C.2       4 UNK         0.5027 
     66 O         -47.5658  -26.6338   11.5313 O.2       4 UNK        -0.5211 
     67 CA        -46.1606  -27.8204    9.9720 C.3       4 UNK         0.0297 
     68 CB        -46.9622  -29.0770   10.3518 C.3       4 UNK        -0.1993 
     69 N         -46.1678  -27.6617    8.5126 N.am      4 UNK        -0.4486 
     70 C         -45.2075  -27.0502    7.8030 C.2       3 UNK         0.4961 
     71 O         -44.2041  -26.5469    8.3088 O.2       3 UNK        -0.5105 
     72 CA        -45.4302  -26.9273    6.2916 C.3       3 UNK         0.0299 
     73 CB        -45.2002  -28.2756    5.5892 C.3       3 UNK        -0.1972 
     74 N         -46.7848  -26.4528    6.0189 N.am      3 UNK        -0.4305 
     75 C         -47.1385  -25.1665    5.8832 C.2       2 UNK         0.5006 
     76 O         -46.3311  -24.2371    5.9276 O.2       2 UNK        -0.5106 
     77 CA        -48.6373  -24.8414    5.6934 C.3       2 UNK         0.0296 
     78 CB        -48.8745  -23.8041    4.5758 C.3       2 UNK        -0.2002 
     79 N         -49.4987  -26.0197    5.5199 N.am      2 UNK        -0.4032 
     80 C         -49.5017  -26.9006    4.5051 C.2       1 UNK         0.5000 
     81 O         -48.8292  -26.7756    3.4807 O.2       1 UNK        -0.5238 
     82 H82       -49.5305  -30.1288    8.7135 H         1 UNK         0.0889 
     83 H83       -51.1818  -29.6946    8.2881 H         1 UNK         0.0889 
     84 H84       -50.1357  -28.4991    9.0653 H         1 UNK         0.0889 
     85 H85       -51.5706  -28.6904    6.3213 H         1 UNK         0.3028 
     86 H86       -49.7992  -28.9883    4.2370 H         1 UNK         0.0864 
     87 H87       -52.2220  -27.1206    4.1765 H         1 UNK         0.0720 
     88 H88       -51.4739  -27.9151    2.8248 H         1 UNK         0.0720 
     89 H89       -55.0634  -29.4553    4.8657 H         1 UNK         0.0814 
     90 H90       -54.5544  -27.8488    4.4309 H         1 UNK         0.0814 
     91 H91       -53.3343  -26.4301    6.0723 H         1 UNK         0.1469 
     92 H92       -53.2617  -27.7267   10.1527 H         1 UNK         0.1381 
     93 H93       -54.5137  -30.4354    7.0728 H         1 UNK         0.1206 
     94 H94       -53.3074  -30.3321   10.4406 H         1 UNK         0.0813 
     95 H95       -54.3309  -31.2303    9.3427 H         1 UNK         0.0813 
     96 H96       -54.9032  -31.8051   11.9185 H         1 UNK         0.0638 
     97 H97       -56.5018  -31.3010   12.3986 H         1 UNK         0.0638 
     98 H98       -55.4283  -29.2811   13.6002 H         1 UNK         0.0568 
     99 H99       -56.4953  -31.4719   16.1799 H         1 UNK         0.3450 
    100 H100      -56.9872  -30.2385   15.0495 H         1 UNK         0.3450 
    101 H101      -52.8905  -30.7961   13.4567 H         1 UNK         0.2987 
    102 H102      -51.0017  -29.7737   13.4434 H         1 UNK         0.0766 
    103 H103      -49.7321  -28.4515   11.7553 H         1 UNK         0.0798 
    104 H104      -51.1330  -27.4240   11.4657 H         1 UNK         0.0798 
    105 H105      -51.1867  -29.1331   11.0411 H         1 UNK         0.0798 
    106 H106      -51.5134  -27.0674   14.4010 H         1 UNK         0.3198 
    107 H107      -48.5132  -27.1836   16.4174 H         1 UNK         0.0843 
    108 H108      -49.7931  -25.1322   14.5346 H         1 UNK         0.0831 
    109 H109      -48.1055  -25.5994   14.5997 H         1 UNK         0.0831 
    110 H110      -48.8199  -24.7345   15.9523 H         1 UNK         0.0831 
    111 H111      -51.2221  -26.0142   16.4761 H         1 UNK         0.3133 
    112 H112      -52.4025  -28.2294   18.9524 H         1 UNK         0.0566 
    113 H113      -52.6398  -26.2738   20.4690 H         1 UNK         0.0814 
    114 H114      -51.4056  -25.3925   19.5666 H         1 UNK         0.0814 
    115 H115      -50.9797  -26.8425   20.4640 H         1 UNK         0.0814 
    116 H116      -53.3098  -25.6599   18.0186 H         1 UNK         0.3091 
    117 H117      -54.8008  -26.7224   15.0234 H         1 UNK         0.0702 
    118 H118      -56.9178  -25.9056   16.0043 H         1 UNK         0.0785 
    119 H119      -56.2571  -26.0535   17.6341 H         1 UNK         0.0785 
    120 H120      -56.5285  -27.4884   16.6547 H         1 UNK         0.0785 
    121 H121      -55.0353  -24.2607   16.3601 H         1 UNK         0.2998 
    122 H122      -53.8052  -22.4242   15.2565 H         1 UNK         0.0697 
    123 H123      -52.5247  -21.5609   17.2612 H         1 UNK         0.0825 
    124 H124      -51.8393  -23.1602   17.5265 H         1 UNK         0.0825 
    125 H125      -53.5631  -22.8822   17.7429 H         1 UNK         0.0825 
    126 H126      -51.2998  -23.4617   14.4651 H         1 UNK         0.3029 
    127 H127      -50.0591  -20.4335   13.1318 H         1 UNK         0.0897 
    128 H128      -48.6775  -22.1778   15.2462 H         1 UNK         0.0792 
    129 H129      -48.8639  -20.4320   15.3237 H         1 UNK         0.0792 
    130 H130      -47.8690  -21.1450   14.0658 H         1 UNK         0.0792 
    131 H131      -49.1254  -23.1443   13.0064 H         1 UNK         0.3086 
    132 H132      -50.7571  -24.7144   11.3072 H         1 UNK         0.0583 
    133 H133      -51.7191  -23.3024    9.3046 H         1 UNK         0.1020 
    134 H134      -50.0867  -23.2033    8.7339 H         1 UNK         0.1020 
    135 H135      -53.1344  -25.3466    9.5848 H         1 UNK         0.0694 
    136 H136      -53.1516  -24.8052    7.9224 H         1 UNK         0.0694 
    137 H137      -48.5764  -25.1690   11.2637 H         1 UNK         0.2989 
    138 H138      -45.6610  -23.3982   10.2374 H         1 UNK         0.1055 
    139 H139      -46.6214  -24.5111   12.9262 H         1 UNK         0.0806 
    140 H140      -46.1289  -22.8523   12.6225 H         1 UNK         0.0806 
    141 H141      -44.9574  -24.1513   12.4782 H         1 UNK         0.0806 
    142 H142      -45.3777  -25.4788    9.6097 H         1 UNK         0.3061 
    143 H143      -45.1323  -27.9804   10.3034 H         1 UNK         0.0734 
    144 H144      -48.0165  -28.9625   10.1113 H         1 UNK         0.0832 
    145 H145      -46.5899  -29.9620    9.8359 H         1 UNK         0.0832 
    146 H146      -46.8962  -29.2723   11.4231 H         1 UNK         0.0832 
    147 H147      -46.9759  -28.0265    8.0164 H         1 UNK         0.3156 
    148 H148      -44.7028  -26.2156    5.8951 H         1 UNK         0.0589 
    149 H149      -45.8905  -29.0442    5.9390 H         1 UNK         0.0808 
    150 H150      -44.1880  -28.6402    5.7690 H         1 UNK         0.0808 
    151 H151      -45.3246  -28.1835    4.5101 H         1 UNK         0.0808 
    152 H152      -47.5133  -27.1605    6.0326 H         1 UNK         0.3098 
    153 H153      -48.9522  -24.3808    6.6302 H         1 UNK         0.0720 
    154 H154      -49.9341  -23.5721    4.4686 H         1 UNK         0.0791 
    155 H155      -48.5066  -24.1532    3.6107 H         1 UNK         0.0791 
    156 H156      -48.3607  -22.8677    4.7964 H         1 UNK         0.0791 
    157 H157      -50.0856  -26.2356    6.3159 H         1 UNK         0.3028 
@<TRIPOS>BOND
     1    1    2 1    
     2    1   82 1    
     3    1   83 1    
     4    1   84 1    
     5    2    3 2    
     6    2    4 am   BACKBONE|DICT|INTERRES
     7    4    5 1    
     8    4   85 1    
     9    5    6 1    
    10    5   80 1    
    11    5   86 1    
    12    6    7 1    
    13    6   87 1    
    14    6   88 1    
    15    7    8 1    
    16    8    9 1    
    17    8   89 1    
    18    8   90 1    
    19    9   10 ar   
    20    9   14 ar   
    21   10   11 ar   
    22   10   91 1    
    23   11   12 ar   
    24   11   58 1    
    25   12   13 ar   
    26   12   92 1    
    27   13   14 ar   
    28   13   15 1    
    29   14   93 1    
    30   15   16 1    
    31   15   94 1    
    32   15   95 1    
    33   16   17 1    
    34   17   18 1    
    35   17   96 1    
    36   17   97 1    
    37   18   19 1    
    38   18   22 1    
    39   18   98 1    
    40   19   20 am   BACKBONE|DICT|INTERRES
    41   19   21 2    
    42   20   99 1    
    43   20  100 1    
    44   22   23 am   BACKBONE|DICT|INTERRES
    45   22  101 1    
    46   23   24 2    
    47   23   25 1    
    48   25   26 1    
    49   25   27 1    
    50   25  102 1    
    51   26  103 1    
    52   26  104 1    
    53   26  105 1    
    54   27   28 am   BACKBONE|DICT|INTERRES
    55   27  106 1    
    56   28   29 2    
    57   28   30 1    
    58   30   31 1    
    59   30   32 1    
    60   30  107 1    
    61   31  108 1    
    62   31  109 1    
    63   31  110 1    
    64   32   33 am   BACKBONE|DICT|INTERRES
    65   32  111 1    
    66   33   34 2    
    67   33   35 1    
    68   35   36 1    
    69   35   37 1    
    70   35  112 1    
    71   36  113 1    
    72   36  114 1    
    73   36  115 1    
    74   37   38 am   BACKBONE|DICT|INTERRES
    75   37  116 1    
    76   38   39 2    
    77   38   40 1    
    78   40   41 1    
    79   40   42 1    
    80   40  117 1    
    81   41  118 1    
    82   41  119 1    
    83   41  120 1    
    84   42   43 am   BACKBONE|DICT|INTERRES
    85   42  121 1    
    86   43   44 2    
    87   43   45 1    
    88   45   46 1    
    89   45   47 1    
    90   45  122 1    
    91   46  123 1    
    92   46  124 1    
    93   46  125 1    
    94   47   48 am   BACKBONE|DICT|INTERRES
    95   47  126 1    
    96   48   49 2    
    97   48   50 1    
    98   50   51 1    
    99   50   52 1    
   100   50  127 1    
   101   51  128 1    
   102   51  129 1    
   103   51  130 1    
   104   52   53 am   BACKBONE|DICT|INTERRES
   105   52  131 1    
   106   53   54 2    
   107   53   55 1    
   108   55   56 1    
   109   55   59 1    
   110   55  132 1    
   111   56   57 1    
   112   56  133 1    
   113   56  134 1    
   114   57   58 1    
   115   58  135 1    
   116   58  136 1    
   117   59   60 am   BACKBONE|DICT|INTERRES
   118   59  137 1    
   119   60   61 2    
   120   60   62 1    
   121   62   63 1    
   122   62   64 1    
   123   62  138 1    
   124   63  139 1    
   125   63  140 1    
   126   63  141 1    
   127   64   65 am   BACKBONE|DICT|INTERRES
   128   64  142 1    
   129   65   66 2    
   130   65   67 1    
   131   67   68 1    
   132   67   69 1    
   133   67  143 1    
   134   68  144 1    
   135   68  145 1    
   136   68  146 1    
   137   69   70 am   BACKBONE|DICT|INTERRES
   138   69  147 1    
   139   70   71 2    
   140   70   72 1    
   141   72   73 1    
   142   72   74 1    
   143   72  148 1    
   144   73  149 1    
   145   73  150 1    
   146   73  151 1    
   147   74   75 am   BACKBONE|DICT|INTERRES
   148   74  152 1    
   149   75   76 2    
   150   75   77 1    
   151   77   78 1    
   152   77   79 1    
   153   77  153 1    
   154   78  154 1    
   155   78  155 1    
   156   78  156 1    
   157   79   80 am   BACKBONE|DICT|INTERRES
   158   79  157 1    
   159   80   81 2    
@<TRIPOS>SUBSTRUCTURE
     1 UNK         1 GROUP             0       ****    0 ROOT    
