@<TRIPOS>MOLECULE
3R207
157   159    1
SMALL
USER_CHARGES


@<TRIPOS>ATOM
      1 CA        -47.0110  -26.9905    4.4989 C.3       0 UNK        -0.1975 
      2 C         -48.2540  -27.8660    4.4410 C.2       0 UNK         0.4852 
      3 O         -49.1820  -27.5641    3.6904 O.2       0 UNK        -0.5216 
      4 N         -48.2810  -28.9471    5.2318 N.am      1 UNK        -0.4461 
      5 CA        -49.3964  -29.8991    5.3322 C.3       1 UNK         0.0864 
      6 C6        -48.9377  -31.2650    5.9042 C.3       14 UNK        -0.0898 
      7 S7        -48.0185  -31.1566    7.4807 S.3       14 UNK        -0.2598 
      8 C8        -49.1197  -32.0241    8.6487 C.3       14 UNK         0.0286 
      9 C9        -50.0814  -31.0841    9.3647 C.ar      14 UNK        -0.0844 
     10 C10       -49.5783  -30.0539   10.1639 C.ar      14 UNK        -0.0881 
     11 C11       -50.4402  -29.2214   10.8823 C.ar      14 UNK        -0.0643 
     12 C12       -51.8187  -29.4266   10.8042 C.ar      14 UNK        -0.0930 
     13 C13       -52.3374  -30.4438    9.9983 C.ar      14 UNK        -0.0827 
     14 C14       -51.4658  -31.2698    9.2788 C.ar      14 UNK        -0.1249 
     15 C15       -53.8416  -30.6380    9.9135 C.3       14 UNK         0.0141 
     16 S16       -54.5694  -29.5298    8.6685 S.3       14 UNK        -0.2313 
     17 C17       -56.3088  -29.4740    9.2110 C.3       14 UNK        -0.0915 
     18 CA        -56.7745  -28.0420    9.5874 C.3       13 UNK         0.0968 
     19 C         -58.2855  -28.0464    9.9648 C.2       13 UNK         0.5732 
     20 N         -58.6614  -27.8490   11.2243 N.am      13 UNK        -0.7310 
     21 O         -59.1328  -28.2287    9.0937 O.2       13 UNK        -0.5035 
     22 N         -55.9096  -27.4193   10.6027 N.am      13 UNK        -0.4233 
     23 C         -55.8851  -26.1081   10.8752 C.2       13 UNK         0.4989 
     24 O         -56.4527  -25.2635   10.1806 O.2       13 UNK        -0.4996 
     25 CA        -55.1052  -25.6500   12.1277 C.3       12 UNK         0.0216 
     26 CB        -55.8321  -24.5037   12.8611 C.3       12 UNK        -0.1964 
     27 N         -54.7593  -26.7119   13.0857 N.am      12 UNK        -0.4276 
     28 C         -55.5950  -27.5473   13.7257 C.2       12 UNK         0.5020 
     29 O         -56.8076  -27.5975   13.5130 O.2       12 UNK        -0.5489 
     30 CA        -54.9805  -28.5217   14.7480 C.3       11 UNK         0.0294 
     31 CB        -54.8167  -29.9160   14.1206 C.3       11 UNK        -0.2019 
     32 N         -53.6870  -28.0826   15.2776 N.am      11 UNK        -0.4493 
     33 C         -53.5079  -27.0508   16.1138 C.2       11 UNK         0.4932 
     34 O         -54.4285  -26.3839   16.5875 O.2       11 UNK        -0.5029 
     35 CA        -52.0546  -26.6771   16.4665 C.3       10 UNK         0.0280 
     36 CB        -51.0217  -27.7792   16.1397 C.3       10 UNK        -0.1976 
     37 N         -51.6617  -25.4100   15.8420 N.am      10 UNK        -0.4242 
     38 C         -51.7013  -25.0953   14.5400 C.2       10 UNK         0.5072 
     39 O         -52.0753  -25.8717   13.6596 O.2       10 UNK        -0.5224 
     40 CA        -51.2399  -23.6827   14.1380 C.3       9 UNK         0.0343 
     41 CB        -52.3795  -22.6577   14.2889 C.3       9 UNK        -0.2003 
     42 N         -50.0001  -23.2278   14.7862 N.am      9 UNK        -0.4272 
     43 C         -49.7846  -22.9189   16.0738 C.2       9 UNK         0.4988 
     44 O         -50.6558  -22.9988   16.9418 O.2       9 UNK        -0.5108 
     45 CA        -48.3611  -22.4801   16.4750 C.3       8 UNK         0.0248 
     46 CB        -47.9799  -23.0058   17.8715 C.3       8 UNK        -0.2001 
     47 N         -47.3386  -22.9183   15.5219 N.am      8 UNK        -0.4140 
     48 C         -46.8889  -22.2335   14.4651 C.2       8 UNK         0.5028 
     49 O         -47.3095  -21.1226   14.1434 O.2       8 UNK        -0.5428 
     50 CA        -45.8088  -22.9131   13.6021 C.3       7 UNK         0.0264 
     51 CB        -44.4335  -22.8857   14.2975 C.3       7 UNK        -0.1988 
     52 N         -46.1628  -24.2673   13.1486 N.am      7 UNK        -0.4454 
     53 C         -46.3601  -25.3819   13.8744 C.2       7 UNK         0.5027 
     54 O         -46.2054  -25.4280   15.0961 O.2       7 UNK        -0.5083 
     55 CA        -46.8563  -26.6491   13.1461 C.3       6 UNK         0.0844 
     56 C56       -48.2184  -27.0980   13.7364 C.3       14 UNK        -0.0967 
     57 S57       -48.7946  -28.6820   13.0449 S.3       14 UNK        -0.2604 
     58 C58       -49.8816  -28.0829   11.7156 C.3       14 UNK         0.0134 
     59 N         -46.9433  -26.4318   11.6997 N.am      6 UNK        -0.4116 
     60 C         -46.0352  -26.8180   10.7937 C.2       5 UNK         0.5034 
     61 O         -45.0113  -27.4431   11.0703 O.2       5 UNK        -0.5045 
     62 CA        -46.2981  -26.4254    9.3244 C.3       5 UNK         0.0224 
     63 CB        -46.9132  -27.6060    8.5559 C.3       5 UNK        -0.1978 
     64 N         -47.1631  -25.2504    9.1636 N.am      5 UNK        -0.4737 
     65 C         -46.8834  -24.0221    9.6241 C.2       4 UNK         0.5027 
     66 O         -45.8221  -23.7281   10.1724 O.2       4 UNK        -0.5211 
     67 CA        -47.9927  -22.9588    9.5372 C.3       4 UNK         0.0297 
     68 CB        -47.7925  -22.0820    8.2916 C.3       4 UNK        -0.1993 
     69 N         -49.3571  -23.4972    9.5337 N.am      4 UNK        -0.4486 
     70 C         -49.8912  -24.3204   10.4480 C.2       3 UNK         0.4961 
     71 O         -49.2805  -24.7424   11.4310 O.2       3 UNK        -0.5105 
     72 CA        -51.3526  -24.7505   10.2171 C.3       3 UNK         0.0299 
     73 CB        -52.2306  -23.5963    9.6938 C.3       3 UNK        -0.1972 
     74 N         -51.5570  -25.9394    9.3765 N.am      3 UNK        -0.4305 
     75 C         -50.8517  -26.3901    8.3277 C.2       2 UNK         0.5006 
     76 O         -49.7676  -25.9417    7.9434 O.2       2 UNK        -0.5106 
     77 CA        -51.5138  -27.5223    7.5378 C.3       2 UNK         0.0296 
     78 CB        -52.6252  -26.9575    6.6285 C.3       2 UNK        -0.2002 
     79 N         -50.4916  -28.2001    6.7508 N.am      2 UNK        -0.4032 
     80 C         -50.6321  -29.3503    6.0806 C.2       1 UNK         0.5000 
     81 O         -51.6882  -29.9827    6.0196 O.2       1 UNK        -0.5238 
     82 H82       -46.6407  -26.7963    3.4926 H         1 UNK         0.0889 
     83 H83       -46.2080  -27.4594    5.0674 H         1 UNK         0.0889 
     84 H84       -47.2477  -26.0347    4.9661 H         1 UNK         0.0889 
     85 H85       -47.4900  -29.1597    5.8240 H         1 UNK         0.3028 
     86 H86       -49.7430  -30.0883    4.3137 H         1 UNK         0.0864 
     87 H87       -49.7838  -31.9473    6.0045 H         1 UNK         0.0720 
     88 H88       -48.2737  -31.7433    5.1826 H         1 UNK         0.0720 
     89 H89       -49.6552  -32.8261    8.1390 H         1 UNK         0.0814 
     90 H90       -48.5000  -32.5130    9.4015 H         1 UNK         0.0814 
     91 H91       -48.5094  -29.9057   10.2363 H         1 UNK         0.1469 
     92 H92       -52.4903  -28.7844   11.3568 H         1 UNK         0.1381 
     93 H93       -51.8665  -32.0596    8.6583 H         1 UNK         0.1206 
     94 H94       -54.2859  -30.4457   10.8907 H         1 UNK         0.0813 
     95 H95       -54.0835  -31.6718    9.6625 H         1 UNK         0.0813 
     96 H96       -56.4600  -30.1570   10.0488 H         1 UNK         0.0638 
     97 H97       -56.9151  -29.8653    8.3920 H         1 UNK         0.0638 
     98 H98       -56.6949  -27.4332    8.6846 H         1 UNK         0.0568 
     99 H99       -57.9761  -27.7147   11.9628 H         1 UNK         0.3450 
    100 H100      -59.6431  -27.8519   11.4493 H         1 UNK         0.3450 
    101 H101      -55.4357  -28.0483   11.2305 H         1 UNK         0.2987 
    102 H102      -54.1554  -25.2578   11.7637 H         1 UNK         0.0766 
    103 H103      -55.9272  -23.6240   12.2234 H         1 UNK         0.0798 
    104 H104      -55.2913  -24.1981   13.7566 H         1 UNK         0.0798 
    105 H105      -56.8376  -24.7968   13.1654 H         1 UNK         0.0798 
    106 H106      -53.7768  -26.7261   13.3528 H         1 UNK         0.3198 
    107 H107      -55.6819  -28.5997   15.5817 H         1 UNK         0.0843 
    108 H108      -55.7615  -30.2748   13.7092 H         1 UNK         0.0831 
    109 H109      -54.4918  -30.6472   14.8611 H         1 UNK         0.0831 
    110 H110      -54.0868  -29.9132   13.3106 H         1 UNK         0.0831 
    111 H111      -52.8660  -28.5600   14.9344 H         1 UNK         0.3133 
    112 H112      -52.0316  -26.5123   17.5447 H         1 UNK         0.0566 
    113 H113      -50.0324  -27.5026   16.5038 H         1 UNK         0.0814 
    114 H114      -51.2834  -28.7225   16.6210 H         1 UNK         0.0814 
    115 H115      -50.9348  -27.9629   15.0687 H         1 UNK         0.0814 
    116 H116      -51.3795  -24.6649   16.4751 H         1 UNK         0.3091 
    117 H117      -51.0032  -23.7259   13.0777 H         1 UNK         0.0702 
    118 H118      -52.7342  -22.5849   15.3174 H         1 UNK         0.0785 
    119 H119      -53.2327  -22.9370   13.6705 H         1 UNK         0.0785 
    120 H120      -52.0635  -21.6641   13.9712 H         1 UNK         0.0785 
    121 H121      -49.2071  -23.1466   14.1657 H         1 UNK         0.2998 
    122 H122      -48.3670  -21.3891   16.5173 H         1 UNK         0.0697 
    123 H123      -48.0021  -24.0957   17.9109 H         1 UNK         0.0825 
    124 H124      -48.6662  -22.6364   18.6348 H         1 UNK         0.0825 
    125 H125      -46.9796  -22.6805   18.1580 H         1 UNK         0.0825 
    126 H126      -46.9492  -23.8493   15.6609 H         1 UNK         0.3029 
    127 H127      -45.7206  -22.3171   12.6918 H         1 UNK         0.0897 
    128 H128      -43.6570  -23.2954   13.6515 H         1 UNK         0.0792 
    129 H129      -44.1438  -21.8631   14.5428 H         1 UNK         0.0792 
    130 H130      -44.4285  -23.4538   15.2280 H         1 UNK         0.0792 
    131 H131      -46.2804  -24.3432   12.1444 H         1 UNK         0.3086 
    132 H132      -46.1258  -27.4330   13.3559 H         1 UNK         0.0583 
    133 H133      -48.1379  -27.2359   14.8164 H         1 UNK         0.1020 
    134 H134      -48.9840  -26.3335   13.5903 H         1 UNK         0.1020 
    135 H135      -50.6845  -27.4877   12.1505 H         1 UNK         0.0694 
    136 H136      -49.3299  -27.4193   11.0523 H         1 UNK         0.0694 
    137 H137      -47.7549  -25.9040   11.3895 H         1 UNK         0.2989 
    138 H138      -45.3303  -26.1877    8.8776 H         1 UNK         0.1055 
    139 H139      -46.2866  -28.4959    8.6320 H         1 UNK         0.0806 
    140 H140      -47.8997  -27.8671    8.9395 H         1 UNK         0.0806 
    141 H141      -47.0185  -27.3720    7.4979 H         1 UNK         0.0806 
    142 H142      -48.0720  -25.4054    8.7323 H         1 UNK         0.3061 
    143 H143      -47.9002  -22.3256   10.4220 H         1 UNK         0.0734 
    144 H144      -46.7922  -21.6463    8.2773 H         1 UNK         0.0832 
    145 H145      -47.9106  -22.6563    7.3716 H         1 UNK         0.0832 
    146 H146      -48.5028  -21.2554    8.2672 H         1 UNK         0.0832 
    147 H147      -49.9288  -23.2551    8.7378 H         1 UNK         0.3156 
    148 H148      -51.7373  -25.0222   11.1992 H         1 UNK         0.0589 
    149 H149      -53.2893  -23.8482    9.7588 H         1 UNK         0.0808 
    150 H150      -52.0833  -22.6883   10.2808 H         1 UNK         0.0808 
    151 H151      -52.0171  -23.3576    8.6514 H         1 UNK         0.0808 
    152 H152      -52.4051  -26.4461    9.5834 H         1 UNK         0.3098 
    153 H153      -51.9367  -28.2406    8.2391 H         1 UNK         0.0720 
    154 H154      -53.1564  -27.7508    6.1030 H         1 UNK         0.0791 
    155 H155      -52.2220  -26.2725    5.8816 H         1 UNK         0.0791 
    156 H156      -53.3710  -26.4111    7.2072 H         1 UNK         0.0791 
    157 H157      -49.5945  -27.7321    6.7532 H         1 UNK         0.3028 
@<TRIPOS>BOND
     1    1    2 1    
     2    1   82 1    
     3    1   83 1    
     4    1   84 1    
     5    2    3 2    
     6    2    4 am   BACKBONE|DICT|INTERRES
     7    4    5 1    
     8    4   85 1    
     9    5    6 1    
    10    5   80 1    
    11    5   86 1    
    12    6    7 1    
    13    6   87 1    
    14    6   88 1    
    15    7    8 1    
    16    8    9 1    
    17    8   89 1    
    18    8   90 1    
    19    9   10 ar   
    20    9   14 ar   
    21   10   11 ar   
    22   10   91 1    
    23   11   12 ar   
    24   11   58 1    
    25   12   13 ar   
    26   12   92 1    
    27   13   14 ar   
    28   13   15 1    
    29   14   93 1    
    30   15   16 1    
    31   15   94 1    
    32   15   95 1    
    33   16   17 1    
    34   17   18 1    
    35   17   96 1    
    36   17   97 1    
    37   18   19 1    
    38   18   22 1    
    39   18   98 1    
    40   19   20 am   BACKBONE|DICT|INTERRES
    41   19   21 2    
    42   20   99 1    
    43   20  100 1    
    44   22   23 am   BACKBONE|DICT|INTERRES
    45   22  101 1    
    46   23   24 2    
    47   23   25 1    
    48   25   26 1    
    49   25   27 1    
    50   25  102 1    
    51   26  103 1    
    52   26  104 1    
    53   26  105 1    
    54   27   28 am   BACKBONE|DICT|INTERRES
    55   27  106 1    
    56   28   29 2    
    57   28   30 1    
    58   30   31 1    
    59   30   32 1    
    60   30  107 1    
    61   31  108 1    
    62   31  109 1    
    63   31  110 1    
    64   32   33 am   BACKBONE|DICT|INTERRES
    65   32  111 1    
    66   33   34 2    
    67   33   35 1    
    68   35   36 1    
    69   35   37 1    
    70   35  112 1    
    71   36  113 1    
    72   36  114 1    
    73   36  115 1    
    74   37   38 am   BACKBONE|DICT|INTERRES
    75   37  116 1    
    76   38   39 2    
    77   38   40 1    
    78   40   41 1    
    79   40   42 1    
    80   40  117 1    
    81   41  118 1    
    82   41  119 1    
    83   41  120 1    
    84   42   43 am   BACKBONE|DICT|INTERRES
    85   42  121 1    
    86   43   44 2    
    87   43   45 1    
    88   45   46 1    
    89   45   47 1    
    90   45  122 1    
    91   46  123 1    
    92   46  124 1    
    93   46  125 1    
    94   47   48 am   BACKBONE|DICT|INTERRES
    95   47  126 1    
    96   48   49 2    
    97   48   50 1    
    98   50   51 1    
    99   50   52 1    
   100   50  127 1    
   101   51  128 1    
   102   51  129 1    
   103   51  130 1    
   104   52   53 am   BACKBONE|DICT|INTERRES
   105   52  131 1    
   106   53   54 2    
   107   53   55 1    
   108   55   56 1    
   109   55   59 1    
   110   55  132 1    
   111   56   57 1    
   112   56  133 1    
   113   56  134 1    
   114   57   58 1    
   115   58  135 1    
   116   58  136 1    
   117   59   60 am   BACKBONE|DICT|INTERRES
   118   59  137 1    
   119   60   61 2    
   120   60   62 1    
   121   62   63 1    
   122   62   64 1    
   123   62  138 1    
   124   63  139 1    
   125   63  140 1    
   126   63  141 1    
   127   64   65 am   BACKBONE|DICT|INTERRES
   128   64  142 1    
   129   65   66 2    
   130   65   67 1    
   131   67   68 1    
   132   67   69 1    
   133   67  143 1    
   134   68  144 1    
   135   68  145 1    
   136   68  146 1    
   137   69   70 am   BACKBONE|DICT|INTERRES
   138   69  147 1    
   139   70   71 2    
   140   70   72 1    
   141   72   73 1    
   142   72   74 1    
   143   72  148 1    
   144   73  149 1    
   145   73  150 1    
   146   73  151 1    
   147   74   75 am   BACKBONE|DICT|INTERRES
   148   74  152 1    
   149   75   76 2    
   150   75   77 1    
   151   77   78 1    
   152   77   79 1    
   153   77  153 1    
   154   78  154 1    
   155   78  155 1    
   156   78  156 1    
   157   79   80 am   BACKBONE|DICT|INTERRES
   158   79  157 1    
   159   80   81 2    
@<TRIPOS>SUBSTRUCTURE
     1 UNK         1 GROUP             0       ****    0 ROOT    
