@<TRIPOS>MOLECULE
3R207
157   159    1
SMALL
USER_CHARGES


@<TRIPOS>ATOM
      1 CA        -46.9074  -32.3912    5.2933 C.3       0 UNK        -0.1975 
      2 C         -47.2172  -31.0757    5.9921 C.2       0 UNK         0.4852 
      3 O         -46.4634  -30.6657    6.8765 O.2       0 UNK        -0.5216 
      4 N         -48.3172  -30.4171    5.5972 N.am      1 UNK        -0.4461 
      5 CA        -48.8313  -29.1356    6.1033 C.3       1 UNK         0.0864 
      6 C6        -49.1789  -29.1433    7.6183 C.3       14 UNK        -0.0898 
      7 S7        -50.6461  -30.1696    7.9656 S.3       14 UNK        -0.2598 
      8 C8        -51.2637  -29.3968    9.4998 C.3       14 UNK         0.0286 
      9 C9        -52.2441  -28.2387    9.3050 C.ar      14 UNK        -0.0844 
     10 C10       -52.1544  -27.3552    8.2212 C.ar      14 UNK        -0.0881 
     11 C11       -53.0170  -26.2610    8.1166 C.ar      14 UNK        -0.0643 
     12 C12       -54.0054  -26.0681    9.0849 C.ar      14 UNK        -0.0930 
     13 C13       -54.1124  -26.9416   10.1693 C.ar      14 UNK        -0.0827 
     14 C14       -53.2281  -28.0193   10.2758 C.ar      14 UNK        -0.1249 
     15 C15       -55.1423  -26.6836   11.2561 C.3       14 UNK         0.0141 
     16 S16       -56.7155  -27.5326   10.9401 S.3       14 UNK        -0.2313 
     17 C17       -57.6300  -27.0587   12.4517 C.3       14 UNK        -0.0915 
     18 CA        -57.9275  -28.2370   13.4188 C.3       13 UNK         0.0968 
     19 C         -59.0946  -29.1351   12.9103 C.2       13 UNK         0.5732 
     20 N         -58.8897  -30.4241   12.6645 N.am      13 UNK        -0.7310 
     21 O         -60.2148  -28.6546   12.7533 O.2       13 UNK        -0.5035 
     22 N         -56.7044  -28.9663   13.7956 N.am      13 UNK        -0.4233 
     23 C         -56.5511  -29.6709   14.9244 C.2       13 UNK         0.4989 
     24 O         -57.3805  -29.6946   15.8346 O.2       13 UNK        -0.4996 
     25 CA        -55.2690  -30.5041   15.0638 C.3       12 UNK         0.0216 
     26 CB        -54.6591  -30.9298   13.7108 C.3       12 UNK        -0.1964 
     27 N         -54.2742  -29.7385   15.8069 N.am      12 UNK        -0.4276 
     28 C         -53.8594  -29.9862   17.0572 C.2       12 UNK         0.5020 
     29 O         -54.3372  -30.8698   17.7721 O.2       12 UNK        -0.5489 
     30 CA        -52.7006  -29.1101   17.5939 C.3       11 UNK         0.0294 
     31 CB        -51.9064  -29.7942   18.7271 C.3       11 UNK        -0.2019 
     32 N         -51.7974  -28.6347   16.5350 N.am      11 UNK        -0.4493 
     33 C         -51.1130  -29.3844   15.6551 C.2       11 UNK         0.4932 
     34 O         -50.9804  -30.6046   15.7595 O.2       11 UNK        -0.5029 
     35 CA        -50.5040  -28.6635   14.4297 C.3       10 UNK         0.0280 
     36 CB        -50.5664  -29.5364   13.1620 C.3       10 UNK        -0.1976 
     37 N         -51.0498  -27.3315   14.1252 N.am      10 UNK        -0.4242 
     38 C         -52.3298  -26.9485   13.9915 C.2       10 UNK         0.5072 
     39 O         -53.2859  -27.7103   14.1420 O.2       10 UNK        -0.5224 
     40 CA        -52.5969  -25.4649   13.6592 C.3       9 UNK         0.0343 
     41 CB        -53.8451  -24.9187   14.3844 C.3       9 UNK        -0.2003 
     42 N         -51.4413  -24.5826   13.8673 N.am      9 UNK        -0.4272 
     43 C         -50.7890  -24.3149   15.0093 C.2       9 UNK         0.4988 
     44 O         -51.1388  -24.7397   16.1112 O.2       9 UNK        -0.5108 
     45 CA        -49.4901  -23.4886   14.9083 C.3       8 UNK         0.0248 
     46 CB        -48.2735  -24.3772   15.2185 C.3       8 UNK        -0.2001 
     47 N         -49.2886  -22.8604   13.5984 N.am      8 UNK        -0.4140 
     48 C         -49.9380  -21.7693   13.1695 C.2       8 UNK         0.5028 
     49 O         -50.7211  -21.1211   13.8649 O.2       8 UNK        -0.5428 
     50 CA        -49.7055  -21.3511   11.7063 C.3       7 UNK         0.0264 
     51 CB        -48.4334  -20.4977   11.5818 C.3       7 UNK        -0.1988 
     52 N         -49.6371  -22.4869   10.7782 N.am      7 UNK        -0.4454 
     53 C         -50.6419  -23.3497   10.5567 C.2       7 UNK         0.5027 
     54 O         -51.7398  -23.2625   11.1070 O.2       7 UNK        -0.5083 
     55 CA        -50.3644  -24.5477    9.6231 C.3       6 UNK         0.0844 
     56 C56       -50.4624  -24.1870    8.1179 C.3       14 UNK        -0.0967 
     57 S57       -52.1372  -23.6883    7.5801 S.3       14 UNK        -0.2604 
     58 C58       -52.8488  -25.2585    6.9847 C.3       14 UNK         0.0134 
     59 N         -49.0899  -25.1957    9.9321 N.am      6 UNK        -0.4116 
     60 C         -48.7861  -25.8014   11.0879 C.2       5 UNK         0.5034 
     61 O         -49.5680  -25.9404   12.0255 O.2       5 UNK        -0.5045 
     62 CA        -47.3387  -26.2847   11.2496 C.3       5 UNK         0.0224 
     63 CB        -47.1262  -27.6404   10.5563 C.3       5 UNK        -0.1978 
     64 N         -46.3761  -25.3018   10.7460 N.am      5 UNK        -0.4737 
     65 C         -46.1706  -24.0973   11.2985 C.2       4 UNK         0.5027 
     66 O         -46.7413  -23.7049   12.3161 O.2       4 UNK        -0.5211 
     67 CA        -45.1936  -23.1605   10.5690 C.3       4 UNK         0.0297 
     68 CB        -43.7414  -23.4942   10.9446 C.3       4 UNK        -0.1993 
     69 N         -45.3496  -23.2021    9.1121 N.am      4 UNK        -0.4486 
     70 C         -46.4373  -22.7720    8.4568 C.2       3 UNK         0.4961 
     71 O         -47.4180  -22.2734    9.0068 O.2       3 UNK        -0.5105 
     72 CA        -46.4587  -22.9824    6.9331 C.3       3 UNK         0.0299 
     73 CB        -45.6740  -21.8689    6.2214 C.3       3 UNK        -0.1972 
     74 N         -45.9587  -24.2948    6.5054 N.am      3 UNK        -0.4305 
     75 C         -46.4559  -25.4702    6.9140 C.2       2 UNK         0.5006 
     76 O         -47.3469  -25.5786    7.7597 O.2       2 UNK        -0.5106 
     77 CA        -45.8215  -26.7357    6.3106 C.3       2 UNK         0.0296 
     78 CB        -44.5410  -27.1039    7.0781 C.3       2 UNK        -0.2002 
     79 N         -46.7384  -27.8768    6.3536 N.am      2 UNK        -0.4032 
     80 C         -47.9223  -27.9482    5.7315 C.2       1 UNK         0.5000 
     81 O         -48.3147  -27.1228    4.9039 O.2       1 UNK        -0.5238 
     82 H82       -45.9339  -32.3368    4.8067 H         1 UNK         0.0889 
     83 H83       -47.6520  -32.6380    4.5367 H         1 UNK         0.0889 
     84 H84       -46.8805  -33.2030    6.0197 H         1 UNK         0.0889 
     85 H85       -48.8706  -30.8187    4.8527 H         1 UNK         0.3028 
     86 H86       -49.7632  -28.9639    5.5611 H         1 UNK         0.0864 
     87 H87       -48.3496  -29.5170    8.2195 H         1 UNK         0.0720 
     88 H88       -49.3600  -28.1295    7.9794 H         1 UNK         0.0720 
     89 H89       -50.4157  -29.0406   10.0839 H         1 UNK         0.0814 
     90 H90       -51.7381  -30.1805   10.0927 H         1 UNK         0.0814 
     91 H91       -51.3990  -27.4914    7.4636 H         1 UNK         0.1469 
     92 H92       -54.6683  -25.2168    9.0103 H         1 UNK         0.1381 
     93 H93       -53.2976  -28.6791   11.1300 H         1 UNK         0.1206 
     94 H94       -54.7585  -27.0236   12.2146 H         1 UNK         0.0813 
     95 H95       -55.3194  -25.6115   11.3572 H         1 UNK         0.0813 
     96 H96       -57.0642  -26.2966   12.9897 H         1 UNK         0.0638 
     97 H97       -58.5537  -26.5614   12.1499 H         1 UNK         0.0638 
     98 H98       -58.3151  -27.7821   14.3324 H         1 UNK         0.0568 
     99 H99       -59.6580  -30.9912   12.3428 H         1 UNK         0.3450 
    100 H100      -57.9774  -30.8313   12.7842 H         1 UNK         0.3450 
    101 H101      -55.9775  -28.9942   13.0966 H         1 UNK         0.2987 
    102 H102      -55.5353  -31.4130   15.6073 H         1 UNK         0.0766 
    103 H103      -53.8161  -31.6042   13.8643 H         1 UNK         0.0798 
    104 H104      -54.2902  -30.0817   13.1330 H         1 UNK         0.0798 
    105 H105      -55.3868  -31.4630   13.0977 H         1 UNK         0.0798 
    106 H106      -53.8506  -28.9631   15.2956 H         1 UNK         0.3198 
    107 H107      -53.1711  -28.2194   18.0130 H         1 UNK         0.0843 
    108 H108      -51.1029  -29.1544   19.0915 H         1 UNK         0.0831 
    109 H109      -51.4646  -30.7360   18.4007 H         1 UNK         0.0831 
    110 H110      -52.5518  -30.0171   19.5776 H         1 UNK         0.0831 
    111 H111      -51.8284  -27.6401   16.3541 H         1 UNK         0.3133 
    112 H112      -49.4520  -28.5071   14.6716 H         1 UNK         0.0566 
    113 H113      -50.0486  -29.0496   12.3372 H         1 UNK         0.0814 
    114 H114      -50.0847  -30.5028   13.3149 H         1 UNK         0.0814 
    115 H115      -51.5953  -29.7259   12.8547 H         1 UNK         0.0814 
    116 H116      -50.3592  -26.6318   13.8783 H         1 UNK         0.3091 
    117 H117      -52.7945  -25.4350   12.5871 H         1 UNK         0.0702 
    118 H118      -54.7359  -25.4942   14.1317 H         1 UNK         0.0785 
    119 H119      -54.0412  -23.8836   14.1048 H         1 UNK         0.0785 
    120 H120      -53.7344  -24.9589   15.4682 H         1 UNK         0.0785 
    121 H121      -51.0582  -24.1952   13.0134 H         1 UNK         0.2998 
    122 H122      -49.5430  -22.7042   15.6660 H         1 UNK         0.0697 
    123 H123      -47.3495  -23.7986   15.2151 H         1 UNK         0.0825 
    124 H124      -48.1651  -25.1805   14.4887 H         1 UNK         0.0825 
    125 H125      -48.3624  -24.8384   16.2031 H         1 UNK         0.0825 
    126 H126      -48.5997  -23.2903   12.9870 H         1 UNK         0.3029 
    127 H127      -50.5562  -20.7361   11.4050 H         1 UNK         0.0897 
    128 H128      -48.3116  -20.1136   10.5688 H         1 UNK         0.0792 
    129 H129      -48.4720  -19.6377   12.2517 H         1 UNK         0.0792 
    130 H130      -47.5386  -21.0680   11.8328 H         1 UNK         0.0792 
    131 H131      -48.7745  -22.5853   10.2454 H         1 UNK         0.3086 
    132 H132      -51.1328  -25.2894    9.8437 H         1 UNK         0.0583 
    133 H133      -49.7680  -23.3809    7.8746 H         1 UNK         0.1020 
    134 H134      -50.1451  -25.0364    7.5104 H         1 UNK         0.1020 
    135 H135      -53.8219  -25.0576    6.5344 H         1 UNK         0.0694 
    136 H136      -52.2209  -25.6639    6.1896 H         1 UNK         0.0694 
    137 H137      -48.3817  -25.1783    9.2005 H         1 UNK         0.2989 
    138 H138      -47.1561  -26.4173   12.3184 H         1 UNK         0.1055 
    139 H139      -47.8329  -28.3833   10.9286 H         1 UNK         0.0806 
    140 H140      -46.1241  -28.0271   10.7419 H         1 UNK         0.0806 
    141 H141      -47.2634  -27.5738    9.4775 H         1 UNK         0.0806 
    142 H142      -45.9100  -25.5200    9.8778 H         1 UNK         0.3061 
    143 H143      -45.4045  -22.1412   10.8998 H         1 UNK         0.0734 
    144 H144      -43.0433  -22.7837   10.5016 H         1 UNK         0.0832 
    145 H145      -43.6006  -23.4519   12.0257 H         1 UNK         0.0832 
    146 H146      -43.4559  -24.4951   10.6185 H         1 UNK         0.0832 
    147 H147      -44.5926  -23.6016    8.5767 H         1 UNK         0.3156 
    148 H148      -47.5006  -22.9167    6.6126 H         1 UNK         0.0589 
    149 H149      -44.6104  -21.9043    6.4602 H         1 UNK         0.0808 
    150 H150      -45.7782  -21.9393    5.1385 H         1 UNK         0.0808 
    151 H151      -46.0412  -20.8844    6.5156 H         1 UNK         0.0808 
    152 H152      -45.2175  -24.2944    5.8190 H         1 UNK         0.3098 
    153 H153      -45.5727  -26.5403    5.2657 H         1 UNK         0.0720 
    154 H154      -44.0628  -27.9849    6.6492 H         1 UNK         0.0791 
    155 H155      -44.7469  -27.3147    8.1285 H         1 UNK         0.0791 
    156 H156      -43.8115  -26.2937    7.0435 H         1 UNK         0.0791 
    157 H157      -46.4799  -28.6615    6.9428 H         1 UNK         0.3028 
@<TRIPOS>BOND
     1    1    2 1    
     2    1   82 1    
     3    1   83 1    
     4    1   84 1    
     5    2    3 2    
     6    2    4 am   BACKBONE|DICT|INTERRES
     7    4    5 1    
     8    4   85 1    
     9    5    6 1    
    10    5   80 1    
    11    5   86 1    
    12    6    7 1    
    13    6   87 1    
    14    6   88 1    
    15    7    8 1    
    16    8    9 1    
    17    8   89 1    
    18    8   90 1    
    19    9   10 ar   
    20    9   14 ar   
    21   10   11 ar   
    22   10   91 1    
    23   11   12 ar   
    24   11   58 1    
    25   12   13 ar   
    26   12   92 1    
    27   13   14 ar   
    28   13   15 1    
    29   14   93 1    
    30   15   16 1    
    31   15   94 1    
    32   15   95 1    
    33   16   17 1    
    34   17   18 1    
    35   17   96 1    
    36   17   97 1    
    37   18   19 1    
    38   18   22 1    
    39   18   98 1    
    40   19   20 am   BACKBONE|DICT|INTERRES
    41   19   21 2    
    42   20   99 1    
    43   20  100 1    
    44   22   23 am   BACKBONE|DICT|INTERRES
    45   22  101 1    
    46   23   24 2    
    47   23   25 1    
    48   25   26 1    
    49   25   27 1    
    50   25  102 1    
    51   26  103 1    
    52   26  104 1    
    53   26  105 1    
    54   27   28 am   BACKBONE|DICT|INTERRES
    55   27  106 1    
    56   28   29 2    
    57   28   30 1    
    58   30   31 1    
    59   30   32 1    
    60   30  107 1    
    61   31  108 1    
    62   31  109 1    
    63   31  110 1    
    64   32   33 am   BACKBONE|DICT|INTERRES
    65   32  111 1    
    66   33   34 2    
    67   33   35 1    
    68   35   36 1    
    69   35   37 1    
    70   35  112 1    
    71   36  113 1    
    72   36  114 1    
    73   36  115 1    
    74   37   38 am   BACKBONE|DICT|INTERRES
    75   37  116 1    
    76   38   39 2    
    77   38   40 1    
    78   40   41 1    
    79   40   42 1    
    80   40  117 1    
    81   41  118 1    
    82   41  119 1    
    83   41  120 1    
    84   42   43 am   BACKBONE|DICT|INTERRES
    85   42  121 1    
    86   43   44 2    
    87   43   45 1    
    88   45   46 1    
    89   45   47 1    
    90   45  122 1    
    91   46  123 1    
    92   46  124 1    
    93   46  125 1    
    94   47   48 am   BACKBONE|DICT|INTERRES
    95   47  126 1    
    96   48   49 2    
    97   48   50 1    
    98   50   51 1    
    99   50   52 1    
   100   50  127 1    
   101   51  128 1    
   102   51  129 1    
   103   51  130 1    
   104   52   53 am   BACKBONE|DICT|INTERRES
   105   52  131 1    
   106   53   54 2    
   107   53   55 1    
   108   55   56 1    
   109   55   59 1    
   110   55  132 1    
   111   56   57 1    
   112   56  133 1    
   113   56  134 1    
   114   57   58 1    
   115   58  135 1    
   116   58  136 1    
   117   59   60 am   BACKBONE|DICT|INTERRES
   118   59  137 1    
   119   60   61 2    
   120   60   62 1    
   121   62   63 1    
   122   62   64 1    
   123   62  138 1    
   124   63  139 1    
   125   63  140 1    
   126   63  141 1    
   127   64   65 am   BACKBONE|DICT|INTERRES
   128   64  142 1    
   129   65   66 2    
   130   65   67 1    
   131   67   68 1    
   132   67   69 1    
   133   67  143 1    
   134   68  144 1    
   135   68  145 1    
   136   68  146 1    
   137   69   70 am   BACKBONE|DICT|INTERRES
   138   69  147 1    
   139   70   71 2    
   140   70   72 1    
   141   72   73 1    
   142   72   74 1    
   143   72  148 1    
   144   73  149 1    
   145   73  150 1    
   146   73  151 1    
   147   74   75 am   BACKBONE|DICT|INTERRES
   148   74  152 1    
   149   75   76 2    
   150   75   77 1    
   151   77   78 1    
   152   77   79 1    
   153   77  153 1    
   154   78  154 1    
   155   78  155 1    
   156   78  156 1    
   157   79   80 am   BACKBONE|DICT|INTERRES
   158   79  157 1    
   159   80   81 2    
@<TRIPOS>SUBSTRUCTURE
     1 UNK         1 GROUP             0       ****    0 ROOT    
