@<TRIPOS>MOLECULE
3R207
157   159    1
SMALL
USER_CHARGES


@<TRIPOS>ATOM
      1 CA        -47.0604  -30.8804    8.1928 C.3       0 UNK        -0.1975 
      2 C         -47.9861  -29.7264    7.8354 C.2       0 UNK         0.4852 
      3 O         -48.7205  -29.2564    8.7042 O.2       0 UNK        -0.5216 
      4 N         -47.9422  -29.2872    6.5670 N.am      1 UNK        -0.4461 
      5 CA        -48.6774  -28.1591    5.9693 C.3       1 UNK         0.0864 
      6 C6        -50.2199  -28.2408    6.1393 C.3       14 UNK        -0.0898 
      7 S7        -50.9880  -29.7921    5.5507 S.3       14 UNK        -0.2598 
      8 C8        -52.7717  -29.3833    5.6218 C.3       14 UNK         0.0286 
      9 C9        -53.1771  -28.8441    6.9877 C.ar      14 UNK        -0.0844 
     10 C10       -53.1333  -27.4677    7.2254 C.ar      14 UNK        -0.0881 
     11 C11       -53.3187  -26.9641    8.5135 C.ar      14 UNK        -0.0643 
     12 C12       -53.6561  -27.8365    9.5514 C.ar      14 UNK        -0.0930 
     13 C13       -53.7519  -29.2112    9.3162 C.ar      14 UNK        -0.0827 
     14 C14       -53.5103  -29.7128    8.0323 C.ar      14 UNK        -0.1249 
     15 C15       -54.0204  -30.1496   10.4797 C.3       14 UNK         0.0141 
     16 S16       -55.7886  -30.2505   10.8860 S.3       14 UNK        -0.2313 
     17 C17       -55.6887  -30.9572   12.5676 C.3       14 UNK        -0.0915 
     18 CA        -56.7808  -30.4167   13.5275 C.3       13 UNK         0.0968 
     19 C         -56.6739  -31.0901   14.9281 C.2       13 UNK         0.5732 
     20 N         -56.4388  -30.3607   16.0141 N.am      13 UNK        -0.7310 
     21 O         -56.8183  -32.3059   15.0329 O.2       13 UNK        -0.5035 
     22 N         -56.8102  -28.9462   13.5755 N.am      13 UNK        -0.4233 
     23 C         -57.8929  -28.2347   13.9198 C.2       13 UNK         0.4989 
     24 O         -58.9961  -28.7429   14.1310 O.2       13 UNK        -0.4996 
     25 CA        -57.7311  -26.7044   14.0509 C.3       12 UNK         0.0216 
     26 CB        -58.7416  -26.0910   15.0444 C.3       12 UNK        -0.1964 
     27 N         -56.3696  -26.2597   14.3776 N.am      12 UNK        -0.4276 
     28 C         -55.6272  -26.6217   15.4337 C.2       12 UNK         0.5020 
     29 O         -55.9824  -27.4319   16.2937 O.2       12 UNK        -0.5489 
     30 CA        -54.2290  -25.9883   15.5178 C.3       11 UNK         0.0294 
     31 CB        -54.0719  -25.1901   16.8228 C.3       11 UNK        -0.2019 
     32 N         -53.1455  -26.9683   15.4257 N.am      11 UNK        -0.4493 
     33 C         -52.9944  -27.9161   14.4881 C.2       11 UNK         0.4932 
     34 O         -53.8069  -28.1463   13.5891 O.2       11 UNK        -0.5029 
     35 CA        -51.6718  -28.6922   14.5587 C.3       10 UNK         0.0280 
     36 CB        -51.4602  -29.6615   13.3809 C.3       10 UNK        -0.1976 
     37 N         -50.5695  -27.7329   14.6081 N.am      10 UNK        -0.4242 
     38 C         -49.4334  -27.8954   15.2950 C.2       10 UNK         0.5072 
     39 O         -49.1808  -28.8956   15.9688 O.2       10 UNK        -0.5224 
     40 CA        -48.3911  -26.7643   15.2285 C.3       9 UNK         0.0343 
     41 CB        -47.3714  -27.0349   14.1108 C.3       9 UNK        -0.2003 
     42 N         -48.9462  -25.4175   15.0606 N.am      9 UNK        -0.4272 
     43 C         -49.6756  -24.7703   15.9827 C.2       9 UNK         0.4988 
     44 O         -50.0652  -25.2822   17.0324 O.2       9 UNK        -0.5108 
     45 CA        -50.0159  -23.3006   15.6949 C.3       8 UNK         0.0248 
     46 CB        -48.7783  -22.4088   15.8934 C.3       8 UNK        -0.2001 
     47 N         -50.5134  -23.1452   14.3304 N.am      8 UNK        -0.4140 
     48 C         -51.8024  -22.9871   14.0006 C.2       8 UNK         0.5028 
     49 O         -52.7065  -22.8147   14.8180 O.2       8 UNK        -0.5428 
     50 CA        -52.1603  -23.0409   12.5029 C.3       7 UNK         0.0264 
     51 CB        -52.3229  -21.6221   11.9350 C.3       7 UNK        -0.1988 
     52 N         -51.1980  -23.7785   11.6798 N.am      7 UNK        -0.4454 
     53 C         -50.8955  -25.0773   11.8219 C.2       7 UNK         0.5027 
     54 O         -51.3991  -25.8067   12.6732 O.2       7 UNK        -0.5083 
     55 CA        -49.8054  -25.6515   10.8964 C.3       6 UNK         0.0844 
     56 C56       -50.4132  -26.2746    9.6216 C.3       14 UNK        -0.0967 
     57 S57       -51.2748  -25.0905    8.5162 S.3       14 UNK        -0.2604 
     58 C58       -53.0361  -25.4968    8.7991 C.3       14 UNK         0.0134 
     59 N         -48.7027  -24.7348   10.5874 N.am      6 UNK        -0.4116 
     60 C         -47.9692  -24.0398   11.4692 C.2       5 UNK         0.5034 
     61 O         -48.2107  -23.9839   12.6784 O.2       5 UNK        -0.5045 
     62 CA        -46.7492  -23.3093   10.8800 C.3       5 UNK         0.0224 
     63 CB        -45.9199  -22.5599   11.9452 C.3       5 UNK        -0.1978 
     64 N         -45.9110  -24.2211   10.0868 N.am      5 UNK        -0.4737 
     65 C         -45.2584  -25.3131   10.5238 C.2       4 UNK         0.5027 
     66 O         -45.2071  -25.6489   11.7066 O.2       4 UNK        -0.5211 
     67 CA        -44.5560  -26.2040    9.4800 C.3       4 UNK         0.0297 
     68 CB        -45.0290  -27.6639    9.6053 C.3       4 UNK        -0.1993 
     69 N         -44.7824  -25.7515    8.1055 N.am      4 UNK        -0.4486 
     70 C         -43.9919  -24.8968    7.4399 C.2       3 UNK         0.4961 
     71 O         -42.9463  -24.4378    7.9002 O.2       3 UNK        -0.5105 
     72 CA        -44.4369  -24.4593    6.0289 C.3       3 UNK         0.0299 
     73 CB        -43.6683  -25.2501    4.9580 C.3       3 UNK        -0.1972 
     74 N         -45.8760  -24.5898    5.7789 N.am      3 UNK        -0.4305 
     75 C         -46.8397  -23.9359    6.4429 C.2       2 UNK         0.5006 
     76 O         -46.6212  -23.1118    7.3317 O.2       2 UNK        -0.5106 
     77 CA        -48.2957  -24.3088    6.1088 C.3       2 UNK         0.0296 
     78 CB        -48.8422  -23.3963    4.9997 C.3       2 UNK        -0.2002 
     79 N         -48.5254  -25.7155    5.7420 N.am      2 UNK        -0.4032 
     80 C         -48.1517  -26.7876    6.4596 C.2       1 UNK         0.5000 
     81 O         -47.4315  -26.7048    7.4577 O.2       1 UNK        -0.5238 
     82 H82       -47.6429  -31.7340    8.5383 H         1 UNK         0.0889 
     83 H83       -46.3843  -30.5822    8.9937 H         1 UNK         0.0889 
     84 H84       -46.4583  -31.2018    7.3432 H         1 UNK         0.0889 
     85 H85       -47.2959  -29.7374    5.9348 H         1 UNK         0.3028 
     86 H86       -48.4594  -28.2071    4.9013 H         1 UNK         0.0864 
     87 H87       -50.4833  -28.1128    7.1897 H         1 UNK         0.0720 
     88 H88       -50.6990  -27.4205    5.6031 H         1 UNK         0.0720 
     89 H89       -53.3522  -30.2768    5.3875 H         1 UNK         0.0814 
     90 H90       -53.0051  -28.6556    4.8430 H         1 UNK         0.0814 
     91 H91       -52.8538  -26.7915    6.4293 H         1 UNK         0.1469 
     92 H92       -53.7895  -27.4571   10.5563 H         1 UNK         0.1381 
     93 H93       -53.5346  -30.7796    7.8564 H         1 UNK         0.1206 
     94 H94       -53.4702  -29.7857   11.3459 H         1 UNK         0.0813 
     95 H95       -53.6387  -31.1498   10.2693 H         1 UNK         0.0813 
     96 H96       -54.7031  -30.7596   12.9910 H         1 UNK         0.0638 
     97 H97       -55.7658  -32.0419   12.4730 H         1 UNK         0.0638 
     98 H98       -57.7380  -30.7480   13.1205 H         1 UNK         0.0568 
     99 H99       -56.3808  -30.8209   16.9079 H         1 UNK         0.3450 
    100 H100      -56.3213  -29.3532   15.9609 H         1 UNK         0.3450 
    101 H101      -55.9186  -28.4808   13.4479 H         1 UNK         0.2987 
    102 H102      -57.9534  -26.2991   13.0627 H         1 UNK         0.0766 
    103 H103      -58.6314  -25.0083   15.1059 H         1 UNK         0.0798 
    104 H104      -58.6162  -26.4981   16.0485 H         1 UNK         0.0798 
    105 H105      -59.7690  -26.2912   14.7377 H         1 UNK         0.0798 
    106 H106      -55.9558  -25.6235   13.7099 H         1 UNK         0.3198 
    107 H107      -54.1005  -25.2974   14.6822 H         1 UNK         0.0843 
    108 H108      -54.1555  -25.8313   17.7013 H         1 UNK         0.0831 
    109 H109      -54.8418  -24.4217   16.9038 H         1 UNK         0.0831 
    110 H110      -53.1071  -24.6839   16.8665 H         1 UNK         0.0831 
    111 H111      -52.4116  -26.8773   16.1136 H         1 UNK         0.3133 
    112 H112      -51.7010  -29.2725   15.4832 H         1 UNK         0.0566 
    113 H113      -52.2597  -30.4010   13.3357 H         1 UNK         0.0814 
    114 H114      -51.4368  -29.1310   12.4281 H         1 UNK         0.0814 
    115 H115      -50.5224  -30.2079   13.4813 H         1 UNK         0.0814 
    116 H116      -50.7188  -26.8825   14.0672 H         1 UNK         0.3091 
    117 H117      -47.8519  -26.7732   16.1781 H         1 UNK         0.0702 
    118 H118      -46.5752  -26.2899   14.1107 H         1 UNK         0.0785 
    119 H119      -47.8353  -27.0230   13.1253 H         1 UNK         0.0785 
    120 H120      -46.9006  -28.0107   14.2372 H         1 UNK         0.0785 
    121 H121      -48.6562  -24.9138   14.2258 H         1 UNK         0.2998 
    122 H122      -50.7743  -22.9865   16.4153 H         1 UNK         0.0697 
    123 H123      -47.9774  -22.6589   15.1960 H         1 UNK         0.0825 
    124 H124      -48.3783  -22.5155   16.9027 H         1 UNK         0.0825 
    125 H125      -49.0251  -21.3565   15.7527 H         1 UNK         0.0825 
    126 H126      -49.8388  -23.2950   13.5873 H         1 UNK         0.3029 
    127 H127      -53.1200  -23.5559   12.4225 H         1 UNK         0.0897 
    128 H128      -53.0571  -21.0542   12.5084 H         1 UNK         0.0792 
    129 H129      -52.6697  -21.6446   10.9016 H         1 UNK         0.0792 
    130 H130      -51.3853  -21.0655   11.9647 H         1 UNK         0.0792 
    131 H131      -50.7365  -23.2629   10.9443 H         1 UNK         0.3086 
    132 H132      -49.3473  -26.4714   11.4515 H         1 UNK         0.0583 
    133 H133      -49.6188  -26.7481    9.0457 H         1 UNK         0.1020 
    134 H134      -51.0702  -27.0984    9.8985 H         1 UNK         0.1020 
    135 H135      -53.3038  -25.2395    9.8251 H         1 UNK         0.0694 
    136 H136      -53.6553  -24.8752    8.1510 H         1 UNK         0.0694 
    137 H137      -48.4152  -24.7181    9.6201 H         1 UNK         0.2989 
    138 H138      -47.1407  -22.5636   10.1857 H         1 UNK         0.1055 
    139 H139      -46.5263  -21.8061   12.4488 H         1 UNK         0.0806 
    140 H140      -45.0697  -22.0462   11.4967 H         1 UNK         0.0806 
    141 H141      -45.5388  -23.2312   12.7153 H         1 UNK         0.0806 
    142 H142      -45.8907  -24.0271    9.0910 H         1 UNK         0.3061 
    143 H143      -43.4870  -26.1788    9.7010 H         1 UNK         0.0734 
    144 H144      -44.5659  -28.3007    8.8516 H         1 UNK         0.0832 
    145 H145      -44.7693  -28.0766   10.5809 H         1 UNK         0.0832 
    146 H146      -46.1112  -27.7480    9.4984 H         1 UNK         0.0832 
    147 H147      -45.6535  -26.0636    7.6802 H         1 UNK         0.3156 
    148 H148      -44.1807  -23.4031    5.9227 H         1 UNK         0.0589 
    149 H149      -43.9012  -26.3150    4.9977 H         1 UNK         0.0808 
    150 H150      -43.8994  -24.8909    3.9549 H         1 UNK         0.0808 
    151 H151      -42.5907  -25.1476    5.0952 H         1 UNK         0.0808 
    152 H152      -46.1548  -25.2571    5.0746 H         1 UNK         0.3098 
    153 H153      -48.8783  -24.1212    7.0121 H         1 UNK         0.0720 
    154 H154      -49.9112  -23.5500    4.8501 H         1 UNK         0.0791 
    155 H155      -48.3394  -23.5710    4.0477 H         1 UNK         0.0791 
    156 H156      -48.7028  -22.3444    5.2542 H         1 UNK         0.0791 
    157 H157      -49.0955  -25.8655    4.9220 H         1 UNK         0.3028 
@<TRIPOS>BOND
     1    1    2 1    
     2    1   82 1    
     3    1   83 1    
     4    1   84 1    
     5    2    3 2    
     6    2    4 am   BACKBONE|DICT|INTERRES
     7    4    5 1    
     8    4   85 1    
     9    5    6 1    
    10    5   80 1    
    11    5   86 1    
    12    6    7 1    
    13    6   87 1    
    14    6   88 1    
    15    7    8 1    
    16    8    9 1    
    17    8   89 1    
    18    8   90 1    
    19    9   10 ar   
    20    9   14 ar   
    21   10   11 ar   
    22   10   91 1    
    23   11   12 ar   
    24   11   58 1    
    25   12   13 ar   
    26   12   92 1    
    27   13   14 ar   
    28   13   15 1    
    29   14   93 1    
    30   15   16 1    
    31   15   94 1    
    32   15   95 1    
    33   16   17 1    
    34   17   18 1    
    35   17   96 1    
    36   17   97 1    
    37   18   19 1    
    38   18   22 1    
    39   18   98 1    
    40   19   20 am   BACKBONE|DICT|INTERRES
    41   19   21 2    
    42   20   99 1    
    43   20  100 1    
    44   22   23 am   BACKBONE|DICT|INTERRES
    45   22  101 1    
    46   23   24 2    
    47   23   25 1    
    48   25   26 1    
    49   25   27 1    
    50   25  102 1    
    51   26  103 1    
    52   26  104 1    
    53   26  105 1    
    54   27   28 am   BACKBONE|DICT|INTERRES
    55   27  106 1    
    56   28   29 2    
    57   28   30 1    
    58   30   31 1    
    59   30   32 1    
    60   30  107 1    
    61   31  108 1    
    62   31  109 1    
    63   31  110 1    
    64   32   33 am   BACKBONE|DICT|INTERRES
    65   32  111 1    
    66   33   34 2    
    67   33   35 1    
    68   35   36 1    
    69   35   37 1    
    70   35  112 1    
    71   36  113 1    
    72   36  114 1    
    73   36  115 1    
    74   37   38 am   BACKBONE|DICT|INTERRES
    75   37  116 1    
    76   38   39 2    
    77   38   40 1    
    78   40   41 1    
    79   40   42 1    
    80   40  117 1    
    81   41  118 1    
    82   41  119 1    
    83   41  120 1    
    84   42   43 am   BACKBONE|DICT|INTERRES
    85   42  121 1    
    86   43   44 2    
    87   43   45 1    
    88   45   46 1    
    89   45   47 1    
    90   45  122 1    
    91   46  123 1    
    92   46  124 1    
    93   46  125 1    
    94   47   48 am   BACKBONE|DICT|INTERRES
    95   47  126 1    
    96   48   49 2    
    97   48   50 1    
    98   50   51 1    
    99   50   52 1    
   100   50  127 1    
   101   51  128 1    
   102   51  129 1    
   103   51  130 1    
   104   52   53 am   BACKBONE|DICT|INTERRES
   105   52  131 1    
   106   53   54 2    
   107   53   55 1    
   108   55   56 1    
   109   55   59 1    
   110   55  132 1    
   111   56   57 1    
   112   56  133 1    
   113   56  134 1    
   114   57   58 1    
   115   58  135 1    
   116   58  136 1    
   117   59   60 am   BACKBONE|DICT|INTERRES
   118   59  137 1    
   119   60   61 2    
   120   60   62 1    
   121   62   63 1    
   122   62   64 1    
   123   62  138 1    
   124   63  139 1    
   125   63  140 1    
   126   63  141 1    
   127   64   65 am   BACKBONE|DICT|INTERRES
   128   64  142 1    
   129   65   66 2    
   130   65   67 1    
   131   67   68 1    
   132   67   69 1    
   133   67  143 1    
   134   68  144 1    
   135   68  145 1    
   136   68  146 1    
   137   69   70 am   BACKBONE|DICT|INTERRES
   138   69  147 1    
   139   70   71 2    
   140   70   72 1    
   141   72   73 1    
   142   72   74 1    
   143   72  148 1    
   144   73  149 1    
   145   73  150 1    
   146   73  151 1    
   147   74   75 am   BACKBONE|DICT|INTERRES
   148   74  152 1    
   149   75   76 2    
   150   75   77 1    
   151   77   78 1    
   152   77   79 1    
   153   77  153 1    
   154   78  154 1    
   155   78  155 1    
   156   78  156 1    
   157   79   80 am   BACKBONE|DICT|INTERRES
   158   79  157 1    
   159   80   81 2    
@<TRIPOS>SUBSTRUCTURE
     1 UNK         1 GROUP             0       ****    0 ROOT    
