@<TRIPOS>MOLECULE
3R207
157   159    1
SMALL
USER_CHARGES


@<TRIPOS>ATOM
      1 CA        -49.3475  -30.7091    8.8030 C.3       0 UNK        -0.1975 
      2 C         -49.0619  -30.1351    7.4245 C.2       0 UNK         0.4852 
      3 O         -47.9919  -30.3883    6.8680 O.2       0 UNK        -0.5216 
      4 N         -50.0082  -29.3647    6.8724 N.am      1 UNK        -0.4461 
      5 CA        -49.8445  -28.6210    5.6176 C.3       1 UNK         0.0864 
      6 C6        -51.2072  -28.2324    4.9836 C.3       14 UNK        -0.0898 
      7 S7        -52.2312  -29.6918    4.5735 S.3       14 UNK        -0.2598 
      8 C8        -53.7384  -29.4289    5.5675 C.3       14 UNK         0.0286 
      9 C9        -53.4494  -29.4965    7.0592 C.ar      14 UNK        -0.0844 
     10 C10       -53.2869  -28.3202    7.7929 C.ar      14 UNK        -0.0881 
     11 C11       -52.9307  -28.3680    9.1417 C.ar      14 UNK        -0.0643 
     12 C12       -52.7866  -29.6082    9.7733 C.ar      14 UNK        -0.0930 
     13 C13       -52.9932  -30.7956    9.0603 C.ar      14 UNK        -0.0827 
     14 C14       -53.3183  -30.7312    7.7011 C.ar      14 UNK        -0.1249 
     15 C15       -52.8105  -32.1536    9.7305 C.3       14 UNK         0.0141 
     16 S16       -53.8320  -32.3773   11.2220 S.3       14 UNK        -0.2313 
     17 C17       -55.5367  -32.3228   10.5589 C.3       14 UNK        -0.0915 
     18 CA        -56.4698  -31.3790   11.3653 C.3       13 UNK         0.0968 
     19 C         -56.8251  -31.9846   12.7576 C.2       13 UNK         0.5732 
     20 N         -56.3265  -31.4487   13.8656 N.am      13 UNK        -0.7310 
     21 O         -57.5745  -32.9562   12.8285 O.2       13 UNK        -0.5035 
     22 N         -55.9468  -30.0035   11.3681 N.am      13 UNK        -0.4233 
     23 C         -56.5745  -28.9200   11.8385 C.2       13 UNK         0.4989 
     24 O         -57.7100  -28.9192   12.3182 O.2       13 UNK        -0.4996 
     25 CA        -55.7963  -27.6059   11.7535 C.3       12 UNK         0.0216 
     26 CB        -56.3954  -26.6728   10.6873 C.3       12 UNK        -0.1964 
     27 N         -55.8280  -26.9533   13.0596 N.am      12 UNK        -0.4276 
     28 C         -54.7489  -26.5078   13.7122 C.2       12 UNK         0.5020 
     29 O         -53.6011  -26.5388   13.2562 O.2       12 UNK        -0.5489 
     30 CA        -54.9819  -25.9563   15.1242 C.3       11 UNK         0.0294 
     31 CB        -55.2907  -27.0982   16.1143 C.3       11 UNK        -0.2019 
     32 N         -53.7709  -25.2511   15.5305 N.am      11 UNK        -0.4493 
     33 C         -53.6297  -24.4188   16.5679 C.2       11 UNK         0.4932 
     34 O         -54.5542  -24.1001   17.3181 O.2       11 UNK        -0.5029 
     35 CA        -52.2141  -23.8489   16.7961 C.3       10 UNK         0.0280 
     36 CB        -52.0006  -23.2928   18.2200 C.3       10 UNK        -0.1976 
     37 N         -51.1585  -24.8017   16.4317 N.am      10 UNK        -0.4242 
     38 C         -50.9034  -25.9965   16.9874 C.2       10 UNK         0.5072 
     39 O         -51.4911  -26.4460   17.9722 O.2       10 UNK        -0.5224 
     40 CA        -49.8164  -26.8522   16.3131 C.3       9 UNK         0.0343 
     41 CB        -50.4373  -27.7144   15.2012 C.3       9 UNK        -0.2003 
     42 N         -48.7099  -26.0642   15.7615 N.am      9 UNK        -0.4272 
     43 C         -47.8180  -25.3865   16.4999 C.2       9 UNK         0.4988 
     44 O         -47.8050  -25.3879   17.7316 O.2       9 UNK        -0.5108 
     45 CA        -46.7635  -24.5615   15.7412 C.3       8 UNK         0.0248 
     46 CB        -45.6196  -25.4602   15.2440 C.3       8 UNK        -0.2001 
     47 N         -47.3299  -23.8106   14.6183 N.am      8 UNK        -0.4140 
     48 C         -48.1906  -22.7892   14.7449 C.2       8 UNK         0.5028 
     49 O         -48.5453  -22.3192   15.8264 O.2       8 UNK        -0.5428 
     50 CA        -48.7862  -22.2132   13.4482 C.3       7 UNK         0.0264 
     51 CB        -47.8228  -21.2066   12.7998 C.3       7 UNK        -0.1988 
     52 N         -49.1435  -23.2510   12.4780 N.am      7 UNK        -0.4454 
     53 C         -50.0677  -24.2009   12.6854 C.2       7 UNK         0.5027 
     54 O         -50.7642  -24.2660   13.6978 O.2       7 UNK        -0.5083 
     55 CA        -50.2047  -25.2890   11.6072 C.3       6 UNK         0.0844 
     56 C56       -51.1452  -24.8321   10.4684 C.3       14 UNK        -0.0967 
     57 S57       -51.3232  -26.1181    9.1905 S.3       14 UNK        -0.2604 
     58 C58       -52.6920  -27.0748    9.9033 C.3       14 UNK         0.0134 
     59 N         -48.8961  -25.7202   11.1150 N.am      6 UNK        -0.4116 
     60 C         -47.9992  -26.4137   11.8251 C.2       5 UNK         0.5034 
     61 O         -48.1710  -26.7757   12.9883 O.2       5 UNK        -0.5045 
     62 CA        -46.6635  -26.7091   11.1257 C.3       5 UNK         0.0224 
     63 CB        -46.8010  -27.9182   10.1854 C.3       5 UNK        -0.1978 
     64 N         -46.1598  -25.5535   10.3763 N.am      5 UNK        -0.4737 
     65 C         -45.8014  -24.3899   10.9381 C.2       4 UNK         0.5027 
     66 O         -45.8146  -24.1840   12.1512 O.2       4 UNK        -0.5211 
     67 CA        -45.4063  -23.2492    9.9852 C.3       4 UNK         0.0297 
     68 CB        -43.9235  -23.3631    9.5977 C.3       4 UNK        -0.1993 
     69 N         -46.2286  -23.1687    8.7712 N.am      4 UNK        -0.4486 
     70 C         -47.5599  -22.9920    8.7539 C.2       3 UNK         0.4961 
     71 O         -48.2568  -22.9342    9.7665 O.2       3 UNK        -0.5105 
     72 CA        -48.2269  -22.8876    7.3784 C.3       3 UNK         0.0299 
     73 CB        -48.0443  -21.4806    6.7792 C.3       3 UNK        -0.1972 
     74 N         -47.7073  -23.9178    6.4799 N.am      3 UNK        -0.4305 
     75 C         -48.3249  -24.3806    5.3872 C.2       2 UNK         0.5006 
     76 O         -49.3829  -23.9267    4.9475 O.2       2 UNK        -0.5106 
     77 CA        -47.6630  -25.5680    4.6561 C.3       2 UNK         0.0296 
     78 CB        -46.2203  -25.8811    5.1213 C.3       2 UNK        -0.2002 
     79 N         -48.4963  -26.7757    4.7204 N.am      2 UNK        -0.4032 
     80 C         -48.9477  -27.3791    5.8321 C.2       1 UNK         0.5000 
     81 O         -48.6842  -26.9898    6.9742 O.2       1 UNK        -0.5238 
     82 H82       -50.0533  -30.0883    9.3531 H         1 UNK         0.0889 
     83 H83       -48.4298  -30.7654    9.3878 H         1 UNK         0.0889 
     84 H84       -49.7581  -31.7139    8.7127 H         1 UNK         0.0889 
     85 H85       -50.8706  -29.1911    7.3713 H         1 UNK         0.3028 
     86 H86       -49.3223  -29.2711    4.9113 H         1 UNK         0.0864 
     87 H87       -51.7553  -27.5501    5.6337 H         1 UNK         0.0720 
     88 H88       -51.0541  -27.6870    4.0507 H         1 UNK         0.0720 
     89 H89       -54.4729  -30.1917    5.3043 H         1 UNK         0.0814 
     90 H90       -54.1874  -28.4703    5.3011 H         1 UNK         0.0814 
     91 H91       -53.3970  -27.3596    7.3076 H         1 UNK         0.1469 
     92 H92       -52.5025  -29.6531   10.8165 H         1 UNK         0.1381 
     93 H93       -53.4468  -31.6421    7.1317 H         1 UNK         0.1206 
     94 H94       -53.0285  -32.9654    9.0348 H         1 UNK         0.0813 
     95 H95       -51.7641  -32.2669   10.0127 H         1 UNK         0.0813 
     96 H96       -55.9343  -33.3393   10.5368 H         1 UNK         0.0638 
     97 H97       -55.5093  -31.9992    9.5176 H         1 UNK         0.0638 
     98 H98       -57.4173  -31.3339   10.8258 H         1 UNK         0.0568 
     99 H99       -55.7021  -30.6610   13.8154 H         1 UNK         0.3450 
    100 H100      -56.5677  -31.8483   14.7582 H         1 UNK         0.3450 
    101 H101      -55.0151  -29.9072   10.9921 H         1 UNK         0.2987 
    102 H102      -54.7692  -27.8423   11.4786 H         1 UNK         0.0766 
    103 H103      -55.8500  -25.7304   10.6343 H         1 UNK         0.0798 
    104 H104      -57.4410  -26.4405   10.8940 H         1 UNK         0.0798 
    105 H105      -56.3500  -27.1313    9.6984 H         1 UNK         0.0798 
    106 H106      -56.7295  -26.9492   13.5200 H         1 UNK         0.3198 
    107 H107      -55.8135  -25.2490   15.0928 H         1 UNK         0.0843 
    108 H108      -56.1812  -27.6533   15.8169 H         1 UNK         0.0831 
    109 H109      -55.4740  -26.7185   17.1195 H         1 UNK         0.0831 
    110 H110      -54.4656  -27.8096   16.1736 H         1 UNK         0.0831 
    111 H111      -52.9831  -25.4235   14.9136 H         1 UNK         0.3133 
    112 H112      -52.1106  -23.0144   16.1010 H         1 UNK         0.0566 
    113 H113      -50.9914  -22.8987   18.3428 H         1 UNK         0.0814 
    114 H114      -52.6942  -22.4774   18.4284 H         1 UNK         0.0814 
    115 H115      -52.1591  -24.0559   18.9826 H         1 UNK         0.0814 
    116 H116      -50.6733  -24.5775   15.5660 H         1 UNK         0.3091 
    117 H117      -49.4047  -27.5212   17.0717 H         1 UNK         0.0702 
    118 H118      -49.7011  -28.3892   14.7642 H         1 UNK         0.0785 
    119 H119      -50.8484  -27.1024   14.3973 H         1 UNK         0.0785 
    120 H120      -51.2508  -28.3286   15.5898 H         1 UNK         0.0785 
    121 H121      -48.6006  -26.0780   14.7510 H         1 UNK         0.2998 
    122 H122      -46.3418  -23.8389   16.4432 H         1 UNK         0.0697 
    123 H123      -45.9662  -26.1913   14.5133 H         1 UNK         0.0825 
    124 H124      -45.1687  -26.0117   16.0700 H         1 UNK         0.0825 
    125 H125      -44.8294  -24.8723   14.7766 H         1 UNK         0.0825 
    126 H126      -47.0264  -24.0817   13.6865 H         1 UNK         0.3029 
    127 H127      -49.7035  -21.6833   13.7141 H         1 UNK         0.0897 
    128 H128      -48.2575  -20.7605   11.9049 H         1 UNK         0.0792 
    129 H129      -47.5885  -20.3934   13.4882 H         1 UNK         0.0792 
    130 H130      -46.8803  -21.6746   12.5158 H         1 UNK         0.0792 
    131 H131      -48.6573  -23.2339   11.5836 H         1 UNK         0.3086 
    132 H132      -50.6661  -26.1530   12.0902 H         1 UNK         0.0583 
    133 H133      -52.1313  -24.5765   10.8624 H         1 UNK         0.1020 
    134 H134      -50.7660  -23.9280    9.9884 H         1 UNK         0.1020 
    135 H135      -52.4702  -27.2857   10.9504 H         1 UNK         0.0694 
    136 H136      -53.5962  -26.4656    9.8836 H         1 UNK         0.0694 
    137 H137      -48.6648  -25.4482   10.1709 H         1 UNK         0.2989 
    138 H138      -45.9332  -26.9539   11.9003 H         1 UNK         0.1055 
    139 H139      -47.1587  -28.7942   10.7284 H         1 UNK         0.0806 
    140 H140      -45.8437  -28.1855    9.7378 H         1 UNK         0.0806 
    141 H141      -47.5077  -27.7276    9.3762 H         1 UNK         0.0806 
    142 H142      -46.1184  -25.6379    9.3715 H         1 UNK         0.3061 
    143 H143      -45.5413  -22.3122   10.5292 H         1 UNK         0.0734 
    144 H144      -43.2916  -23.4081   10.4862 H         1 UNK         0.0832 
    145 H145      -43.7242  -24.2612    9.0116 H         1 UNK         0.0832 
    146 H146      -43.5965  -22.5011    9.0158 H         1 UNK         0.0832 
    147 H147      -45.7259  -23.1375    7.8966 H         1 UNK         0.3156 
    148 H148      -49.2943  -23.0679    7.5257 H         1 UNK         0.0589 
    149 H149      -46.9984  -21.2665    6.5572 H         1 UNK         0.0808 
    150 H150      -48.6116  -21.3645    5.8557 H         1 UNK         0.0808 
    151 H151      -48.3964  -20.7136    7.4707 H         1 UNK         0.0808 
    152 H152      -46.8898  -24.4193    6.7937 H         1 UNK         0.3098 
    153 H153      -47.6120  -25.2820    3.6044 H         1 UNK         0.0720 
    154 H154      -45.7763  -26.6615    4.5029 H         1 UNK         0.0791 
    155 H155      -46.1798  -26.2267    6.1550 H         1 UNK         0.0791 
    156 H156      -45.5759  -25.0053    5.0322 H         1 UNK         0.0791 
    157 H157      -48.7846  -27.1471    3.8260 H         1 UNK         0.3028 
@<TRIPOS>BOND
     1    1    2 1    
     2    1   82 1    
     3    1   83 1    
     4    1   84 1    
     5    2    3 2    
     6    2    4 am   BACKBONE|DICT|INTERRES
     7    4    5 1    
     8    4   85 1    
     9    5    6 1    
    10    5   80 1    
    11    5   86 1    
    12    6    7 1    
    13    6   87 1    
    14    6   88 1    
    15    7    8 1    
    16    8    9 1    
    17    8   89 1    
    18    8   90 1    
    19    9   10 ar   
    20    9   14 ar   
    21   10   11 ar   
    22   10   91 1    
    23   11   12 ar   
    24   11   58 1    
    25   12   13 ar   
    26   12   92 1    
    27   13   14 ar   
    28   13   15 1    
    29   14   93 1    
    30   15   16 1    
    31   15   94 1    
    32   15   95 1    
    33   16   17 1    
    34   17   18 1    
    35   17   96 1    
    36   17   97 1    
    37   18   19 1    
    38   18   22 1    
    39   18   98 1    
    40   19   20 am   BACKBONE|DICT|INTERRES
    41   19   21 2    
    42   20   99 1    
    43   20  100 1    
    44   22   23 am   BACKBONE|DICT|INTERRES
    45   22  101 1    
    46   23   24 2    
    47   23   25 1    
    48   25   26 1    
    49   25   27 1    
    50   25  102 1    
    51   26  103 1    
    52   26  104 1    
    53   26  105 1    
    54   27   28 am   BACKBONE|DICT|INTERRES
    55   27  106 1    
    56   28   29 2    
    57   28   30 1    
    58   30   31 1    
    59   30   32 1    
    60   30  107 1    
    61   31  108 1    
    62   31  109 1    
    63   31  110 1    
    64   32   33 am   BACKBONE|DICT|INTERRES
    65   32  111 1    
    66   33   34 2    
    67   33   35 1    
    68   35   36 1    
    69   35   37 1    
    70   35  112 1    
    71   36  113 1    
    72   36  114 1    
    73   36  115 1    
    74   37   38 am   BACKBONE|DICT|INTERRES
    75   37  116 1    
    76   38   39 2    
    77   38   40 1    
    78   40   41 1    
    79   40   42 1    
    80   40  117 1    
    81   41  118 1    
    82   41  119 1    
    83   41  120 1    
    84   42   43 am   BACKBONE|DICT|INTERRES
    85   42  121 1    
    86   43   44 2    
    87   43   45 1    
    88   45   46 1    
    89   45   47 1    
    90   45  122 1    
    91   46  123 1    
    92   46  124 1    
    93   46  125 1    
    94   47   48 am   BACKBONE|DICT|INTERRES
    95   47  126 1    
    96   48   49 2    
    97   48   50 1    
    98   50   51 1    
    99   50   52 1    
   100   50  127 1    
   101   51  128 1    
   102   51  129 1    
   103   51  130 1    
   104   52   53 am   BACKBONE|DICT|INTERRES
   105   52  131 1    
   106   53   54 2    
   107   53   55 1    
   108   55   56 1    
   109   55   59 1    
   110   55  132 1    
   111   56   57 1    
   112   56  133 1    
   113   56  134 1    
   114   57   58 1    
   115   58  135 1    
   116   58  136 1    
   117   59   60 am   BACKBONE|DICT|INTERRES
   118   59  137 1    
   119   60   61 2    
   120   60   62 1    
   121   62   63 1    
   122   62   64 1    
   123   62  138 1    
   124   63  139 1    
   125   63  140 1    
   126   63  141 1    
   127   64   65 am   BACKBONE|DICT|INTERRES
   128   64  142 1    
   129   65   66 2    
   130   65   67 1    
   131   67   68 1    
   132   67   69 1    
   133   67  143 1    
   134   68  144 1    
   135   68  145 1    
   136   68  146 1    
   137   69   70 am   BACKBONE|DICT|INTERRES
   138   69  147 1    
   139   70   71 2    
   140   70   72 1    
   141   72   73 1    
   142   72   74 1    
   143   72  148 1    
   144   73  149 1    
   145   73  150 1    
   146   73  151 1    
   147   74   75 am   BACKBONE|DICT|INTERRES
   148   74  152 1    
   149   75   76 2    
   150   75   77 1    
   151   77   78 1    
   152   77   79 1    
   153   77  153 1    
   154   78  154 1    
   155   78  155 1    
   156   78  156 1    
   157   79   80 am   BACKBONE|DICT|INTERRES
   158   79  157 1    
   159   80   81 2    
@<TRIPOS>SUBSTRUCTURE
     1 UNK         1 GROUP             0       ****    0 ROOT    
