@<TRIPOS>MOLECULE
3R207
157   159    1
SMALL
USER_CHARGES


@<TRIPOS>ATOM
      1 CA        -51.5942  -21.2904    3.8058 C.3       0 UNK        -0.1975 
      2 C         -50.8583  -21.9989    4.9339 C.2       0 UNK         0.4852 
      3 O         -50.3715  -21.3401    5.8540 O.2       0 UNK        -0.5216 
      4 N         -50.7724  -23.3312    4.8667 N.am      1 UNK        -0.4461 
      5 CA        -50.1056  -24.1787    5.8533 C.3       1 UNK         0.0864 
      6 C6        -50.9311  -24.4146    7.1497 C.3       14 UNK        -0.0898 
      7 S7        -52.6413  -24.9966    6.8823 S.3       14 UNK        -0.2598 
      8 C8        -52.9998  -25.7798    8.4835 C.3       14 UNK         0.0286 
      9 C9        -52.5891  -27.2442    8.5036 C.ar      14 UNK        -0.0844 
     10 C10       -51.3519  -27.6376    9.0222 C.ar      14 UNK        -0.0881 
     11 C11       -51.0117  -28.9938    9.0994 C.ar      14 UNK        -0.0643 
     12 C12       -51.9110  -29.9557    8.6289 C.ar      14 UNK        -0.0930 
     13 C13       -53.1402  -29.5721    8.0822 C.ar      14 UNK        -0.0827 
     14 C14       -53.4712  -28.2152    8.0243 C.ar      14 UNK        -0.1249 
     15 C15       -54.0880  -30.6155    7.5049 C.3       14 UNK         0.0141 
     16 S16       -55.7508  -30.5586    8.2485 S.3       14 UNK        -0.2313 
     17 C17       -55.4774  -31.3829    9.8512 C.3       14 UNK        -0.0915 
     18 CA        -56.2070  -30.6555   11.0194 C.3       13 UNK         0.0968 
     19 C         -56.3089  -31.5311   12.3088 C.2       13 UNK         0.5732 
     20 N         -56.2649  -30.9677   13.5108 N.am      13 UNK        -0.7310 
     21 O         -56.4765  -32.7459   12.2244 O.2       13 UNK        -0.5035 
     22 N         -55.7219  -29.2807   11.2400 N.am      13 UNK        -0.4233 
     23 C         -54.5060  -28.9403   11.6875 C.2       13 UNK         0.4989 
     24 O         -53.6069  -29.7500   11.9112 O.2       13 UNK        -0.4996 
     25 CA        -54.2541  -27.4498   12.0069 C.3       12 UNK         0.0216 
     26 CB        -55.4027  -26.5020   11.5944 C.3       12 UNK        -0.1964 
     27 N         -53.9174  -27.2604   13.4260 N.am      12 UNK        -0.4276 
     28 C         -54.6288  -27.6900   14.4824 C.2       12 UNK         0.5020 
     29 O         -55.7325  -28.2318   14.3981 O.2       12 UNK        -0.5489 
     30 CA        -53.9999  -27.5034   15.8695 C.3       11 UNK         0.0294 
     31 CB        -53.0319  -28.6598   16.1714 C.3       11 UNK        -0.2019 
     32 N         -53.2742  -26.2392   15.9705 N.am      11 UNK        -0.4493 
     33 C         -53.7300  -25.1308   16.5660 C.2       11 UNK         0.4932 
     34 O         -54.8431  -25.0422   17.0875 O.2       11 UNK        -0.5029 
     35 CA        -52.7735  -23.9202   16.5795 C.3       10 UNK         0.0280 
     36 CB        -53.1201  -22.8874   17.6728 C.3       10 UNK        -0.1976 
     37 N         -51.3566  -24.3034   16.6480 N.am      10 UNK        -0.4242 
     38 C         -50.7386  -24.9913   17.6235 C.2       10 UNK         0.5072 
     39 O         -51.2909  -25.3480   18.6652 O.2       10 UNK        -0.5224 
     40 CA        -49.2630  -25.3859   17.4034 C.3       9 UNK         0.0343 
     41 CB        -49.1482  -26.9067   17.2039 C.3       9 UNK        -0.2003 
     42 N         -48.6269  -24.7129   16.2678 N.am      9 UNK        -0.4272 
     43 C         -48.2668  -23.4216   16.2446 C.2       9 UNK         0.4988 
     44 O         -48.3456  -22.6694   17.2161 O.2       9 UNK        -0.5108 
     45 CA        -47.7841  -22.8644   14.8938 C.3       8 UNK         0.0248 
     46 CB        -46.2814  -23.1252   14.7034 C.3       8 UNK        -0.2001 
     47 N         -48.5250  -23.4123   13.7528 N.am      8 UNK        -0.4140 
     48 C         -49.8428  -23.2687   13.5466 C.2       8 UNK         0.5028 
     49 O         -50.5827  -22.6098   14.2754 O.2       8 UNK        -0.5428 
     50 CA        -50.4525  -24.0529   12.3761 C.3       7 UNK         0.0264 
     51 CB        -50.1705  -23.3653   11.0302 C.3       7 UNK        -0.1988 
     52 N         -49.9575  -25.4287   12.3491 N.am      7 UNK        -0.4454 
     53 C         -50.3388  -26.3886   13.2053 C.2       7 UNK         0.5027 
     54 O         -51.2155  -26.2370   14.0573 O.2       7 UNK        -0.5083 
     55 CA        -49.6549  -27.7639   13.0689 C.3       6 UNK         0.0844 
     56 C56       -50.5824  -28.7198   12.2731 C.3       14 UNK        -0.0967 
     57 S57       -49.7766  -30.0887   11.3731 S.3       14 UNK        -0.2604 
     58 C58       -49.6646  -29.4166    9.6785 C.3       14 UNK         0.0134 
     59 N         -48.2905  -27.6510   12.5413 N.am      6 UNK        -0.4116 
     60 C         -47.2684  -27.1333   13.2359 C.2       5 UNK         0.5034 
     61 O         -47.3794  -26.6565   14.3660 O.2       5 UNK        -0.5045 
     62 CA        -45.9027  -27.1015   12.5326 C.3       5 UNK         0.0224 
     63 CB        -45.2990  -28.5132   12.4466 C.3       5 UNK        -0.1978 
     64 N         -45.9262  -26.4938   11.1966 N.am      5 UNK        -0.4737 
     65 C         -46.3827  -25.2659   10.9093 C.2       4 UNK         0.5027 
     66 O         -46.9473  -24.5402   11.7255 O.2       4 UNK        -0.5211 
     67 CA        -46.1638  -24.7381    9.4827 C.3       4 UNK         0.0297 
     68 CB        -44.9930  -23.7426    9.4632 C.3       4 UNK        -0.1993 
     69 N         -45.9204  -25.7885    8.4895 N.am      4 UNK        -0.4486 
     70 C         -46.8811  -26.5636    7.9742 C.2       3 UNK         0.4961 
     71 O         -48.0589  -26.5123    8.3341 O.2       3 UNK        -0.5105 
     72 CA        -46.4415  -27.5313    6.8621 C.3       3 UNK         0.0299 
     73 CB        -45.9623  -28.8815    7.4330 C.3       3 UNK        -0.1972 
     74 N         -47.5013  -27.6510    5.8533 N.am      3 UNK        -0.4305 
     75 C         -48.6006  -28.4195    5.8578 C.2       2 UNK         0.5006 
     76 O         -48.7525  -29.4291    6.5446 O.2       2 UNK        -0.5106 
     77 CA        -49.7469  -27.9232    4.9541 C.3       2 UNK         0.0296 
     78 CB        -50.9470  -28.8869    4.9217 C.3       2 UNK        -0.2002 
     79 N         -50.2068  -26.6070    5.4099 N.am      2 UNK        -0.4032 
     80 C         -49.5972  -25.4441    5.1443 C.2       1 UNK         0.5000 
     81 O         -48.6306  -25.3521    4.3833 O.2       1 UNK        -0.5238 
     82 H82       -50.9260  -20.5926    3.3018 H         1 UNK         0.0889 
     83 H83       -52.4378  -20.7276    4.2046 H         1 UNK         0.0889 
     84 H84       -51.9755  -21.9914    3.0635 H         1 UNK         0.0889 
     85 H85       -51.1667  -23.8223    4.0758 H         1 UNK         0.3028 
     86 H86       -49.1931  -23.6631    6.1626 H         1 UNK         0.0864 
     87 H87       -50.4021  -25.1025    7.8107 H         1 UNK         0.0720 
     88 H88       -50.9955  -23.4769    7.7036 H         1 UNK         0.0720 
     89 H89       -54.0714  -25.7021    8.6726 H         1 UNK         0.0814 
     90 H90       -52.5150  -25.2295    9.2911 H         1 UNK         0.0814 
     91 H91       -50.6571  -26.8921    9.3838 H         1 UNK         0.1469 
     92 H92       -51.6427  -31.0018    8.6787 H         1 UNK         0.1381 
     93 H93       -54.4220  -27.9149    7.6054 H         1 UNK         0.1206 
     94 H94       -53.6806  -31.6220    7.6122 H         1 UNK         0.0813 
     95 H95       -54.1816  -30.4378    6.4328 H         1 UNK         0.0813 
     96 H96       -54.4087  -31.4645   10.0542 H         1 UNK         0.0638 
     97 H97       -55.8417  -32.4052    9.7389 H         1 UNK         0.0638 
     98 H98       -57.2470  -30.5366   10.7143 H         1 UNK         0.0568 
     99 H99       -56.1251  -29.9680   13.6257 H         1 UNK         0.3450 
    100 H100      -56.3511  -31.5535   14.3252 H         1 UNK         0.3450 
    101 H101      -56.4095  -28.5523   11.1214 H         1 UNK         0.2987 
    102 H102      -53.3726  -27.1619   11.4336 H         1 UNK         0.0766 
    103 H103      -55.1282  -25.4618   11.7707 H         1 UNK         0.0798 
    104 H104      -56.3197  -26.6957   12.1522 H         1 UNK         0.0798 
    105 H105      -55.6294  -26.5932   10.5312 H         1 UNK         0.0798 
    106 H106      -53.0107  -26.8451   13.6140 H         1 UNK         0.3198 
    107 H107      -54.8044  -27.5345   16.6077 H         1 UNK         0.0843 
    108 H108      -53.5424  -29.6220   16.1089 H         1 UNK         0.0831 
    109 H109      -52.6189  -28.5760   17.1769 H         1 UNK         0.0831 
    110 H110      -52.1977  -28.6868   15.4691 H         1 UNK         0.0831 
    111 H111      -52.3700  -26.1939   15.5062 H         1 UNK         0.3133 
    112 H112      -52.9028  -23.4292   15.6142 H         1 UNK         0.0566 
    113 H113      -52.4351  -22.0400   17.6476 H         1 UNK         0.0814 
    114 H114      -54.1271  -22.4925   17.5332 H         1 UNK         0.0814 
    115 H115      -53.0785  -23.3239   18.6712 H         1 UNK         0.0814 
    116 H116      -50.8092  -24.0281   15.8408 H         1 UNK         0.3091 
    117 H117      -48.7154  -25.1176   18.3092 H         1 UNK         0.0702 
    118 H118      -48.1094  -27.2156   17.0849 H         1 UNK         0.0785 
    119 H119      -49.7005  -27.2387   16.3247 H         1 UNK         0.0785 
    120 H120      -49.5498  -27.4464   18.0626 H         1 UNK         0.0785 
    121 H121      -48.4383  -25.2821   15.4488 H         1 UNK         0.2998 
    122 H122      -47.9465  -21.7847   14.9038 H         1 UNK         0.0697 
    123 H123      -46.0600  -24.1921   14.6545 H         1 UNK         0.0825 
    124 H124      -45.7036  -22.7076   15.5290 H         1 UNK         0.0825 
    125 H125      -45.9136  -22.6675   13.7848 H         1 UNK         0.0825 
    126 H126      -47.9796  -23.9377   13.0697 H         1 UNK         0.3029 
    127 H127      -51.5353  -24.0798   12.5198 H         1 UNK         0.0897 
    128 H128      -50.6254  -23.9110   10.2046 H         1 UNK         0.0792 
    129 H129      -50.5835  -22.3558   11.0173 H         1 UNK         0.0792 
    130 H130      -49.1032  -23.2807   10.8261 H         1 UNK         0.0792 
    131 H131      -49.2028  -25.6262   11.7071 H         1 UNK         0.3086 
    132 H132      -49.5635  -28.1746   14.0767 H         1 UNK         0.0583 
    133 H133      -51.2832  -29.1767   12.9737 H         1 UNK         0.1020 
    134 H134      -51.2220  -28.1784   11.5807 H         1 UNK         0.1020 
    135 H135      -48.9677  -28.5790    9.6712 H         1 UNK         0.0694 
    136 H136      -49.2222  -30.1795    9.0371 H         1 UNK         0.0694 
    137 H137      -48.1208  -28.0375   11.6249 H         1 UNK         0.2989 
    138 H138      -45.2432  -26.4890   13.1514 H         1 UNK         0.1055 
    139 H139      -45.2701  -28.9863   13.4294 H         1 UNK         0.0806 
    140 H140      -44.2744  -28.4842   12.0753 H         1 UNK         0.0806 
    141 H141      -45.8755  -29.1646   11.7884 H         1 UNK         0.0806 
    142 H142      -45.4812  -27.0118   10.4534 H         1 UNK         0.3061 
    143 H143      -47.0695  -24.1971    9.1983 H         1 UNK         0.0734 
    144 H144      -45.1600  -22.9305   10.1728 H         1 UNK         0.0832 
    145 H145      -44.0500  -24.2200    9.7326 H         1 UNK         0.0832 
    146 H146      -44.8729  -23.2888    8.4793 H         1 UNK         0.0832 
    147 H147      -44.9742  -25.8833    8.1474 H         1 UNK         0.3156 
    148 H148      -45.5995  -27.0775    6.3370 H         1 UNK         0.0589 
    149 H149      -46.7001  -29.3280    8.1007 H         1 UNK         0.0808 
    150 H150      -45.7489  -29.5971    6.6390 H         1 UNK         0.0808 
    151 H151      -45.0463  -28.7549    8.0108 H         1 UNK         0.0808 
    152 H152      -47.5512  -26.8556    5.2235 H         1 UNK         0.3098 
    153 H153      -49.3580  -27.8410    3.9369 H         1 UNK         0.0720 
    154 H154      -50.6458  -29.8760    4.5746 H         1 UNK         0.0791 
    155 H155      -51.7266  -28.5290    4.2493 H         1 UNK         0.0791 
    156 H156      -51.3885  -29.0085    5.9104 H         1 UNK         0.0791 
    157 H157      -50.9803  -26.5993    6.0632 H         1 UNK         0.3028 
@<TRIPOS>BOND
     1    1    2 1    
     2    1   82 1    
     3    1   83 1    
     4    1   84 1    
     5    2    3 2    
     6    2    4 am   BACKBONE|DICT|INTERRES
     7    4    5 1    
     8    4   85 1    
     9    5    6 1    
    10    5   80 1    
    11    5   86 1    
    12    6    7 1    
    13    6   87 1    
    14    6   88 1    
    15    7    8 1    
    16    8    9 1    
    17    8   89 1    
    18    8   90 1    
    19    9   10 ar   
    20    9   14 ar   
    21   10   11 ar   
    22   10   91 1    
    23   11   12 ar   
    24   11   58 1    
    25   12   13 ar   
    26   12   92 1    
    27   13   14 ar   
    28   13   15 1    
    29   14   93 1    
    30   15   16 1    
    31   15   94 1    
    32   15   95 1    
    33   16   17 1    
    34   17   18 1    
    35   17   96 1    
    36   17   97 1    
    37   18   19 1    
    38   18   22 1    
    39   18   98 1    
    40   19   20 am   BACKBONE|DICT|INTERRES
    41   19   21 2    
    42   20   99 1    
    43   20  100 1    
    44   22   23 am   BACKBONE|DICT|INTERRES
    45   22  101 1    
    46   23   24 2    
    47   23   25 1    
    48   25   26 1    
    49   25   27 1    
    50   25  102 1    
    51   26  103 1    
    52   26  104 1    
    53   26  105 1    
    54   27   28 am   BACKBONE|DICT|INTERRES
    55   27  106 1    
    56   28   29 2    
    57   28   30 1    
    58   30   31 1    
    59   30   32 1    
    60   30  107 1    
    61   31  108 1    
    62   31  109 1    
    63   31  110 1    
    64   32   33 am   BACKBONE|DICT|INTERRES
    65   32  111 1    
    66   33   34 2    
    67   33   35 1    
    68   35   36 1    
    69   35   37 1    
    70   35  112 1    
    71   36  113 1    
    72   36  114 1    
    73   36  115 1    
    74   37   38 am   BACKBONE|DICT|INTERRES
    75   37  116 1    
    76   38   39 2    
    77   38   40 1    
    78   40   41 1    
    79   40   42 1    
    80   40  117 1    
    81   41  118 1    
    82   41  119 1    
    83   41  120 1    
    84   42   43 am   BACKBONE|DICT|INTERRES
    85   42  121 1    
    86   43   44 2    
    87   43   45 1    
    88   45   46 1    
    89   45   47 1    
    90   45  122 1    
    91   46  123 1    
    92   46  124 1    
    93   46  125 1    
    94   47   48 am   BACKBONE|DICT|INTERRES
    95   47  126 1    
    96   48   49 2    
    97   48   50 1    
    98   50   51 1    
    99   50   52 1    
   100   50  127 1    
   101   51  128 1    
   102   51  129 1    
   103   51  130 1    
   104   52   53 am   BACKBONE|DICT|INTERRES
   105   52  131 1    
   106   53   54 2    
   107   53   55 1    
   108   55   56 1    
   109   55   59 1    
   110   55  132 1    
   111   56   57 1    
   112   56  133 1    
   113   56  134 1    
   114   57   58 1    
   115   58  135 1    
   116   58  136 1    
   117   59   60 am   BACKBONE|DICT|INTERRES
   118   59  137 1    
   119   60   61 2    
   120   60   62 1    
   121   62   63 1    
   122   62   64 1    
   123   62  138 1    
   124   63  139 1    
   125   63  140 1    
   126   63  141 1    
   127   64   65 am   BACKBONE|DICT|INTERRES
   128   64  142 1    
   129   65   66 2    
   130   65   67 1    
   131   67   68 1    
   132   67   69 1    
   133   67  143 1    
   134   68  144 1    
   135   68  145 1    
   136   68  146 1    
   137   69   70 am   BACKBONE|DICT|INTERRES
   138   69  147 1    
   139   70   71 2    
   140   70   72 1    
   141   72   73 1    
   142   72   74 1    
   143   72  148 1    
   144   73  149 1    
   145   73  150 1    
   146   73  151 1    
   147   74   75 am   BACKBONE|DICT|INTERRES
   148   74  152 1    
   149   75   76 2    
   150   75   77 1    
   151   77   78 1    
   152   77   79 1    
   153   77  153 1    
   154   78  154 1    
   155   78  155 1    
   156   78  156 1    
   157   79   80 am   BACKBONE|DICT|INTERRES
   158   79  157 1    
   159   80   81 2    
@<TRIPOS>SUBSTRUCTURE
     1 UNK         1 GROUP             0       ****    0 ROOT    
