@<TRIPOS>MOLECULE
3R207
157   159    1
SMALL
USER_CHARGES


@<TRIPOS>ATOM
      1 CA        -47.8883  -23.9181    3.6481 C.3       0 UNK        -0.1975 
      2 C         -48.7516  -25.1649    3.7804 C.2       0 UNK         0.4852 
      3 O         -48.7458  -26.0016    2.8761 O.2       0 UNK        -0.5216 
      4 N         -49.4877  -25.2749    4.8967 N.am      1 UNK        -0.4461 
      5 CA        -50.3793  -26.3825    5.2818 C.3       1 UNK         0.0864 
      6 C6        -51.5208  -26.6498    4.2551 C.3       14 UNK        -0.0898 
      7 S7        -52.5795  -25.1858    3.9852 S.3       14 UNK        -0.2598 
      8 C8        -54.0575  -25.5981    4.9683 C.3       14 UNK         0.0286 
      9 C9        -53.7582  -25.5982    6.4602 C.ar      14 UNK        -0.0844 
     10 C10       -53.7509  -24.3989    7.1752 C.ar      14 UNK        -0.0881 
     11 C11       -53.4563  -24.3861    8.5415 C.ar      14 UNK        -0.0643 
     12 C12       -53.1609  -25.5905    9.1922 C.ar      14 UNK        -0.0930 
     13 C13       -53.1876  -26.8063    8.4914 C.ar      14 UNK        -0.0827 
     14 C14       -53.4911  -26.7959    7.1269 C.ar      14 UNK        -0.1249 
     15 C15       -52.8861  -28.1517    9.1525 C.3       14 UNK         0.0141 
     16 S16       -53.3321  -28.2521   10.9169 S.3       14 UNK        -0.2313 
     17 C17       -51.7000  -28.3306   11.7369 C.3       14 UNK        -0.0915 
     18 CA        -51.4192  -29.7064   12.3938 C.3       13 UNK         0.0968 
     19 C         -50.0191  -29.7024   13.0758 C.2       13 UNK         0.5732 
     20 N         -49.9122  -29.7446   14.3994 N.am      13 UNK        -0.7310 
     21 O         -49.0061  -29.6633   12.3850 O.2       13 UNK        -0.5035 
     22 N         -52.5220  -30.1087   13.2765 N.am      13 UNK        -0.4233 
     23 C         -52.6935  -31.3194   13.8192 C.2       13 UNK         0.4989 
     24 O         -52.0130  -32.3036   13.5252 O.2       13 UNK        -0.4996 
     25 CA        -53.8112  -31.4406   14.8791 C.3       12 UNK         0.0216 
     26 CB        -53.5072  -32.5307   15.9289 C.3       12 UNK        -0.1964 
     27 N         -54.1416  -30.1666   15.5414 N.am      12 UNK        -0.4276 
     28 C         -53.3087  -29.3688   16.2276 C.2       12 UNK         0.5020 
     29 O         -52.1095  -29.6027   16.3938 O.2       12 UNK        -0.5489 
     30 CA        -53.9050  -28.0487   16.7397 C.3       11 UNK         0.0294 
     31 CB        -53.2986  -27.6328   18.0914 C.3       11 UNK        -0.2019 
     32 N         -53.6863  -26.9837   15.7581 N.am      11 UNK        -0.4493 
     33 C         -54.3934  -26.8360   14.6255 C.2       11 UNK         0.4932 
     34 O         -55.3077  -27.5988   14.3093 O.2       11 UNK        -0.5029 
     35 CA        -54.0201  -25.6781   13.6713 C.3       10 UNK         0.0280 
     36 CB        -55.2460  -25.0842   12.9469 C.3       10 UNK        -0.1976 
     37 N         -53.2051  -24.6272   14.2863 N.am      10 UNK        -0.4242 
     38 C         -53.5410  -23.8075   15.2946 C.2       10 UNK         0.5072 
     39 O         -54.6636  -23.7589   15.7996 O.2       10 UNK        -0.5224 
     40 CA        -52.4117  -22.9102   15.8444 C.3       9 UNK         0.0343 
     41 CB        -52.6113  -22.5533   17.3329 C.3       9 UNK        -0.2003 
     42 N         -51.0641  -23.4575   15.6189 N.am      9 UNK        -0.4272 
     43 C         -50.5790  -24.6314   16.0602 C.2       9 UNK         0.4988 
     44 O         -51.2449  -25.4176   16.7331 O.2       9 UNK        -0.5108 
     45 CA        -49.1485  -25.0327   15.6443 C.3       8 UNK         0.0248 
     46 CB        -49.0855  -26.5076   15.2111 C.3       8 UNK        -0.2001 
     47 N         -48.6215  -24.2025   14.5588 N.am      8 UNK        -0.4140 
     48 C         -47.9586  -23.0481   14.7241 C.2       8 UNK         0.5028 
     49 O         -47.6213  -22.6043   15.8218 O.2       8 UNK        -0.5428 
     50 CA        -47.6688  -22.2172   13.4590 C.3       7 UNK         0.0264 
     51 CB        -46.2284  -22.4490   12.9767 C.3       7 UNK        -0.1988 
     52 N         -48.6057  -22.4868   12.3617 N.am      7 UNK        -0.4454 
     53 C         -49.9208  -22.2149   12.3983 C.2       7 UNK         0.5027 
     54 O         -50.4613  -21.6376   13.3417 O.2       7 UNK        -0.5083 
     55 CA        -50.7984  -22.7064   11.2277 C.3       6 UNK         0.0844 
     56 C56       -51.3245  -21.5152   10.3852 C.3       14 UNK        -0.0967 
     57 S57       -52.1089  -21.9813    8.7988 S.3       14 UNK        -0.2604 
     58 C58       -53.4832  -23.0675    9.3042 C.3       14 UNK         0.0134 
     59 N         -50.1548  -23.7297   10.4027 N.am      6 UNK        -0.4116 
     60 C         -49.8719  -24.9778   10.7899 C.2       5 UNK         0.5034 
     61 O         -50.0486  -25.3845   11.9413 O.2       5 UNK        -0.5045 
     62 CA        -49.3206  -25.9229    9.7031 C.3       5 UNK         0.0224 
     63 CB        -48.7599  -25.1925    8.4610 C.3       5 UNK        -0.1978 
     64 N         -48.3272  -26.8646   10.2222 N.am      5 UNK        -0.4737 
     65 C         -47.1715  -26.5677   10.8347 C.2       4 UNK         0.5027 
     66 O         -46.7919  -25.4172   11.0566 O.2       4 UNK        -0.5211 
     67 CA        -46.2735  -27.7414   11.2673 C.3       4 UNK         0.0297 
     68 CB        -46.1947  -27.8306   12.7997 C.3       4 UNK        -0.1993 
     69 N         -46.7214  -29.0299   10.7279 N.am      4 UNK        -0.4486 
     70 C         -46.3935  -29.4908    9.5127 C.2       3 UNK         0.4961 
     71 O         -45.6338  -28.8991    8.7440 O.2       3 UNK        -0.5105 
     72 CA        -46.9945  -30.8363    9.0559 C.3       3 UNK         0.0299 
     73 CB        -47.6719  -31.6635   10.1701 C.3       3 UNK        -0.1972 
     74 N         -47.9016  -30.6789    7.9134 N.am      3 UNK        -0.4305 
     75 C         -48.9898  -29.8975    7.8506 C.2       2 UNK         0.5006 
     76 O         -49.3919  -29.1864    8.7739 O.2       2 UNK        -0.5106 
     77 CA        -49.8058  -29.9806    6.5503 C.3       2 UNK         0.0296 
     78 CB        -50.9736  -30.9663    6.7214 C.3       2 UNK        -0.2002 
     79 N         -50.3393  -28.6786    6.1469 N.am      2 UNK        -0.4032 
     80 C         -49.6057  -27.6743    5.6470 C.2       1 UNK         0.5000 
     81 O         -48.3837  -27.7493    5.4902 O.2       1 UNK        -0.5238 
     82 H82       -47.9874  -23.2576    4.5094 H         1 UNK         0.0889 
     83 H83       -48.1729  -23.3581    2.7577 H         1 UNK         0.0889 
     84 H84       -46.8392  -24.1974    3.5547 H         1 UNK         0.0889 
     85 H85       -49.4231  -24.5348    5.5796 H         1 UNK         0.3028 
     86 H86       -50.8459  -26.0570    6.2125 H         1 UNK         0.0864 
     87 H87       -52.1566  -27.4773    4.5701 H         1 UNK         0.0720 
     88 H88       -51.1126  -26.9560    3.2913 H         1 UNK         0.0720 
     89 H89       -54.8385  -24.8674    4.7529 H         1 UNK         0.0814 
     90 H90       -54.4533  -26.5643    4.6514 H         1 UNK         0.0814 
     91 H91       -53.9665  -23.4692    6.6660 H         1 UNK         0.1469 
     92 H92       -52.9261  -25.5782   10.2471 H         1 UNK         0.1381 
     93 H93       -53.5187  -27.7265    6.5773 H         1 UNK         0.1206 
     94 H94       -51.8351  -28.3923    9.0049 H         1 UNK         0.0813 
     95 H95       -53.4443  -28.9382    8.6424 H         1 UNK         0.0813 
     96 H96       -50.9144  -28.0900   11.0211 H         1 UNK         0.0638 
     97 H97       -51.6605  -27.5439   12.4909 H         1 UNK         0.0638 
     98 H98       -51.3633  -30.4481   11.5950 H         1 UNK         0.0568 
     99 H99       -50.7323  -29.7602   14.9983 H         1 UNK         0.3450 
    100 H100      -48.9946  -29.7533   14.8115 H         1 UNK         0.3450 
    101 H101      -53.1474  -29.3700   13.5591 H         1 UNK         0.2987 
    102 H102      -54.7071  -31.7441   14.3357 H         1 UNK         0.0766 
    103 H103      -54.3127  -32.6151   16.6584 H         1 UNK         0.0798 
    104 H104      -53.3946  -33.5089   15.4597 H         1 UNK         0.0798 
    105 H105      -52.5841  -32.3222   16.4711 H         1 UNK         0.0798 
    106 H106      -55.0863  -29.8326   15.3937 H         1 UNK         0.3198 
    107 H107      -54.9794  -28.1799   16.8875 H         1 UNK         0.0843 
    108 H108      -52.2170  -27.5064   18.0319 H         1 UNK         0.0831 
    109 H109      -53.4938  -28.3887   18.8528 H         1 UNK         0.0831 
    110 H110      -53.7245  -26.6941   18.4462 H         1 UNK         0.0831 
    111 H111      -52.9192  -26.3486   15.9565 H         1 UNK         0.3133 
    112 H112      -53.3838  -26.1148   12.9049 H         1 UNK         0.0566 
    113 H113      -54.9580  -24.2787   12.2718 H         1 UNK         0.0814 
    114 H114      -55.9805  -24.6894   13.6493 H         1 UNK         0.0814 
    115 H115      -55.7479  -25.8428   12.3448 H         1 UNK         0.0814 
    116 H116      -52.2480  -24.5837   13.9663 H         1 UNK         0.3091 
    117 H117      -52.4620  -21.9821   15.2733 H         1 UNK         0.0702 
    118 H118      -51.8079  -21.9138   17.6983 H         1 UNK         0.0785 
    119 H119      -52.6444  -23.4437   17.9618 H         1 UNK         0.0785 
    120 H120      -53.5468  -22.0137   17.4851 H         1 UNK         0.0785 
    121 H121      -50.4681  -22.8784   15.0381 H         1 UNK         0.2998 
    122 H122      -48.5195  -24.9181   16.5293 H         1 UNK         0.0697 
    123 H123      -49.6820  -26.6953   14.3175 H         1 UNK         0.0825 
    124 H124      -49.4558  -27.1706   15.9945 H         1 UNK         0.0825 
    125 H125      -48.0600  -26.8074   15.0020 H         1 UNK         0.0825 
    126 H126      -48.8639  -24.4936   13.6183 H         1 UNK         0.3029 
    127 H127      -47.7714  -21.1644   13.7316 H         1 UNK         0.0897 
    128 H128      -46.0532  -23.4920   12.7122 H         1 UNK         0.0792 
    129 H129      -45.5112  -22.1883   13.7564 H         1 UNK         0.0792 
    130 H130      -45.9953  -21.8364   12.1057 H         1 UNK         0.0792 
    131 H131      -48.2369  -22.9866   11.5641 H         1 UNK         0.3086 
    132 H132      -51.6587  -23.1865   11.6970 H         1 UNK         0.0583 
    133 H133      -52.0385  -20.9289   10.9673 H         1 UNK         0.1020 
    134 H134      -50.5079  -20.8318   10.1427 H         1 UNK         0.1020 
    135 H135      -53.4714  -23.2443   10.3789 H         1 UNK         0.0694 
    136 H136      -54.4244  -22.5554    9.0993 H         1 UNK         0.0694 
    137 H137      -49.9967  -23.4737    9.4391 H         1 UNK         0.2989 
    138 H138      -50.1659  -26.5272    9.3731 H         1 UNK         0.1055 
    139 H139      -48.3310  -25.9023    7.7537 H         1 UNK         0.0806 
    140 H140      -47.9732  -24.4839    8.7241 H         1 UNK         0.0806 
    141 H141      -49.5414  -24.6469    7.9315 H         1 UNK         0.0806 
    142 H142      -48.5478  -27.8442   10.0685 H         1 UNK         0.3061 
    143 H143      -45.2686  -27.5281   10.8968 H         1 UNK         0.0734 
    144 H144      -45.8366  -26.8937   13.2288 H         1 UNK         0.0832 
    145 H145      -47.1691  -28.0372   13.2393 H         1 UNK         0.0832 
    146 H146      -45.5095  -28.6164   13.1174 H         1 UNK         0.0832 
    147 H147      -47.4249  -29.5218   11.2755 H         1 UNK         0.3156 
    148 H148      -46.1480  -31.4232    8.6960 H         1 UNK         0.0589 
    149 H149      -48.6371  -31.2502   10.4585 H         1 UNK         0.0808 
    150 H150      -47.8503  -32.6855    9.8358 H         1 UNK         0.0808 
    151 H151      -47.0493  -31.7274   11.0635 H         1 UNK         0.0808 
    152 H152      -47.6485  -31.2050    7.0886 H         1 UNK         0.3098 
    153 H153      -49.1601  -30.3448    5.7480 H         1 UNK         0.0720 
    154 H154      -51.5474  -31.0684    5.8001 H         1 UNK         0.0791 
    155 H155      -50.6097  -31.9601    6.9860 H         1 UNK         0.0791 
    156 H156      -51.6567  -30.6512    7.5113 H         1 UNK         0.0791 
    157 H157      -51.3258  -28.5365    6.2967 H         1 UNK         0.3028 
@<TRIPOS>BOND
     1    1    2 1    
     2    1   82 1    
     3    1   83 1    
     4    1   84 1    
     5    2    3 2    
     6    2    4 am   BACKBONE|DICT|INTERRES
     7    4    5 1    
     8    4   85 1    
     9    5    6 1    
    10    5   80 1    
    11    5   86 1    
    12    6    7 1    
    13    6   87 1    
    14    6   88 1    
    15    7    8 1    
    16    8    9 1    
    17    8   89 1    
    18    8   90 1    
    19    9   10 ar   
    20    9   14 ar   
    21   10   11 ar   
    22   10   91 1    
    23   11   12 ar   
    24   11   58 1    
    25   12   13 ar   
    26   12   92 1    
    27   13   14 ar   
    28   13   15 1    
    29   14   93 1    
    30   15   16 1    
    31   15   94 1    
    32   15   95 1    
    33   16   17 1    
    34   17   18 1    
    35   17   96 1    
    36   17   97 1    
    37   18   19 1    
    38   18   22 1    
    39   18   98 1    
    40   19   20 am   BACKBONE|DICT|INTERRES
    41   19   21 2    
    42   20   99 1    
    43   20  100 1    
    44   22   23 am   BACKBONE|DICT|INTERRES
    45   22  101 1    
    46   23   24 2    
    47   23   25 1    
    48   25   26 1    
    49   25   27 1    
    50   25  102 1    
    51   26  103 1    
    52   26  104 1    
    53   26  105 1    
    54   27   28 am   BACKBONE|DICT|INTERRES
    55   27  106 1    
    56   28   29 2    
    57   28   30 1    
    58   30   31 1    
    59   30   32 1    
    60   30  107 1    
    61   31  108 1    
    62   31  109 1    
    63   31  110 1    
    64   32   33 am   BACKBONE|DICT|INTERRES
    65   32  111 1    
    66   33   34 2    
    67   33   35 1    
    68   35   36 1    
    69   35   37 1    
    70   35  112 1    
    71   36  113 1    
    72   36  114 1    
    73   36  115 1    
    74   37   38 am   BACKBONE|DICT|INTERRES
    75   37  116 1    
    76   38   39 2    
    77   38   40 1    
    78   40   41 1    
    79   40   42 1    
    80   40  117 1    
    81   41  118 1    
    82   41  119 1    
    83   41  120 1    
    84   42   43 am   BACKBONE|DICT|INTERRES
    85   42  121 1    
    86   43   44 2    
    87   43   45 1    
    88   45   46 1    
    89   45   47 1    
    90   45  122 1    
    91   46  123 1    
    92   46  124 1    
    93   46  125 1    
    94   47   48 am   BACKBONE|DICT|INTERRES
    95   47  126 1    
    96   48   49 2    
    97   48   50 1    
    98   50   51 1    
    99   50   52 1    
   100   50  127 1    
   101   51  128 1    
   102   51  129 1    
   103   51  130 1    
   104   52   53 am   BACKBONE|DICT|INTERRES
   105   52  131 1    
   106   53   54 2    
   107   53   55 1    
   108   55   56 1    
   109   55   59 1    
   110   55  132 1    
   111   56   57 1    
   112   56  133 1    
   113   56  134 1    
   114   57   58 1    
   115   58  135 1    
   116   58  136 1    
   117   59   60 am   BACKBONE|DICT|INTERRES
   118   59  137 1    
   119   60   61 2    
   120   60   62 1    
   121   62   63 1    
   122   62   64 1    
   123   62  138 1    
   124   63  139 1    
   125   63  140 1    
   126   63  141 1    
   127   64   65 am   BACKBONE|DICT|INTERRES
   128   64  142 1    
   129   65   66 2    
   130   65   67 1    
   131   67   68 1    
   132   67   69 1    
   133   67  143 1    
   134   68  144 1    
   135   68  145 1    
   136   68  146 1    
   137   69   70 am   BACKBONE|DICT|INTERRES
   138   69  147 1    
   139   70   71 2    
   140   70   72 1    
   141   72   73 1    
   142   72   74 1    
   143   72  148 1    
   144   73  149 1    
   145   73  150 1    
   146   73  151 1    
   147   74   75 am   BACKBONE|DICT|INTERRES
   148   74  152 1    
   149   75   76 2    
   150   75   77 1    
   151   77   78 1    
   152   77   79 1    
   153   77  153 1    
   154   78  154 1    
   155   78  155 1    
   156   78  156 1    
   157   79   80 am   BACKBONE|DICT|INTERRES
   158   79  157 1    
   159   80   81 2    
@<TRIPOS>SUBSTRUCTURE
     1 UNK         1 GROUP             0       ****    0 ROOT    
