@<TRIPOS>MOLECULE
3R207
157   159    1
SMALL
USER_CHARGES


@<TRIPOS>ATOM
      1 CA        -52.9885  -22.3572    3.5374 C.3       0 UNK        -0.1975 
      2 C         -52.4768  -23.1979    4.6980 C.2       0 UNK         0.4852 
      3 O         -52.8789  -22.9731    5.8401 O.2       0 UNK        -0.5216 
      4 N         -51.5930  -24.1598    4.4144 N.am      1 UNK        -0.4461 
      5 CA        -50.9480  -25.0442    5.3828 C.3       1 UNK         0.0864 
      6 C6        -51.8920  -26.1745    5.8767 C.3       14 UNK        -0.0898 
      7 S7        -51.4171  -26.8268    7.5151 S.3       14 UNK        -0.2598 
      8 C8        -51.1745  -28.5846    7.1176 C.3       14 UNK         0.0286 
      9 C9        -50.8449  -29.3867    8.3650 C.ar      14 UNK        -0.0844 
     10 C10       -49.5153  -29.6277    8.7245 C.ar      14 UNK        -0.0881 
     11 C11       -49.2130  -30.3712    9.8689 C.ar      14 UNK        -0.0643 
     12 C12       -50.2550  -30.8849   10.6488 C.ar      14 UNK        -0.0930 
     13 C13       -51.5878  -30.6454   10.3015 C.ar      14 UNK        -0.0827 
     14 C14       -51.8764  -29.8966    9.1579 C.ar      14 UNK        -0.1249 
     15 C15       -52.7153  -31.1853   11.1665 C.3       14 UNK         0.0141 
     16 S16       -53.0205  -30.0775   12.5709 S.3       14 UNK        -0.2313 
     17 C17       -54.5000  -30.8266   13.3279 C.3       14 UNK        -0.0915 
     18 CA        -55.8070  -30.0482   13.0140 C.3       13 UNK         0.0968 
     19 C         -57.0374  -30.7388   13.6728 C.2       13 UNK         0.5732 
     20 N         -57.7632  -30.0993   14.5849 N.am      13 UNK        -0.7310 
     21 O         -57.3482  -31.8799   13.3387 O.2       13 UNK        -0.5035 
     22 N         -55.6993  -28.6151   13.3305 N.am      13 UNK        -0.4233 
     23 C         -56.4501  -27.6613   12.7613 C.2       13 UNK         0.4989 
     24 O         -57.2266  -27.8806   11.8296 O.2       13 UNK        -0.4996 
     25 CA        -56.3225  -26.2231   13.3081 C.3       12 UNK         0.0216 
     26 CB        -57.6392  -25.4252   13.1856 C.3       12 UNK        -0.1964 
     27 N         -55.7890  -26.1425   14.6739 N.am      12 UNK        -0.4276 
     28 C         -56.3422  -26.6490   15.7852 C.2       12 UNK         0.5020 
     29 O         -57.4002  -27.2840   15.7892 O.2       12 UNK        -0.5489 
     30 CA        -55.5589  -26.4476   17.1007 C.3       11 UNK         0.0294 
     31 CB        -56.1737  -27.2410   18.2725 C.3       11 UNK        -0.2019 
     32 N         -54.1202  -26.7436   17.0186 N.am      11 UNK        -0.4493 
     33 C         -53.5320  -27.8269   16.4910 C.2       11 UNK         0.4932 
     34 O         -54.1379  -28.6830   15.8476 O.2       11 UNK        -0.5029 
     35 CA        -52.0195  -27.9971   16.7458 C.3       10 UNK         0.0280 
     36 CB        -51.3949  -29.1055   15.8775 C.3       10 UNK        -0.1976 
     37 N         -51.2406  -26.7693   16.5667 N.am      10 UNK        -0.4242 
     38 C         -51.1395  -25.7610   17.4433 C.2       10 UNK         0.5072 
     39 O         -51.7916  -25.6969   18.4859 O.2       10 UNK        -0.5224 
     40 CA        -50.1671  -24.6281   17.0855 C.3       9 UNK         0.0343 
     41 CB        -48.7076  -25.0865   17.2440 C.3       9 UNK        -0.2003 
     42 N         -50.3922  -24.1758   15.7146 N.am      9 UNK        -0.4272 
     43 C         -51.2062  -23.1676   15.3720 C.2       9 UNK         0.4988 
     44 O         -51.7648  -22.4276   16.1827 O.2       9 UNK        -0.5108 
     45 CA        -51.4583  -22.9550   13.8680 C.3       8 UNK         0.0248 
     46 CB        -50.4692  -21.9281   13.2938 C.3       8 UNK        -0.2001 
     47 N         -51.3865  -24.2000   13.0964 N.am      8 UNK        -0.4140 
     48 C         -52.2660  -25.2065   13.2240 C.2       8 UNK         0.5028 
     49 O         -53.2511  -25.1558   13.9611 O.2       8 UNK        -0.5428 
     50 CA        -51.9992  -26.5041   12.4407 C.3       7 UNK         0.0264 
     51 CB        -52.8114  -26.5311   11.1366 C.3       7 UNK        -0.1988 
     52 N         -50.5933  -26.7539   12.1193 N.am      7 UNK        -0.4454 
     53 C         -49.5866  -26.8549   12.9984 C.2       7 UNK         0.5027 
     54 O         -49.7187  -26.7280   14.2163 O.2       7 UNK        -0.5083 
     55 CA        -48.1850  -27.0921   12.4025 C.3       6 UNK         0.0844 
     56 C56       -47.9048  -28.6219   12.2738 C.3       14 UNK        -0.0967 
     57 S57       -46.8971  -29.1278   10.8306 S.3       14 UNK        -0.2604 
     58 C58       -47.7621  -30.6301   10.2589 C.3       14 UNK         0.0134 
     59 N         -47.9311  -26.3205   11.1747 N.am      6 UNK        -0.4116 
     60 C         -48.0720  -24.9936   11.0240 C.2       5 UNK         0.5034 
     61 O         -48.6050  -24.2633   11.8615 O.2       5 UNK        -0.5045 
     62 CA        -47.5212  -24.3806    9.7195 C.3       5 UNK         0.0224 
     63 CB        -47.3559  -22.8491    9.8096 C.3       5 UNK        -0.1978 
     64 N         -46.2711  -24.9921    9.2426 N.am      5 UNK        -0.4737 
     65 C         -45.1176  -25.1487    9.9152 C.2       4 UNK         0.5027 
     66 O         -44.9536  -24.8137   11.0882 O.2       4 UNK        -0.5211 
     67 CA        -43.9405  -25.8006    9.1620 C.3       4 UNK         0.0297 
     68 CB        -43.7913  -27.2743    9.5734 C.3       4 UNK        -0.1993 
     69 N         -44.0667  -25.7267    7.7044 N.am      4 UNK        -0.4486 
     70 C         -43.8464  -24.6268    6.9702 C.2       3 UNK         0.4961 
     71 O         -43.4198  -23.5680    7.4313 O.2       3 UNK        -0.5105 
     72 CA        -44.1824  -24.7163    5.4671 C.3       3 UNK         0.0299 
     73 CB        -42.9287  -25.0862    4.6582 C.3       3 UNK        -0.1972 
     74 N         -45.2650  -25.6589    5.1479 N.am      3 UNK        -0.4305 
     75 C         -46.5175  -25.5659    5.6155 C.2       2 UNK         0.5006 
     76 O         -46.8957  -24.6741    6.3783 O.2       2 UNK        -0.5106 
     77 CA        -47.4840  -26.6976    5.2342 C.3       2 UNK         0.0296 
     78 CB        -47.1438  -27.9744    6.0226 C.3       2 UNK        -0.2002 
     79 N         -48.8579  -26.3037    5.5470 N.am      2 UNK        -0.4032 
     80 C         -49.6419  -25.5667    4.7532 C.2       1 UNK         0.5000 
     81 O         -49.3642  -25.2853    3.5818 O.2       1 UNK        -0.5238 
     82 H82       -52.7430  -21.3077    3.6973 H         1 UNK         0.0889 
     83 H83       -54.0717  -22.4463    3.4589 H         1 UNK         0.0889 
     84 H84       -52.5533  -22.6665    2.5872 H         1 UNK         0.0889 
     85 H85       -51.2357  -24.2746    3.4727 H         1 UNK         0.3028 
     86 H86       -50.6556  -24.4252    6.2344 H         1 UNK         0.0864 
     87 H87       -52.9082  -25.7938    5.9885 H         1 UNK         0.0720 
     88 H88       -51.9630  -26.9775    5.1405 H         1 UNK         0.0720 
     89 H89       -50.3812  -28.6915    6.3766 H         1 UNK         0.0814 
     90 H90       -52.0810  -28.9796    6.6558 H         1 UNK         0.0814 
     91 H91       -48.7119  -29.2361    8.1191 H         1 UNK         0.1469 
     92 H92       -50.0318  -31.4609   11.5365 H         1 UNK         0.1381 
     93 H93       -52.9058  -29.7030    8.8879 H         1 UNK         0.1206 
     94 H94       -52.4639  -32.1814   11.5337 H         1 UNK         0.0813 
     95 H95       -53.6295  -31.2889   10.5798 H         1 UNK         0.0813 
     96 H96       -54.3347  -30.8732   14.4052 H         1 UNK         0.0638 
     97 H97       -54.5817  -31.8626   12.9943 H         1 UNK         0.0638 
     98 H98       -55.9662  -30.1325   11.9375 H         1 UNK         0.0568 
     99 H99       -57.5259  -29.1581   14.8789 H         1 UNK         0.3450 
    100 H100      -58.5576  -30.5644   14.9935 H         1 UNK         0.3450 
    101 H101      -55.1092  -28.3901   14.1252 H         1 UNK         0.2987 
    102 H102      -55.5902  -25.7241   12.6748 H         1 UNK         0.0766 
    103 H103      -57.5253  -24.4108   13.5676 H         1 UNK         0.0798 
    104 H104      -58.4541  -25.9008   13.7322 H         1 UNK         0.0798 
    105 H105      -57.9529  -25.3426   12.1443 H         1 UNK         0.0798 
    106 H106      -54.8691  -25.7060   14.7368 H         1 UNK         0.3198 
    107 H107      -55.6416  -25.3863   17.3398 H         1 UNK         0.0843 
    108 H108      -56.1375  -28.3158   18.0903 H         1 UNK         0.0831 
    109 H109      -57.2194  -26.9706   18.4258 H         1 UNK         0.0831 
    110 H110      -55.6497  -27.0411   19.2071 H         1 UNK         0.0831 
    111 H111      -53.5099  -26.1127   17.5294 H         1 UNK         0.3133 
    112 H112      -51.9199  -28.3095   17.7872 H         1 UNK         0.0566 
    113 H113      -50.3442  -29.2587   16.1237 H         1 UNK         0.0814 
    114 H114      -51.9026  -30.0597   16.0246 H         1 UNK         0.0814 
    115 H115      -51.4560  -28.8641   14.8167 H         1 UNK         0.0814 
    116 H116      -50.6807  -26.7256   15.7163 H         1 UNK         0.3091 
    117 H117      -50.3359  -23.8044   17.7827 H         1 UNK         0.0702 
    118 H118      -48.0146  -24.2690   17.0448 H         1 UNK         0.0785 
    119 H119      -48.4589  -25.9058   16.5682 H         1 UNK         0.0785 
    120 H120      -48.5165  -25.4324   18.2608 H         1 UNK         0.0785 
    121 H121      -50.0065  -24.7559   14.9792 H         1 UNK         0.2998 
    122 H122      -52.4676  -22.5529   13.7563 H         1 UNK         0.0697 
    123 H123      -50.5685  -20.9676   13.8012 H         1 UNK         0.0825 
    124 H124      -49.4348  -22.2522   13.4135 H         1 UNK         0.0825 
    125 H125      -50.6455  -21.7543   12.2322 H         1 UNK         0.0825 
    126 H126      -50.5703  -24.3235   12.5056 H         1 UNK         0.3029 
    127 H127      -52.3380  -27.3229   13.0766 H         1 UNK         0.0897 
    128 H128      -52.4988  -25.7442   10.4491 H         1 UNK         0.0792 
    129 H129      -53.8744  -26.3943   11.3275 H         1 UNK         0.0792 
    130 H130      -52.7025  -27.4866   10.6233 H         1 UNK         0.0792 
    131 H131      -50.3746  -26.8755   11.1408 H         1 UNK         0.3086 
    132 H132      -47.4738  -26.6956   13.1302 H         1 UNK         0.0583 
    133 H133      -47.3925  -28.9678   13.1732 H         1 UNK         0.1020 
    134 H134      -48.8337  -29.1927   12.2581 H         1 UNK         0.1020 
    135 H135      -47.2285  -31.0355    9.3982 H         1 UNK         0.0694 
    136 H136      -47.7013  -31.3902   11.0395 H         1 UNK         0.0694 
    137 H137      -47.4775  -26.8401   10.4369 H         1 UNK         0.2989 
    138 H138      -48.2728  -24.5833    8.9546 H         1 UNK         0.1055 
    139 H139      -48.3040  -22.3626   10.0428 H         1 UNK         0.0806 
    140 H140      -47.0048  -22.4341    8.8647 H         1 UNK         0.0806 
    141 H141      -46.6441  -22.5667   10.5861 H         1 UNK         0.0806 
    142 H142      -46.2728  -25.2255    8.2561 H         1 UNK         0.3061 
    143 H143      -43.0323  -25.2715    9.4592 H         1 UNK         0.0734 
    144 H144      -42.8907  -27.7160    9.1466 H         1 UNK         0.0832 
    145 H145      -43.7164  -27.3741   10.6573 H         1 UNK         0.0832 
    146 H146      -44.6437  -27.8725    9.2504 H         1 UNK         0.0832 
    147 H147      -44.3897  -26.5574    7.2311 H         1 UNK         0.3156 
    148 H148      -44.5105  -23.7240    5.1503 H         1 UNK         0.0589 
    149 H149      -42.5659  -26.0843    4.9072 H         1 UNK         0.0808 
    150 H150      -43.1235  -25.0560    3.5859 H         1 UNK         0.0808 
    151 H151      -42.1159  -24.3859    4.8565 H         1 UNK         0.0808 
    152 H152      -45.0305  -26.4257    4.5330 H         1 UNK         0.3098 
    153 H153      -47.3925  -26.8997    4.1648 H         1 UNK         0.0720 
    154 H154      -47.8507  -28.7747    5.8032 H         1 UNK         0.0791 
    155 H155      -47.1521  -27.7998    7.0993 H         1 UNK         0.0791 
    156 H156      -46.1527  -28.3475    5.7621 H         1 UNK         0.0791 
    157 H157      -49.1658  -26.4566    6.4970 H         1 UNK         0.3028 
@<TRIPOS>BOND
     1    1    2 1    
     2    1   82 1    
     3    1   83 1    
     4    1   84 1    
     5    2    3 2    
     6    2    4 am   BACKBONE|DICT|INTERRES
     7    4    5 1    
     8    4   85 1    
     9    5    6 1    
    10    5   80 1    
    11    5   86 1    
    12    6    7 1    
    13    6   87 1    
    14    6   88 1    
    15    7    8 1    
    16    8    9 1    
    17    8   89 1    
    18    8   90 1    
    19    9   10 ar   
    20    9   14 ar   
    21   10   11 ar   
    22   10   91 1    
    23   11   12 ar   
    24   11   58 1    
    25   12   13 ar   
    26   12   92 1    
    27   13   14 ar   
    28   13   15 1    
    29   14   93 1    
    30   15   16 1    
    31   15   94 1    
    32   15   95 1    
    33   16   17 1    
    34   17   18 1    
    35   17   96 1    
    36   17   97 1    
    37   18   19 1    
    38   18   22 1    
    39   18   98 1    
    40   19   20 am   BACKBONE|DICT|INTERRES
    41   19   21 2    
    42   20   99 1    
    43   20  100 1    
    44   22   23 am   BACKBONE|DICT|INTERRES
    45   22  101 1    
    46   23   24 2    
    47   23   25 1    
    48   25   26 1    
    49   25   27 1    
    50   25  102 1    
    51   26  103 1    
    52   26  104 1    
    53   26  105 1    
    54   27   28 am   BACKBONE|DICT|INTERRES
    55   27  106 1    
    56   28   29 2    
    57   28   30 1    
    58   30   31 1    
    59   30   32 1    
    60   30  107 1    
    61   31  108 1    
    62   31  109 1    
    63   31  110 1    
    64   32   33 am   BACKBONE|DICT|INTERRES
    65   32  111 1    
    66   33   34 2    
    67   33   35 1    
    68   35   36 1    
    69   35   37 1    
    70   35  112 1    
    71   36  113 1    
    72   36  114 1    
    73   36  115 1    
    74   37   38 am   BACKBONE|DICT|INTERRES
    75   37  116 1    
    76   38   39 2    
    77   38   40 1    
    78   40   41 1    
    79   40   42 1    
    80   40  117 1    
    81   41  118 1    
    82   41  119 1    
    83   41  120 1    
    84   42   43 am   BACKBONE|DICT|INTERRES
    85   42  121 1    
    86   43   44 2    
    87   43   45 1    
    88   45   46 1    
    89   45   47 1    
    90   45  122 1    
    91   46  123 1    
    92   46  124 1    
    93   46  125 1    
    94   47   48 am   BACKBONE|DICT|INTERRES
    95   47  126 1    
    96   48   49 2    
    97   48   50 1    
    98   50   51 1    
    99   50   52 1    
   100   50  127 1    
   101   51  128 1    
   102   51  129 1    
   103   51  130 1    
   104   52   53 am   BACKBONE|DICT|INTERRES
   105   52  131 1    
   106   53   54 2    
   107   53   55 1    
   108   55   56 1    
   109   55   59 1    
   110   55  132 1    
   111   56   57 1    
   112   56  133 1    
   113   56  134 1    
   114   57   58 1    
   115   58  135 1    
   116   58  136 1    
   117   59   60 am   BACKBONE|DICT|INTERRES
   118   59  137 1    
   119   60   61 2    
   120   60   62 1    
   121   62   63 1    
   122   62   64 1    
   123   62  138 1    
   124   63  139 1    
   125   63  140 1    
   126   63  141 1    
   127   64   65 am   BACKBONE|DICT|INTERRES
   128   64  142 1    
   129   65   66 2    
   130   65   67 1    
   131   67   68 1    
   132   67   69 1    
   133   67  143 1    
   134   68  144 1    
   135   68  145 1    
   136   68  146 1    
   137   69   70 am   BACKBONE|DICT|INTERRES
   138   69  147 1    
   139   70   71 2    
   140   70   72 1    
   141   72   73 1    
   142   72   74 1    
   143   72  148 1    
   144   73  149 1    
   145   73  150 1    
   146   73  151 1    
   147   74   75 am   BACKBONE|DICT|INTERRES
   148   74  152 1    
   149   75   76 2    
   150   75   77 1    
   151   77   78 1    
   152   77   79 1    
   153   77  153 1    
   154   78  154 1    
   155   78  155 1    
   156   78  156 1    
   157   79   80 am   BACKBONE|DICT|INTERRES
   158   79  157 1    
   159   80   81 2    
@<TRIPOS>SUBSTRUCTURE
     1 UNK         1 GROUP             0       ****    0 ROOT    
