@<TRIPOS>MOLECULE
3R207
157   159    1
SMALL
USER_CHARGES


@<TRIPOS>ATOM
      1 CA        -51.6433  -29.9678    4.5401 C.3       0 UNK        -0.1975 
      2 C         -50.8298  -28.6932    4.7097 C.2       0 UNK         0.4852 
      3 O         -49.9601  -28.6492    5.5785 O.2       0 UNK        -0.5216 
      4 N         -51.1221  -27.6727    3.8873 N.am      1 UNK        -0.4461 
      5 CA        -50.5074  -26.3352    3.8336 C.3       1 UNK         0.0864 
      6 C6        -51.1109  -25.3259    4.8616 C.3       14 UNK        -0.0898 
      7 S7        -50.7457  -25.6458    6.6271 S.3       14 UNK        -0.2598 
      8 C8        -52.3611  -26.2955    7.1584 C.3       14 UNK         0.0286 
      9 C9        -52.3375  -26.9063    8.5525 C.ar      14 UNK        -0.0844 
     10 C10       -51.6139  -28.0783    8.7956 C.ar      14 UNK        -0.0881 
     11 C11       -51.6827  -28.7135   10.0397 C.ar      14 UNK        -0.0643 
     12 C12       -52.4965  -28.1720   11.0382 C.ar      14 UNK        -0.0930 
     13 C13       -53.2100  -26.9918   10.8172 C.ar      14 UNK        -0.0827 
     14 C14       -53.1130  -26.3534    9.5764 C.ar      14 UNK        -0.1249 
     15 C15       -54.1039  -26.4352   11.9185 C.3       14 UNK         0.0141 
     16 S16       -55.8343  -26.2043   11.3929 S.3       14 UNK        -0.2313 
     17 C17       -56.2853  -27.8497   10.7399 C.3       14 UNK        -0.0915 
     18 CA        -57.3436  -28.5729   11.6080 C.3       13 UNK         0.0968 
     19 C         -57.9470  -29.7892   10.8455 C.2       13 UNK         0.5732 
     20 N         -57.7264  -31.0263   11.2763 N.am      13 UNK        -0.7310 
     21 O         -58.6403  -29.6043    9.8479 O.2       13 UNK        -0.5035 
     22 N         -56.8192  -28.9069   12.9418 N.am      13 UNK        -0.4233 
     23 C         -57.5795  -29.1297   14.0178 C.2       13 UNK         0.4989 
     24 O         -58.8006  -28.9673   14.0315 O.2       13 UNK        -0.4996 
     25 CA        -56.8914  -29.6307   15.3011 C.3       12 UNK         0.0216 
     26 CB        -56.9507  -31.1690   15.3807 C.3       12 UNK        -0.1964 
     27 N         -55.5238  -29.1470   15.5434 N.am      12 UNK        -0.4276 
     28 C         -54.3930  -29.3829   14.8661 C.2       12 UNK         0.5020 
     29 O         -54.3475  -29.9651   13.7810 O.2       12 UNK        -0.5489 
     30 CA        -53.1018  -28.8528   15.5189 C.3       11 UNK         0.0294 
     31 CB        -51.8451  -29.5805   15.0163 C.3       11 UNK        -0.2019 
     32 N         -52.9207  -27.4136   15.3291 N.am      11 UNK        -0.4493 
     33 C         -53.6575  -26.4579   15.9133 C.2       11 UNK         0.4932 
     34 O         -54.6221  -26.6867   16.6468 O.2       11 UNK        -0.5029 
     35 CA        -53.1937  -25.0114   15.6687 C.3       10 UNK         0.0280 
     36 CB        -53.9963  -23.9679   16.4732 C.3       10 UNK        -0.1976 
     37 N         -51.7544  -24.8628   15.9059 N.am      10 UNK        -0.4242 
     38 C         -51.0790  -25.1319   17.0365 C.2       10 UNK         0.5072 
     39 O         -51.6097  -25.4744   18.0942 O.2       10 UNK        -0.5224 
     40 CA        -49.5430  -25.0301   16.9868 C.3       9 UNK         0.0343 
     41 CB        -48.9240  -26.4377   16.9676 C.3       9 UNK        -0.2003 
     42 N         -49.0423  -24.2687   15.8399 N.am      9 UNK        -0.4272 
     43 C         -49.1691  -22.9416   15.6990 C.2       9 UNK         0.4988 
     44 O         -49.6371  -22.2025   16.5659 O.2       9 UNK        -0.5108 
     45 CA        -48.7322  -22.3371   14.3552 C.3       8 UNK         0.0248 
     46 CB        -47.2318  -22.0061   14.3831 C.3       8 UNK        -0.2001 
     47 N         -49.0399  -23.1880   13.1984 N.am      8 UNK        -0.4140 
     48 C         -50.2773  -23.5385   12.8130 C.2       8 UNK         0.5028 
     49 O         -51.2996  -23.1903   13.4031 O.2       8 UNK        -0.5428 
     50 CA        -50.4045  -24.4613   11.5904 C.3       7 UNK         0.0264 
     51 CB        -50.1424  -23.7000   10.2819 C.3       7 UNK        -0.1988 
     52 N         -49.5230  -25.6229   11.6662 N.am      7 UNK        -0.4454 
     53 C         -49.6081  -26.5991   12.5823 C.2       7 UNK         0.5027 
     54 O         -50.4740  -26.6543   13.4615 O.2       7 UNK        -0.5083 
     55 CA        -48.4822  -27.6544   12.5355 C.3       6 UNK         0.0844 
     56 C56       -48.6864  -28.6944   11.4037 C.3       14 UNK        -0.0967 
     57 S57       -49.9072  -29.9828   11.8018 S.3       14 UNK        -0.2604 
     58 C58       -50.9204  -30.0112   10.2839 C.3       14 UNK         0.0134 
     59 N         -47.1695  -27.0153   12.4062 N.am      6 UNK        -0.4116 
     60 C         -46.5906  -26.2140   13.3097 C.2       5 UNK         0.5034 
     61 O         -47.0846  -25.9295   14.3989 O.2       5 UNK        -0.5045 
     62 CA        -45.2405  -25.5960   12.9079 C.3       5 UNK         0.0224 
     63 CB        -44.0887  -26.5703   13.2012 C.3       5 UNK        -0.1978 
     64 N         -45.1967  -25.1898   11.4990 N.am      5 UNK        -0.4737 
     65 C         -45.9340  -24.1952   10.9864 C.2       4 UNK         0.5027 
     66 O         -46.7093  -23.5096   11.6484 O.2       4 UNK        -0.5211 
     67 CA        -45.8277  -23.9500    9.4746 C.3       4 UNK         0.0297 
     68 CB        -44.5873  -23.1038    9.1485 C.3       4 UNK        -0.1993 
     69 N         -45.8208  -25.1683    8.6595 N.am      4 UNK        -0.4486 
     70 C         -46.7460  -26.1371    8.6860 C.2       3 UNK         0.4961 
     71 O         -47.6714  -26.1820    9.4975 O.2       3 UNK        -0.5105 
     72 CA        -46.6355  -27.1975    7.5768 C.3       3 UNK         0.0299 
     73 CB        -47.5198  -28.4275    7.8443 C.3       3 UNK        -0.1972 
     74 N         -47.0240  -26.5984    6.3003 N.am      3 UNK        -0.4305 
     75 C         -46.2371  -25.8162    5.5464 C.2       2 UNK         0.5006 
     76 O         -45.0446  -25.6279    5.7958 O.2       2 UNK        -0.5106 
     77 CA        -46.8787  -25.0486    4.3742 C.3       2 UNK         0.0296 
     78 CB        -46.1099  -25.2487    3.0506 C.3       2 UNK        -0.2002 
     79 N         -48.3240  -25.2735    4.2295 N.am      2 UNK        -0.4032 
     80 C         -48.9601  -26.3504    3.7444 C.2       1 UNK         0.5000 
     81 O         -48.3854  -27.3094    3.2226 O.2       1 UNK        -0.5238 
     82 H82       -50.9855  -30.8012    4.2944 H         1 UNK         0.0889 
     83 H83       -52.3876  -29.8776    3.7490 H         1 UNK         0.0889 
     84 H84       -52.1622  -30.2053    5.4686 H         1 UNK         0.0889 
     85 H85       -51.8323  -27.8259    3.1854 H         1 UNK         0.3028 
     86 H86       -50.8035  -25.9590    2.8529 H         1 UNK         0.0864 
     87 H87       -50.7899  -24.3087    4.6323 H         1 UNK         0.0720 
     88 H88       -52.1933  -25.2969    4.7277 H         1 UNK         0.0720 
     89 H89       -52.6916  -27.0603    6.4546 H         1 UNK         0.0814 
     90 H90       -53.0971  -25.4920    7.1029 H         1 UNK         0.0814 
     91 H91       -51.0172  -28.5065    8.0019 H         1 UNK         0.1469 
     92 H92       -52.5765  -28.6772   11.9900 H         1 UNK         0.1381 
     93 H93       -53.6816  -25.4514    9.3965 H         1 UNK         0.1206 
     94 H94       -53.7041  -25.4769   12.2506 H         1 UNK         0.0813 
     95 H95       -54.0980  -27.0921   12.7880 H         1 UNK         0.0813 
     96 H96       -55.4020  -28.4793   10.6287 H         1 UNK         0.0638 
     97 H97       -56.6630  -27.6859    9.7289 H         1 UNK         0.0638 
     98 H98       -58.1745  -27.8782   11.7453 H         1 UNK         0.0568 
     99 H99       -58.1290  -31.8019   10.7746 H         1 UNK         0.3450 
    100 H100      -57.1504  -31.1910   12.0855 H         1 UNK         0.3450 
    101 H101      -55.8311  -29.1367   13.0085 H         1 UNK         0.2987 
    102 H102      -57.4834  -29.2398   16.1303 H         1 UNK         0.0766 
    103 H103      -56.5746  -31.5306   16.3378 H         1 UNK         0.0798 
    104 H104      -56.3650  -31.6414   14.5915 H         1 UNK         0.0798 
    105 H105      -57.9766  -31.5267   15.2814 H         1 UNK         0.0798 
    106 H106      -55.4319  -28.5070   16.3279 H         1 UNK         0.3198 
    107 H107      -53.1770  -29.0457   16.5915 H         1 UNK         0.0843 
    108 H108      -51.6599  -29.3702   13.9653 H         1 UNK         0.0831 
    109 H109      -51.9463  -30.6614   15.1211 H         1 UNK         0.0831 
    110 H110      -50.9593  -29.2793   15.5759 H         1 UNK         0.0831 
    111 H111      -52.1410  -27.1316   14.7424 H         1 UNK         0.3133 
    112 H112      -53.3540  -24.8071   14.6097 H         1 UNK         0.0566 
    113 H113      -53.6540  -22.9557   16.2579 H         1 UNK         0.0814 
    114 H114      -55.0563  -24.0130   16.2204 H         1 UNK         0.0814 
    115 H115      -53.9116  -24.1295   17.5483 H         1 UNK         0.0814 
    116 H116      -51.2204  -24.5673   15.0967 H         1 UNK         0.3091 
    117 H117      -49.2186  -24.5259   17.8995 H         1 UNK         0.0702 
    118 H118      -47.8362  -26.3931   17.0221 H         1 UNK         0.0785 
    119 H119      -49.1926  -26.9820   16.0609 H         1 UNK         0.0785 
    120 H120      -49.2657  -27.0298   17.8177 H         1 UNK         0.0785 
    121 H121      -48.5741  -24.8016   15.1126 H         1 UNK         0.2998 
    122 H122      -49.2815  -21.4025   14.2247 H         1 UNK         0.0697 
    123 H123      -46.6230  -22.9071   14.4655 H         1 UNK         0.0825 
    124 H124      -46.9867  -21.3664   15.2320 H         1 UNK         0.0825 
    125 H125      -46.9259  -21.4761   13.4810 H         1 UNK         0.0825 
    126 H126      -48.2451  -23.4779   12.6297 H         1 UNK         0.3029 
    127 H127      -51.4302  -24.8314   11.5637 H         1 UNK         0.0897 
    128 H128      -50.3167  -24.3395    9.4161 H         1 UNK         0.0792 
    129 H129      -49.1176  -23.3325   10.2236 H         1 UNK         0.0792 
    130 H130      -50.8072  -22.8404   10.1899 H         1 UNK         0.0792 
    131 H131      -48.7970  -25.6930   10.9562 H         1 UNK         0.3086 
    132 H132      -48.4829  -28.1790   13.4936 H         1 UNK         0.0583 
    133 H133      -48.9536  -28.2050   10.4663 H         1 UNK         0.1020 
    134 H134      -47.7499  -29.2179   11.2059 H         1 UNK         0.1020 
    135 H135      -50.2743  -30.2474    9.4366 H         1 UNK         0.0694 
    136 H136      -51.6400  -30.8273   10.3604 H         1 UNK         0.0694 
    137 H137      -46.7166  -27.1123   11.5095 H         1 UNK         0.2989 
    138 H138      -45.0957  -24.7034   13.5207 H         1 UNK         0.1055 
    139 H139      -44.0926  -26.8731   14.2494 H         1 UNK         0.0806 
    140 H140      -43.1203  -26.1102   13.0033 H         1 UNK         0.0806 
    141 H141      -44.1592  -27.4775   12.5998 H         1 UNK         0.0806 
    142 H142      -44.5855  -25.7052   10.8817 H         1 UNK         0.3061 
    143 H143      -46.7111  -23.3796    9.1803 H         1 UNK         0.0734 
    144 H144      -44.5651  -22.8203    8.0961 H         1 UNK         0.0832 
    145 H145      -44.5806  -22.1810    9.7306 H         1 UNK         0.0832 
    146 H146      -43.6626  -23.6371    9.3724 H         1 UNK         0.0832 
    147 H147      -45.1366  -25.2107    7.9124 H         1 UNK         0.3156 
    148 H148      -45.5981  -27.5341    7.5233 H         1 UNK         0.0589 
    149 H149      -48.5714  -28.1554    7.9439 H         1 UNK         0.0808 
    150 H150      -47.4428  -29.1544    7.0356 H         1 UNK         0.0808 
    151 H151      -47.2191  -28.9320    8.7623 H         1 UNK         0.0808 
    152 H152      -47.9978  -26.6957    6.0451 H         1 UNK         0.3098 
    153 H153      -46.7837  -23.9940    4.6373 H         1 UNK         0.0720 
    154 H154      -46.5775  -24.7027    2.2313 H         1 UNK         0.0791 
    155 H155      -46.0492  -26.2993    2.7662 H         1 UNK         0.0791 
    156 H156      -45.0858  -24.8839    3.1390 H         1 UNK         0.0791 
    157 H157      -48.9027  -24.5529    4.6400 H         1 UNK         0.3028 
@<TRIPOS>BOND
     1    1    2 1    
     2    1   82 1    
     3    1   83 1    
     4    1   84 1    
     5    2    3 2    
     6    2    4 am   BACKBONE|DICT|INTERRES
     7    4    5 1    
     8    4   85 1    
     9    5    6 1    
    10    5   80 1    
    11    5   86 1    
    12    6    7 1    
    13    6   87 1    
    14    6   88 1    
    15    7    8 1    
    16    8    9 1    
    17    8   89 1    
    18    8   90 1    
    19    9   10 ar   
    20    9   14 ar   
    21   10   11 ar   
    22   10   91 1    
    23   11   12 ar   
    24   11   58 1    
    25   12   13 ar   
    26   12   92 1    
    27   13   14 ar   
    28   13   15 1    
    29   14   93 1    
    30   15   16 1    
    31   15   94 1    
    32   15   95 1    
    33   16   17 1    
    34   17   18 1    
    35   17   96 1    
    36   17   97 1    
    37   18   19 1    
    38   18   22 1    
    39   18   98 1    
    40   19   20 am   BACKBONE|DICT|INTERRES
    41   19   21 2    
    42   20   99 1    
    43   20  100 1    
    44   22   23 am   BACKBONE|DICT|INTERRES
    45   22  101 1    
    46   23   24 2    
    47   23   25 1    
    48   25   26 1    
    49   25   27 1    
    50   25  102 1    
    51   26  103 1    
    52   26  104 1    
    53   26  105 1    
    54   27   28 am   BACKBONE|DICT|INTERRES
    55   27  106 1    
    56   28   29 2    
    57   28   30 1    
    58   30   31 1    
    59   30   32 1    
    60   30  107 1    
    61   31  108 1    
    62   31  109 1    
    63   31  110 1    
    64   32   33 am   BACKBONE|DICT|INTERRES
    65   32  111 1    
    66   33   34 2    
    67   33   35 1    
    68   35   36 1    
    69   35   37 1    
    70   35  112 1    
    71   36  113 1    
    72   36  114 1    
    73   36  115 1    
    74   37   38 am   BACKBONE|DICT|INTERRES
    75   37  116 1    
    76   38   39 2    
    77   38   40 1    
    78   40   41 1    
    79   40   42 1    
    80   40  117 1    
    81   41  118 1    
    82   41  119 1    
    83   41  120 1    
    84   42   43 am   BACKBONE|DICT|INTERRES
    85   42  121 1    
    86   43   44 2    
    87   43   45 1    
    88   45   46 1    
    89   45   47 1    
    90   45  122 1    
    91   46  123 1    
    92   46  124 1    
    93   46  125 1    
    94   47   48 am   BACKBONE|DICT|INTERRES
    95   47  126 1    
    96   48   49 2    
    97   48   50 1    
    98   50   51 1    
    99   50   52 1    
   100   50  127 1    
   101   51  128 1    
   102   51  129 1    
   103   51  130 1    
   104   52   53 am   BACKBONE|DICT|INTERRES
   105   52  131 1    
   106   53   54 2    
   107   53   55 1    
   108   55   56 1    
   109   55   59 1    
   110   55  132 1    
   111   56   57 1    
   112   56  133 1    
   113   56  134 1    
   114   57   58 1    
   115   58  135 1    
   116   58  136 1    
   117   59   60 am   BACKBONE|DICT|INTERRES
   118   59  137 1    
   119   60   61 2    
   120   60   62 1    
   121   62   63 1    
   122   62   64 1    
   123   62  138 1    
   124   63  139 1    
   125   63  140 1    
   126   63  141 1    
   127   64   65 am   BACKBONE|DICT|INTERRES
   128   64  142 1    
   129   65   66 2    
   130   65   67 1    
   131   67   68 1    
   132   67   69 1    
   133   67  143 1    
   134   68  144 1    
   135   68  145 1    
   136   68  146 1    
   137   69   70 am   BACKBONE|DICT|INTERRES
   138   69  147 1    
   139   70   71 2    
   140   70   72 1    
   141   72   73 1    
   142   72   74 1    
   143   72  148 1    
   144   73  149 1    
   145   73  150 1    
   146   73  151 1    
   147   74   75 am   BACKBONE|DICT|INTERRES
   148   74  152 1    
   149   75   76 2    
   150   75   77 1    
   151   77   78 1    
   152   77   79 1    
   153   77  153 1    
   154   78  154 1    
   155   78  155 1    
   156   78  156 1    
   157   79   80 am   BACKBONE|DICT|INTERRES
   158   79  157 1    
   159   80   81 2    
@<TRIPOS>SUBSTRUCTURE
     1 UNK         1 GROUP             0       ****    0 ROOT    
