@<TRIPOS>MOLECULE
3R207
157   159    1
SMALL
USER_CHARGES


@<TRIPOS>ATOM
      1 CA        -50.6015  -28.9522    3.3434 C.3       0 UNK        -0.1975 
      2 C         -49.9056  -27.7442    3.9511 C.2       0 UNK         0.4852 
      3 O         -49.2228  -27.8885    4.9633 O.2       0 UNK        -0.5216 
      4 N         -50.0573  -26.5685    3.3210 N.am      1 UNK        -0.4461 
      5 CA        -49.5823  -25.2306    3.7262 C.3       1 UNK         0.0864 
      6 C6        -50.5272  -24.5253    4.7430 C.3       14 UNK        -0.0898 
      7 S7        -50.4715  -25.1486    6.4596 S.3       14 UNK        -0.2598 
      8 C8        -52.0339  -26.0737    6.5586 C.3       14 UNK         0.0286 
      9 C9        -52.2442  -26.6650    7.9447 C.ar      14 UNK        -0.0844 
     10 C10       -51.5423  -27.8087    8.3331 C.ar      14 UNK        -0.0881 
     11 C11       -51.7431  -28.3706    9.5971 C.ar      14 UNK        -0.0643 
     12 C12       -52.6502  -27.7740   10.4781 C.ar      14 UNK        -0.0930 
     13 C13       -53.3740  -26.6330   10.0994 C.ar      14 UNK        -0.0827 
     14 C14       -53.1549  -26.0840    8.8317 C.ar      14 UNK        -0.1249 
     15 C15       -54.3873  -25.9457   11.0205 C.3       14 UNK         0.0141 
     16 S16       -55.0034  -26.9563   12.4076 S.3       14 UNK        -0.2313 
     17 C17       -55.9623  -28.2339   11.5212 C.3       14 UNK        -0.0915 
     18 CA        -57.2283  -28.6667   12.3043 C.3       13 UNK         0.0968 
     19 C         -58.0957  -29.6586   11.4773 C.2       13 UNK         0.5732 
     20 N         -58.3135  -30.8898   11.9247 N.am      13 UNK        -0.7310 
     21 O         -58.5916  -29.2988   10.4121 O.2       13 UNK        -0.5035 
     22 N         -56.8707  -29.1421   13.6469 N.am      13 UNK        -0.4233 
     23 C         -57.6608  -29.1365   14.7220 C.2       13 UNK         0.4989 
     24 O         -58.8388  -28.7777   14.7048 O.2       13 UNK        -0.4996 
     25 CA        -57.0290  -29.5777   16.0557 C.3       12 UNK         0.0216 
     26 CB        -57.1770  -31.0978   16.2632 C.3       12 UNK        -0.1964 
     27 N         -55.6373  -29.1358   16.2547 N.am      12 UNK        -0.4276 
     28 C         -54.5215  -29.5050   15.6102 C.2       12 UNK         0.5020 
     29 O         -54.5053  -30.2978   14.6662 O.2       12 UNK        -0.5489 
     30 CA        -53.2135  -28.8418   16.0823 C.3       11 UNK         0.0294 
     31 CB        -51.9663  -29.6071   15.6068 C.3       11 UNK        -0.2019 
     32 N         -53.1034  -27.4482   15.6458 N.am      11 UNK        -0.4493 
     33 C         -53.8137  -26.4203   16.1296 C.2       11 UNK         0.4932 
     34 O         -54.7082  -26.5378   16.9708 O.2       11 UNK        -0.5029 
     35 CA        -53.3914  -25.0290   15.6241 C.3       10 UNK         0.0280 
     36 CB        -54.2316  -23.8788   16.2163 C.3       10 UNK        -0.1976 
     37 N         -51.9573  -24.8083   15.8435 N.am      10 UNK        -0.4242 
     38 C         -51.2932  -24.8314   17.0113 C.2       10 UNK         0.5072 
     39 O         -51.8312  -24.9227   18.1155 O.2       10 UNK        -0.5224 
     40 CA        -49.7558  -24.7742   16.9445 C.3       9 UNK         0.0343 
     41 CB        -49.1732  -26.1930   17.0491 C.3       9 UNK        -0.2003 
     42 N         -49.2446  -24.1313   15.7317 N.am      9 UNK        -0.4272 
     43 C         -49.3456  -22.8191   15.4744 C.2       9 UNK         0.4988 
     44 O         -49.8218  -21.9995   16.2608 O.2       9 UNK        -0.5108 
     45 CA        -48.8497  -22.3413   14.1009 C.3       8 UNK         0.0248 
     46 CB        -47.3282  -22.1241   14.1227 C.3       8 UNK        -0.2001 
     47 N         -49.2050  -23.2602   13.0158 N.am      8 UNK        -0.4140 
     48 C         -50.4583  -23.5176   12.6123 C.2       8 UNK         0.5028 
     49 O         -51.4576  -22.9832   13.0930 O.2       8 UNK        -0.5428 
     50 CA        -50.6332  -24.5764   11.5137 C.3       7 UNK         0.0264 
     51 CB        -50.2459  -24.0235   10.1356 C.3       7 UNK        -0.1988 
     52 N         -49.8791  -25.7968   11.7916 N.am      7 UNK        -0.4454 
     53 C         -50.1495  -26.6416   12.7980 C.2       7 UNK         0.5027 
     54 O         -51.1087  -26.5213   13.5636 O.2       7 UNK        -0.5083 
     55 CA        -49.1560  -27.7940   13.0350 C.3       6 UNK         0.0844 
     56 C56       -49.6456  -29.1345   12.4323 C.3       14 UNK        -0.0967 
     57 S57       -49.3474  -29.3306   10.6443 S.3       14 UNK        -0.2604 
     58 C58       -51.0131  -29.6493    9.9833 C.3       14 UNK         0.0134 
     59 N         -47.7843  -27.4433   12.6485 N.am      6 UNK        -0.4116 
     60 C         -47.0306  -26.5428   13.2956 C.2       5 UNK         0.5034 
     61 O         -47.4076  -25.9217   14.2900 O.2       5 UNK        -0.5045 
     62 CA        -45.6363  -26.2588   12.7146 C.3       5 UNK         0.0224 
     63 CB        -44.7013  -27.4653   12.9014 C.3       5 UNK        -0.1978 
     64 N         -45.6654  -25.8682   11.3021 N.am      5 UNK        -0.4737 
     65 C         -46.2822  -24.7788   10.8216 C.2       4 UNK         0.5027 
     66 O         -46.9209  -23.9951   11.5203 O.2       4 UNK        -0.5211 
     67 CA        -46.1786  -24.5097    9.3099 C.3       4 UNK         0.0297 
     68 CB        -45.0275  -23.5350    9.0176 C.3       4 UNK        -0.1993 
     69 N         -46.0133  -25.7121    8.4904 N.am      4 UNK        -0.4486 
     70 C         -46.8984  -26.7123    8.4034 C.2       3 UNK         0.4961 
     71 O         -47.9419  -26.7538    9.0548 O.2       3 UNK        -0.5105 
     72 CA        -46.5393  -27.8346    7.4127 C.3       3 UNK         0.0299 
     73 CB        -47.4505  -29.0665    7.5428 C.3       3 UNK        -0.1972 
     74 N         -46.5928  -27.3446    6.0349 N.am      3 UNK        -0.4305 
     75 C         -45.6170  -26.6522    5.4270 C.2       2 UNK         0.5006 
     76 O         -44.5543  -26.3590    5.9786 O.2       2 UNK        -0.5106 
     77 CA        -45.8462  -26.2057    3.9702 C.3       2 UNK         0.0296 
     78 CB        -45.1762  -27.1893    2.9970 C.3       2 UNK        -0.2002 
     79 N         -47.2618  -26.0758    3.6224 N.am      2 UNK        -0.4032 
     80 C         -48.0752  -25.1109    4.0743 C.2       1 UNK         0.5000 
     81 O         -47.6686  -24.1415    4.7192 O.2       1 UNK        -0.5238 
     82 H82       -51.1625  -28.6938    2.4455 H         1 UNK         0.0889 
     83 H83       -51.2952  -29.3833    4.0647 H         1 UNK         0.0889 
     84 H84       -49.8682  -29.7136    3.0794 H         1 UNK         0.0889 
     85 H85       -50.6061  -26.5639    2.4719 H         1 UNK         0.3028 
     86 H86       -49.6642  -24.6474    2.8075 H         1 UNK         0.0864 
     87 H87       -51.5541  -24.5707    4.3780 H         1 UNK         0.0720 
     88 H88       -50.2908  -23.4605    4.7821 H         1 UNK         0.0720 
     89 H89       -52.0332  -26.8734    5.8176 H         1 UNK         0.0814 
     90 H90       -52.8616  -25.4122    6.2985 H         1 UNK         0.0814 
     91 H91       -50.8377  -28.2598    7.6477 H         1 UNK         0.1469 
     92 H92       -52.7898  -28.2105   11.4563 H         1 UNK         0.1381 
     93 H93       -53.6992  -25.1987    8.5319 H         1 UNK         0.1206 
     94 H94       -55.2450  -25.6105   10.4354 H         1 UNK         0.0813 
     95 H95       -53.9361  -25.0445   11.4345 H         1 UNK         0.0813 
     96 H96       -55.3099  -29.0905   11.3428 H         1 UNK         0.0638 
     97 H97       -56.2380  -27.8475   10.5382 H         1 UNK         0.0638 
     98 H98       -57.8483  -27.7773   12.4314 H         1 UNK         0.0568 
     99 H99       -57.9121  -31.1925   12.7972 H         1 UNK         0.3450 
    100 H100      -58.8821  -31.5200   11.3816 H         1 UNK         0.3450 
    101 H101      -55.9244  -29.4949   13.7661 H         1 UNK         0.2987 
    102 H102      -57.6025  -29.0851   16.8426 H         1 UNK         0.0766 
    103 H103      -56.8020  -31.4022   17.2403 H         1 UNK         0.0798 
    104 H104      -56.6404  -31.6696   15.5056 H         1 UNK         0.0798 
    105 H105      -58.2248  -31.3967   16.2114 H         1 UNK         0.0798 
    106 H106      -55.5243  -28.3626   16.9055 H         1 UNK         0.3198 
    107 H107      -53.2118  -28.8574   17.1745 H         1 UNK         0.0843 
    108 H108      -51.9140  -29.6441   14.5199 H         1 UNK         0.0831 
    109 H109      -51.9822  -30.6371   15.9654 H         1 UNK         0.0831 
    110 H110      -51.0488  -29.1479   15.9753 H         1 UNK         0.0831 
    111 H111      -52.4120  -27.2444   14.9292 H         1 UNK         0.3133 
    112 H112      -53.5413  -25.0277   14.5432 H         1 UNK         0.0566 
    113 H113      -55.2866  -24.0033   15.9696 H         1 UNK         0.0814 
    114 H114      -54.1556  -23.8343   17.3031 H         1 UNK         0.0814 
    115 H115      -53.9156  -22.9147   15.8177 H         1 UNK         0.0814 
    116 H116      -51.4038  -24.7691   14.9968 H         1 UNK         0.3091 
    117 H117      -49.4089  -24.1985   17.8051 H         1 UNK         0.0702 
    118 H118      -48.0832  -26.1760   17.0575 H         1 UNK         0.0785 
    119 H119      -49.4931  -26.8198   16.2165 H         1 UNK         0.0785 
    120 H120      -49.4975  -26.6823   17.9686 H         1 UNK         0.0785 
    121 H121      -48.7628  -24.7278   15.0643 H         1 UNK         0.2998 
    122 H122      -49.3271  -21.3818   13.8918 H         1 UNK         0.0697 
    123 H123      -46.7899  -23.0592   14.2837 H         1 UNK         0.0825 
    124 H124      -47.0410  -21.4379   14.9205 H         1 UNK         0.0825 
    125 H125      -46.9766  -21.6955   13.1840 H         1 UNK         0.0825 
    126 H126      -48.4278  -23.7043   12.5284 H         1 UNK         0.3029 
    127 H127      -51.6872  -24.8471   11.4824 H         1 UNK         0.0897 
    128 H128      -49.2168  -23.6677   10.1109 H         1 UNK         0.0792 
    129 H129      -50.8887  -23.1883    9.8560 H         1 UNK         0.0792 
    130 H130      -50.3524  -24.7884    9.3670 H         1 UNK         0.0792 
    131 H131      -49.0978  -26.0027   11.1821 H         1 UNK         0.3086 
    132 H132      -49.1406  -27.9425   14.1167 H         1 UNK         0.0583 
    133 H133      -49.1309  -29.9560   12.9329 H         1 UNK         0.1020 
    134 H134      -50.7033  -29.2882   12.6462 H         1 UNK         0.1020 
    135 H135      -50.9116  -30.2818    9.1001 H         1 UNK         0.0694 
    136 H136      -51.5994  -30.2305   10.6964 H         1 UNK         0.0694 
    137 H137      -47.4324  -27.8767   11.8066 H         1 UNK         0.2989 
    138 H138      -45.2207  -25.4195   13.2771 H         1 UNK         0.1055 
    139 H139      -44.6670  -27.7737   13.9474 H         1 UNK         0.0806 
    140 H140      -43.6804  -27.2239   12.6049 H         1 UNK         0.0806 
    141 H141      -45.0241  -28.3281   12.3175 H         1 UNK         0.0806 
    142 H142      -45.1681  -26.4564   10.6494 H         1 UNK         0.3061 
    143 H143      -47.1115  -24.0350    9.0001 H         1 UNK         0.0734 
    144 H144      -45.0024  -23.2544    7.9644 H         1 UNK         0.0832 
    145 H145      -45.1400  -22.6153    9.5937 H         1 UNK         0.0832 
    146 H146      -44.0587  -23.9648    9.2754 H         1 UNK         0.0832 
    147 H147      -45.2086  -25.7488    7.8735 H         1 UNK         0.3156 
    148 H148      -45.5207  -28.1603    7.6343 H         1 UNK         0.0589 
    149 H149      -48.5025  -28.8075    7.4199 H         1 UNK         0.0808 
    150 H150      -47.2043  -29.8259    6.8008 H         1 UNK         0.0808 
    151 H151      -47.3376  -29.5258    8.5244 H         1 UNK         0.0808 
    152 H152      -47.4755  -27.4955    5.5491 H         1 UNK         0.3098 
    153 H153      -45.3728  -25.2290    3.8481 H         1 UNK         0.0720 
    154 H154      -45.2662  -26.8504    1.9647 H         1 UNK         0.0791 
    155 H155      -45.6142  -28.1861    3.0642 H         1 UNK         0.0791 
    156 H156      -44.1111  -27.2862    3.2127 H         1 UNK         0.0791 
    157 H157      -47.6763  -26.8346    3.1011 H         1 UNK         0.3028 
@<TRIPOS>BOND
     1    1    2 1    
     2    1   82 1    
     3    1   83 1    
     4    1   84 1    
     5    2    3 2    
     6    2    4 am   BACKBONE|DICT|INTERRES
     7    4    5 1    
     8    4   85 1    
     9    5    6 1    
    10    5   80 1    
    11    5   86 1    
    12    6    7 1    
    13    6   87 1    
    14    6   88 1    
    15    7    8 1    
    16    8    9 1    
    17    8   89 1    
    18    8   90 1    
    19    9   10 ar   
    20    9   14 ar   
    21   10   11 ar   
    22   10   91 1    
    23   11   12 ar   
    24   11   58 1    
    25   12   13 ar   
    26   12   92 1    
    27   13   14 ar   
    28   13   15 1    
    29   14   93 1    
    30   15   16 1    
    31   15   94 1    
    32   15   95 1    
    33   16   17 1    
    34   17   18 1    
    35   17   96 1    
    36   17   97 1    
    37   18   19 1    
    38   18   22 1    
    39   18   98 1    
    40   19   20 am   BACKBONE|DICT|INTERRES
    41   19   21 2    
    42   20   99 1    
    43   20  100 1    
    44   22   23 am   BACKBONE|DICT|INTERRES
    45   22  101 1    
    46   23   24 2    
    47   23   25 1    
    48   25   26 1    
    49   25   27 1    
    50   25  102 1    
    51   26  103 1    
    52   26  104 1    
    53   26  105 1    
    54   27   28 am   BACKBONE|DICT|INTERRES
    55   27  106 1    
    56   28   29 2    
    57   28   30 1    
    58   30   31 1    
    59   30   32 1    
    60   30  107 1    
    61   31  108 1    
    62   31  109 1    
    63   31  110 1    
    64   32   33 am   BACKBONE|DICT|INTERRES
    65   32  111 1    
    66   33   34 2    
    67   33   35 1    
    68   35   36 1    
    69   35   37 1    
    70   35  112 1    
    71   36  113 1    
    72   36  114 1    
    73   36  115 1    
    74   37   38 am   BACKBONE|DICT|INTERRES
    75   37  116 1    
    76   38   39 2    
    77   38   40 1    
    78   40   41 1    
    79   40   42 1    
    80   40  117 1    
    81   41  118 1    
    82   41  119 1    
    83   41  120 1    
    84   42   43 am   BACKBONE|DICT|INTERRES
    85   42  121 1    
    86   43   44 2    
    87   43   45 1    
    88   45   46 1    
    89   45   47 1    
    90   45  122 1    
    91   46  123 1    
    92   46  124 1    
    93   46  125 1    
    94   47   48 am   BACKBONE|DICT|INTERRES
    95   47  126 1    
    96   48   49 2    
    97   48   50 1    
    98   50   51 1    
    99   50   52 1    
   100   50  127 1    
   101   51  128 1    
   102   51  129 1    
   103   51  130 1    
   104   52   53 am   BACKBONE|DICT|INTERRES
   105   52  131 1    
   106   53   54 2    
   107   53   55 1    
   108   55   56 1    
   109   55   59 1    
   110   55  132 1    
   111   56   57 1    
   112   56  133 1    
   113   56  134 1    
   114   57   58 1    
   115   58  135 1    
   116   58  136 1    
   117   59   60 am   BACKBONE|DICT|INTERRES
   118   59  137 1    
   119   60   61 2    
   120   60   62 1    
   121   62   63 1    
   122   62   64 1    
   123   62  138 1    
   124   63  139 1    
   125   63  140 1    
   126   63  141 1    
   127   64   65 am   BACKBONE|DICT|INTERRES
   128   64  142 1    
   129   65   66 2    
   130   65   67 1    
   131   67   68 1    
   132   67   69 1    
   133   67  143 1    
   134   68  144 1    
   135   68  145 1    
   136   68  146 1    
   137   69   70 am   BACKBONE|DICT|INTERRES
   138   69  147 1    
   139   70   71 2    
   140   70   72 1    
   141   72   73 1    
   142   72   74 1    
   143   72  148 1    
   144   73  149 1    
   145   73  150 1    
   146   73  151 1    
   147   74   75 am   BACKBONE|DICT|INTERRES
   148   74  152 1    
   149   75   76 2    
   150   75   77 1    
   151   77   78 1    
   152   77   79 1    
   153   77  153 1    
   154   78  154 1    
   155   78  155 1    
   156   78  156 1    
   157   79   80 am   BACKBONE|DICT|INTERRES
   158   79  157 1    
   159   80   81 2    
@<TRIPOS>SUBSTRUCTURE
     1 UNK         1 GROUP             0       ****    0 ROOT    
