@<TRIPOS>MOLECULE
3R207
157   159    1
SMALL
USER_CHARGES


@<TRIPOS>ATOM
      1 CA        -46.4357  -26.7986    3.7716 C.3       0 UNK        -0.1975 
      2 C         -47.9363  -26.6242    3.5873 C.2       0 UNK         0.4852 
      3 O         -48.3659  -26.0658    2.5774 O.2       0 UNK        -0.5216 
      4 N         -48.7269  -27.1084    4.5533 N.am      1 UNK        -0.4461 
      5 CA        -50.1839  -26.9704    4.6270 C.3       1 UNK         0.0864 
      6 C6        -50.8338  -28.2013    5.3216 C.3       14 UNK        -0.0898 
      7 S7        -50.1125  -28.6055    6.9505 S.3       14 UNK        -0.2598 
      8 C8        -51.1356  -30.0224    7.4521 C.3       14 UNK         0.0286 
      9 C9        -50.9357  -30.3431    8.9263 C.ar      14 UNK        -0.0844 
     10 C10       -49.7061  -30.8291    9.3794 C.ar      14 UNK        -0.0881 
     11 C11       -49.5041  -31.1038   10.7349 C.ar      14 UNK        -0.0643 
     12 C12       -50.5533  -30.9119   11.6394 C.ar      14 UNK        -0.0930 
     13 C13       -51.7927  -30.4335   11.1985 C.ar      14 UNK        -0.0827 
     14 C14       -51.9724  -30.1407    9.8421 C.ar      14 UNK        -0.1249 
     15 C15       -52.9161  -30.1809   12.1961 C.3       14 UNK         0.0141 
     16 S16       -54.4590  -31.0414   11.7592 S.3       14 UNK        -0.2313 
     17 C17       -55.5857  -30.4343   13.0615 C.3       14 UNK        -0.0915 
     18 CA        -56.4702  -29.2530   12.5820 C.3       13 UNK         0.0968 
     19 C         -57.6503  -29.0040   13.5599 C.2       13 UNK         0.5732 
     20 N         -57.5697  -28.0438   14.4720 N.am      13 UNK        -0.7310 
     21 O         -58.6660  -29.6910   13.4802 O.2       13 UNK        -0.5035 
     22 N         -55.6722  -28.0456   12.3153 N.am      13 UNK        -0.4233 
     23 C         -55.9181  -27.1828   11.3214 C.2       13 UNK         0.4989 
     24 O         -56.8537  -27.3000   10.5272 O.2       13 UNK        -0.4996 
     25 CA        -54.9270  -26.0106   11.1748 C.3       12 UNK         0.0216 
     26 CB        -55.3717  -24.9557   10.1392 C.3       12 UNK        -0.1964 
     27 N         -54.5858  -25.3786   12.4532 N.am      12 UNK        -0.4276 
     28 C         -55.4075  -24.7644   13.3158 C.2       12 UNK         0.5020 
     29 O         -56.6173  -24.6182   13.1308 O.2       12 UNK        -0.5489 
     30 CA        -54.7534  -24.2351   14.6112 C.3       11 UNK         0.0294 
     31 CB        -55.7897  -23.8110   15.6735 C.3       11 UNK        -0.2019 
     32 N         -53.7752  -25.1628   15.1975 N.am      11 UNK        -0.4493 
     33 C         -53.9866  -26.4357   15.5668 C.2       11 UNK         0.4932 
     34 O         -55.0663  -27.0104   15.4230 O.2       11 UNK        -0.5029 
     35 CA        -52.8080  -27.2258   16.1696 C.3       10 UNK         0.0280 
     36 CB        -52.6509  -28.5864   15.4758 C.3       10 UNK        -0.1976 
     37 N         -51.5253  -26.5213   16.1025 N.am      10 UNK        -0.4242 
     38 C         -51.0674  -25.6676   17.0275 C.2       10 UNK         0.5072 
     39 O         -51.6840  -25.3682   18.0506 O.2       10 UNK        -0.5224 
     40 CA        -49.6964  -25.0218   16.7577 C.3       9 UNK         0.0343 
     41 CB        -48.5627  -25.9595   17.2026 C.3       9 UNK        -0.2003 
     42 N         -49.4973  -24.6416   15.3559 N.am      9 UNK        -0.4272 
     43 C         -50.2308  -23.7262   14.7039 C.2       9 UNK         0.4988 
     44 O         -51.1453  -23.0835   15.2211 O.2       9 UNK        -0.5108 
     45 CA        -49.9286  -23.5293   13.2089 C.3       8 UNK         0.0248 
     46 CB        -48.6532  -22.6963   13.0048 C.3       8 UNK        -0.2001 
     47 N         -49.8099  -24.7967   12.4881 N.am      8 UNK        -0.4140 
     48 C         -50.7828  -25.7115   12.3876 C.2       8 UNK         0.5028 
     49 O         -51.9096  -25.5747   12.8581 O.2       8 UNK        -0.5428 
     50 CA        -50.4301  -27.0282   11.6916 C.3       7 UNK         0.0264 
     51 CB        -50.4446  -26.8686   10.1678 C.3       7 UNK        -0.1988 
     52 N         -49.1400  -27.5527   12.1328 N.am      7 UNK        -0.4454 
     53 C         -48.8979  -28.0126   13.3681 C.2       7 UNK         0.5027 
     54 O         -49.7438  -28.0531   14.2614 O.2       7 UNK        -0.5083 
     55 CA        -47.4560  -28.4575   13.6772 C.3       6 UNK         0.0844 
     56 C56       -47.2095  -29.9422   13.3076 C.3       14 UNK        -0.0967 
     57 S57       -46.9790  -30.2577   11.5189 S.3       14 UNK        -0.2604 
     58 C58       -48.1517  -31.6176   11.2056 C.3       14 UNK         0.0134 
     59 N         -46.4607  -27.5543   13.0941 N.am      6 UNK        -0.4116 
     60 C         -46.3013  -26.2693   13.4392 C.2       5 UNK         0.5034 
     61 O         -46.9398  -25.7096   14.3310 O.2       5 UNK        -0.5045 
     62 CA        -45.2926  -25.4578   12.6097 C.3       5 UNK         0.0224 
     63 CB        -43.8596  -25.6958   13.1119 C.3       5 UNK        -0.1978 
     64 N         -45.3638  -25.7249   11.1667 N.am      5 UNK        -0.4737 
     65 C         -46.4521  -25.5168   10.4138 C.2       4 UNK         0.5027 
     66 O         -47.5371  -25.1568   10.8709 O.2       4 UNK        -0.5211 
     67 CA        -46.3227  -25.7956    8.9076 C.3       4 UNK         0.0297 
     68 CB        -46.7492  -27.2392    8.5922 C.3       4 UNK        -0.1993 
     69 N         -47.1414  -24.8694    8.1210 N.am      4 UNK        -0.4486 
     70 C         -46.9249  -23.5493    8.0196 C.2       3 UNK         0.4961 
     71 O         -45.9475  -22.9801    8.5080 O.2       3 UNK        -0.5105 
     72 CA        -47.9458  -22.7160    7.2201 C.3       3 UNK         0.0299 
     73 CB        -47.3413  -22.2796    5.8750 C.3       3 UNK        -0.1972 
     74 N         -49.2064  -23.4142    6.9595 N.am      3 UNK        -0.4305 
     75 C         -50.1887  -23.6280    7.8430 C.2       2 UNK         0.5006 
     76 O         -50.1647  -23.2161    9.0018 O.2       2 UNK        -0.5106 
     77 CA        -51.3945  -24.4644    7.3681 C.3       2 UNK         0.0296 
     78 CB        -52.4772  -23.5704    6.7331 C.3       2 UNK        -0.2002 
     79 N         -51.0478  -25.6034    6.4984 N.am      2 UNK        -0.4032 
     80 C         -50.5363  -25.6023    5.2571 C.2       1 UNK         0.5000 
     81 O         -50.2950  -24.5689    4.6300 O.2       1 UNK        -0.5238 
     82 H82       -46.0194  -27.3700    2.9423 H         1 UNK         0.0889 
     83 H83       -46.1951  -27.3208    4.6975 H         1 UNK         0.0889 
     84 H84       -45.9461  -25.8254    3.7952 H         1 UNK         0.0889 
     85 H85       -48.3109  -27.5767    5.3459 H         1 UNK         0.3028 
     86 H86       -50.5810  -26.9383    3.6099 H         1 UNK         0.0864 
     87 H87       -50.7097  -29.0766    4.6817 H         1 UNK         0.0720 
     88 H88       -51.9124  -28.0646    5.4220 H         1 UNK         0.0720 
     89 H89       -50.8748  -30.8921    6.8474 H         1 UNK         0.0814 
     90 H90       -52.1849  -29.8037    7.2480 H         1 UNK         0.0814 
     91 H91       -48.8974  -30.9742    8.6759 H         1 UNK         0.1469 
     92 H92       -50.3985  -31.1222   12.6886 H         1 UNK         0.1381 
     93 H93       -52.9230  -29.7527    9.5024 H         1 UNK         0.1206 
     94 H94       -53.1057  -29.1094   12.2391 H         1 UNK         0.0813 
     95 H95       -52.6165  -30.4948   13.1968 H         1 UNK         0.0813 
     96 H96       -55.0180  -30.1600   13.9513 H         1 UNK         0.0638 
     97 H97       -56.2091  -31.2818   13.3531 H         1 UNK         0.0638 
     98 H98       -56.9326  -29.5725   11.6457 H         1 UNK         0.0568 
     99 H99       -58.3496  -27.8901   15.0898 H         1 UNK         0.3450 
    100 H100      -56.7058  -27.5303   14.6185 H         1 UNK         0.3450 
    101 H101      -54.9417  -27.8344   12.9778 H         1 UNK         0.2987 
    102 H102      -53.9999  -26.4523   10.8061 H         1 UNK         0.0766 
    103 H103      -54.6265  -24.1674   10.0322 H         1 UNK         0.0798 
    104 H104      -56.3174  -24.4892   10.4169 H         1 UNK         0.0798 
    105 H105      -55.5077  -25.4061    9.1552 H         1 UNK         0.0798 
    106 H106      -53.5948  -25.4339   12.7084 H         1 UNK         0.3198 
    107 H107      -54.1913  -23.3453   14.3230 H         1 UNK         0.0843 
    108 H108      -56.4184  -24.6477   15.9800 H         1 UNK         0.0831 
    109 H109      -56.4494  -23.0325   15.2883 H         1 UNK         0.0831 
    110 H110      -55.3044  -23.4114   16.5639 H         1 UNK         0.0831 
    111 H111      -52.8356  -24.7985   15.2934 H         1 UNK         0.3133 
    112 H112      -53.0565  -27.4148   17.2158 H         1 UNK         0.0566 
    113 H113      -51.8393  -29.1660   15.9160 H         1 UNK         0.0814 
    114 H114      -53.5576  -29.1853   15.5625 H         1 UNK         0.0814 
    115 H115      -52.4313  -28.4561   14.4174 H         1 UNK         0.0814 
    116 H116      -50.9318  -26.7472   15.3097 H         1 UNK         0.3091 
    117 H117      -49.6381  -24.1107   17.3568 H         1 UNK         0.0702 
    118 H118      -47.5895  -25.4780   17.1044 H         1 UNK         0.0785 
    119 H119      -48.5424  -26.8760   16.6117 H         1 UNK         0.0785 
    120 H120      -48.6788  -26.2460   18.2487 H         1 UNK         0.0785 
    121 H121      -48.7341  -25.0990   14.8643 H         1 UNK         0.2998 
    122 H122      -50.7655  -22.9829   12.7692 H         1 UNK         0.0697 
    123 H123      -47.7718  -23.2016   13.4004 H         1 UNK         0.0825 
    124 H124      -48.7318  -21.7312   13.5067 H         1 UNK         0.0825 
    125 H125      -48.4768  -22.5005   11.9465 H         1 UNK         0.0825 
    126 H126      -48.9279  -24.9745   12.0077 H         1 UNK         0.3029 
    127 H127      -51.1904  -27.7604   11.9628 H         1 UNK         0.0897 
    128 H128      -49.8019  -26.0555    9.8306 H         1 UNK         0.0792 
    129 H129      -51.4547  -26.6645    9.8133 H         1 UNK         0.0792 
    130 H130      -50.1090  -27.7832    9.6853 H         1 UNK         0.0792 
    131 H131      -48.3800  -27.5195   11.4700 H         1 UNK         0.3086 
    132 H132      -47.3446  -28.3815   14.7613 H         1 UNK         0.0583 
    133 H133      -46.3057  -30.2866   13.8126 H         1 UNK         0.1020 
    134 H134      -48.0110  -30.5682   13.7045 H         1 UNK         0.1020 
    135 H135      -47.7269  -32.2665   10.4382 H         1 UNK         0.0694 
    136 H136      -48.2607  -32.2424   12.0931 H         1 UNK         0.0694 
    137 H137      -45.9058  -27.9288   12.3385 H         1 UNK         0.2989 
    138 H138      -45.5334  -24.4026   12.7575 H         1 UNK         0.1055 
    139 H139      -43.7819  -25.4900   14.1807 H         1 UNK         0.0806 
    140 H140      -43.1484  -25.0417   12.6071 H         1 UNK         0.0806 
    141 H141      -43.5389  -26.7264   12.9546 H         1 UNK         0.0806 
    142 H142      -44.5120  -26.0323   10.7183 H         1 UNK         0.3061 
    143 H143      -45.2799  -25.6626    8.6116 H         1 UNK         0.0734 
    144 H144      -47.7910  -27.4231    8.8556 H         1 UNK         0.0832 
    145 H145      -46.6268  -27.4683    7.5337 H         1 UNK         0.0832 
    146 H146      -46.1448  -27.9577    9.1476 H         1 UNK         0.0832 
    147 H147      -47.9901  -25.2372    7.7218 H         1 UNK         0.3156 
    148 H148      -48.1647  -21.8203    7.8050 H         1 UNK         0.0589 
    149 H149      -47.1125  -23.1359    5.2389 H         1 UNK         0.0808 
    150 H150      -48.0218  -21.6275    5.3271 H         1 UNK         0.0808 
    151 H151      -46.4134  -21.7253    6.0230 H         1 UNK         0.0808 
    152 H152      -49.3629  -23.7523    6.0121 H         1 UNK         0.3098 
    153 H153      -51.8336  -24.9041    8.2642 H         1 UNK         0.0720 
    154 H154      -53.3590  -24.1500    6.4600 H         1 UNK         0.0791 
    155 H155      -52.1180  -23.0629    5.8375 H         1 UNK         0.0791 
    156 H156      -52.8011  -22.7988    7.4328 H         1 UNK         0.0791 
    157 H157      -51.1430  -26.5144    6.9313 H         1 UNK         0.3028 
@<TRIPOS>BOND
     1    1    2 1    
     2    1   82 1    
     3    1   83 1    
     4    1   84 1    
     5    2    3 2    
     6    2    4 am   BACKBONE|DICT|INTERRES
     7    4    5 1    
     8    4   85 1    
     9    5    6 1    
    10    5   80 1    
    11    5   86 1    
    12    6    7 1    
    13    6   87 1    
    14    6   88 1    
    15    7    8 1    
    16    8    9 1    
    17    8   89 1    
    18    8   90 1    
    19    9   10 ar   
    20    9   14 ar   
    21   10   11 ar   
    22   10   91 1    
    23   11   12 ar   
    24   11   58 1    
    25   12   13 ar   
    26   12   92 1    
    27   13   14 ar   
    28   13   15 1    
    29   14   93 1    
    30   15   16 1    
    31   15   94 1    
    32   15   95 1    
    33   16   17 1    
    34   17   18 1    
    35   17   96 1    
    36   17   97 1    
    37   18   19 1    
    38   18   22 1    
    39   18   98 1    
    40   19   20 am   BACKBONE|DICT|INTERRES
    41   19   21 2    
    42   20   99 1    
    43   20  100 1    
    44   22   23 am   BACKBONE|DICT|INTERRES
    45   22  101 1    
    46   23   24 2    
    47   23   25 1    
    48   25   26 1    
    49   25   27 1    
    50   25  102 1    
    51   26  103 1    
    52   26  104 1    
    53   26  105 1    
    54   27   28 am   BACKBONE|DICT|INTERRES
    55   27  106 1    
    56   28   29 2    
    57   28   30 1    
    58   30   31 1    
    59   30   32 1    
    60   30  107 1    
    61   31  108 1    
    62   31  109 1    
    63   31  110 1    
    64   32   33 am   BACKBONE|DICT|INTERRES
    65   32  111 1    
    66   33   34 2    
    67   33   35 1    
    68   35   36 1    
    69   35   37 1    
    70   35  112 1    
    71   36  113 1    
    72   36  114 1    
    73   36  115 1    
    74   37   38 am   BACKBONE|DICT|INTERRES
    75   37  116 1    
    76   38   39 2    
    77   38   40 1    
    78   40   41 1    
    79   40   42 1    
    80   40  117 1    
    81   41  118 1    
    82   41  119 1    
    83   41  120 1    
    84   42   43 am   BACKBONE|DICT|INTERRES
    85   42  121 1    
    86   43   44 2    
    87   43   45 1    
    88   45   46 1    
    89   45   47 1    
    90   45  122 1    
    91   46  123 1    
    92   46  124 1    
    93   46  125 1    
    94   47   48 am   BACKBONE|DICT|INTERRES
    95   47  126 1    
    96   48   49 2    
    97   48   50 1    
    98   50   51 1    
    99   50   52 1    
   100   50  127 1    
   101   51  128 1    
   102   51  129 1    
   103   51  130 1    
   104   52   53 am   BACKBONE|DICT|INTERRES
   105   52  131 1    
   106   53   54 2    
   107   53   55 1    
   108   55   56 1    
   109   55   59 1    
   110   55  132 1    
   111   56   57 1    
   112   56  133 1    
   113   56  134 1    
   114   57   58 1    
   115   58  135 1    
   116   58  136 1    
   117   59   60 am   BACKBONE|DICT|INTERRES
   118   59  137 1    
   119   60   61 2    
   120   60   62 1    
   121   62   63 1    
   122   62   64 1    
   123   62  138 1    
   124   63  139 1    
   125   63  140 1    
   126   63  141 1    
   127   64   65 am   BACKBONE|DICT|INTERRES
   128   64  142 1    
   129   65   66 2    
   130   65   67 1    
   131   67   68 1    
   132   67   69 1    
   133   67  143 1    
   134   68  144 1    
   135   68  145 1    
   136   68  146 1    
   137   69   70 am   BACKBONE|DICT|INTERRES
   138   69  147 1    
   139   70   71 2    
   140   70   72 1    
   141   72   73 1    
   142   72   74 1    
   143   72  148 1    
   144   73  149 1    
   145   73  150 1    
   146   73  151 1    
   147   74   75 am   BACKBONE|DICT|INTERRES
   148   74  152 1    
   149   75   76 2    
   150   75   77 1    
   151   77   78 1    
   152   77   79 1    
   153   77  153 1    
   154   78  154 1    
   155   78  155 1    
   156   78  156 1    
   157   79   80 am   BACKBONE|DICT|INTERRES
   158   79  157 1    
   159   80   81 2    
@<TRIPOS>SUBSTRUCTURE
     1 UNK         1 GROUP             0       ****    0 ROOT    
