@<TRIPOS>MOLECULE
3R207
157   159    1
SMALL
USER_CHARGES


@<TRIPOS>ATOM
      1 CA        -48.1764  -31.1412    1.7182 C.3       0 UNK        -0.1975 
      2 C         -48.3717  -30.4502    3.0599 C.2       0 UNK         0.4852 
      3 O         -47.7954  -30.8867    4.0572 O.2       0 UNK        -0.5216 
      4 N         -49.1802  -29.3808    3.0842 N.am      1 UNK        -0.4461 
      5 CA        -49.5000  -28.5495    4.2528 C.3       1 UNK         0.0864 
      6 C6        -50.3128  -29.2972    5.3464 C.3       14 UNK        -0.0898 
      7 S7        -51.9125  -29.9172    4.7212 S.3       14 UNK        -0.2598 
      8 C8        -52.3281  -31.1808    5.9671 C.3       14 UNK         0.0286 
      9 C9        -52.5559  -30.5604    7.3378 C.ar      14 UNK        -0.0844 
     10 C10       -51.4926  -30.4415    8.2353 C.ar      14 UNK        -0.0881 
     11 C11       -51.6711  -29.8188    9.4721 C.ar      14 UNK        -0.0643 
     12 C12       -52.9367  -29.3449    9.8292 C.ar      14 UNK        -0.0930 
     13 C13       -54.0164  -29.4835    8.9508 C.ar      14 UNK        -0.0827 
     14 C14       -53.8196  -30.0881    7.7045 C.ar      14 UNK        -0.1249 
     15 C15       -55.3922  -28.9679    9.3413 C.3       14 UNK         0.0141 
     16 S16       -56.2828  -30.1909   10.3502 S.3       14 UNK        -0.2313 
     17 C17       -57.9398  -29.4296   10.4571 C.3       14 UNK        -0.0915 
     18 CA        -58.3222  -28.9222   11.8728 C.3       13 UNK         0.0968 
     19 C         -58.5323  -30.0818   12.8922 C.2       13 UNK         0.5732 
     20 N         -57.8146  -30.1286   14.0086 N.am      13 UNK        -0.7310 
     21 O         -59.3777  -30.9464   12.6727 O.2       13 UNK        -0.5035 
     22 N         -57.4274  -27.8455   12.3259 N.am      13 UNK        -0.4233 
     23 C         -57.7580  -26.8968   13.2090 C.2       13 UNK         0.4989 
     24 O         -58.8708  -26.8074   13.7314 O.2       13 UNK        -0.4996 
     25 CA        -56.6490  -25.8935   13.5787 C.3       12 UNK         0.0216 
     26 CB        -57.1585  -24.7427   14.4671 C.3       12 UNK        -0.1964 
     27 N         -55.5286  -26.5477   14.2563 N.am      12 UNK        -0.4276 
     28 C         -54.5717  -27.2732   13.6670 C.2       12 UNK         0.5020 
     29 O         -54.5407  -27.4913   12.4549 O.2       12 UNK        -0.5489 
     30 CA        -53.4716  -27.8270   14.5904 C.3       11 UNK         0.0294 
     31 CB        -52.4271  -28.6682   13.8352 C.3       11 UNK        -0.2019 
     32 N         -52.7858  -26.7450   15.2984 N.am      11 UNK        -0.4493 
     33 C         -53.2310  -26.1336   16.4045 C.2       11 UNK         0.4932 
     34 O         -54.3050  -26.4140   16.9413 O.2       11 UNK        -0.5029 
     35 CA        -52.3475  -25.0097   16.9807 C.3       10 UNK         0.0280 
     36 CB        -52.6757  -24.6750   18.4510 C.3       10 UNK        -0.1976 
     37 N         -50.9134  -25.2619   16.8002 N.am      10 UNK        -0.4242 
     38 C         -50.1884  -26.2759   17.3006 C.2       10 UNK         0.5072 
     39 O         -50.6369  -27.1229   18.0746 O.2       10 UNK        -0.5224 
     40 CA        -48.7179  -26.3963   16.8500 C.3       9 UNK         0.0343 
     41 CB        -48.5346  -27.6405   15.9642 C.3       9 UNK        -0.2003 
     42 N         -48.2180  -25.2233   16.1269 N.am      9 UNK        -0.4272 
     43 C         -47.9251  -24.0427   16.6901 C.2       9 UNK         0.4988 
     44 O         -47.9662  -23.8333   17.9028 O.2       9 UNK        -0.5108 
     45 CA        -47.5640  -22.8890   15.7376 C.3       8 UNK         0.0248 
     46 CB        -46.0662  -22.9213   15.3944 C.3       8 UNK        -0.2001 
     47 N         -48.3583  -22.8834   14.5028 N.am      8 UNK        -0.4140 
     48 C         -49.6914  -22.7339   14.4522 C.2       8 UNK         0.5028 
     49 O         -50.3967  -22.5551   15.4447 O.2       8 UNK        -0.5428 
     50 CA        -50.3643  -22.8656   13.0751 C.3       7 UNK         0.0264 
     51 CB        -50.1666  -21.5934   12.2364 C.3       7 UNK        -0.1988 
     52 N         -49.8914  -24.0349   12.3317 N.am      7 UNK        -0.4454 
     53 C         -50.0540  -25.3054   12.7310 C.2       7 UNK         0.5027 
     54 O         -50.6874  -25.6323   13.7352 O.2       7 UNK        -0.5083 
     55 CA        -49.3450  -26.3925   11.9042 C.3       6 UNK         0.0844 
     56 C56       -50.2105  -26.8483   10.7055 C.3       14 UNK        -0.0967 
     57 S57       -49.4385  -28.2600    9.8488 S.3       14 UNK        -0.2604 
     58 C58       -50.4792  -29.6472   10.3973 C.3       14 UNK         0.0134 
     59 N         -48.0085  -25.9531   11.4947 N.am      6 UNK        -0.4116 
     60 C         -46.9709  -25.7784   12.3234 C.2       5 UNK         0.5034 
     61 O         -47.0140  -25.9940   13.5339 O.2       5 UNK        -0.5045 
     62 CA        -45.6801  -25.2241   11.6984 C.3       5 UNK         0.0224 
     63 CB        -44.8677  -26.3493   11.0422 C.3       5 UNK        -0.1978 
     64 N         -45.9448  -24.1677   10.7172 N.am      5 UNK        -0.4737 
     65 C         -46.4460  -22.9666   11.0397 C.2       4 UNK         0.5027 
     66 O         -46.6882  -22.6181   12.1940 O.2       4 UNK        -0.5211 
     67 CA        -46.7813  -22.0078    9.8862 C.3       4 UNK         0.0297 
     68 CB        -45.5610  -21.1417    9.5380 C.3       4 UNK        -0.1993 
     69 N         -47.2662  -22.6779    8.6773 N.am      4 UNK        -0.4486 
     70 C         -48.3301  -23.4900    8.6041 C.2       3 UNK         0.4961 
     71 O         -49.0288  -23.7941    9.5713 O.2       3 UNK        -0.5105 
     72 CA        -48.6733  -24.0695    7.2209 C.3       3 UNK         0.0299 
     73 CB        -48.1873  -23.1896    6.0470 C.3       3 UNK        -0.1972 
     74 N         -48.2111  -25.4503    7.0397 N.am      3 UNK        -0.4305 
     75 C         -46.9621  -25.9302    7.1637 C.2       2 UNK         0.5006 
     76 O         -46.0183  -25.2808    7.6176 O.2       2 UNK        -0.5106 
     77 CA        -46.7043  -27.3726    6.6784 C.3       2 UNK         0.0296 
     78 CB        -46.1792  -28.2685    7.8116 C.3       2 UNK        -0.2002 
     79 N         -47.8729  -28.0058    6.0518 N.am      2 UNK        -0.4032 
     80 C         -48.2321  -27.8290    4.7696 C.2       1 UNK         0.5000 
     81 O         -47.6099  -27.1040    3.9892 O.2       1 UNK        -0.5238 
     82 H82       -48.7469  -30.6601    0.9240 H         1 UNK         0.0889 
     83 H83       -48.4959  -32.1809    1.7825 H         1 UNK         0.0889 
     84 H84       -47.1236  -31.1245    1.4375 H         1 UNK         0.0889 
     85 H85       -49.5997  -29.0702    2.2191 H         1 UNK         0.3028 
     86 H86       -50.1393  -27.7490    3.8766 H         1 UNK         0.0864 
     87 H87       -49.7413  -30.1349    5.7486 H         1 UNK         0.0720 
     88 H88       -50.5347  -28.6308    6.1822 H         1 UNK         0.0720 
     89 H89       -51.5333  -31.9273    6.0104 H         1 UNK         0.0814 
     90 H90       -53.2260  -31.7116    5.6472 H         1 UNK         0.0814 
     91 H91       -50.5120  -30.8047    7.9602 H         1 UNK         0.1469 
     92 H92       -53.0844  -28.8659   10.7871 H         1 UNK         0.1381 
     93 H93       -54.6476  -30.1829    7.0150 H         1 UNK         0.1206 
     94 H94       -55.2991  -28.0327    9.8950 H         1 UNK         0.0813 
     95 H95       -55.9729  -28.7409    8.4459 H         1 UNK         0.0813 
     96 H96       -58.6692  -30.1629   10.1083 H         1 UNK         0.0638 
     97 H97       -58.0051  -28.6030    9.7482 H         1 UNK         0.0638 
     98 H98       -59.3127  -28.4754   11.7676 H         1 UNK         0.0568 
     99 H99       -57.1260  -29.4212   14.2017 H         1 UNK         0.3450 
    100 H100      -57.9673  -30.8809   14.6614 H         1 UNK         0.3450 
    101 H101      -56.4637  -27.8885   12.0089 H         1 UNK         0.2987 
    102 H102      -56.2858  -25.4556   12.6463 H         1 UNK         0.0766 
    103 H103      -56.3721  -24.0125   14.6594 H         1 UNK         0.0798 
    104 H104      -57.5219  -25.1045   15.4300 H         1 UNK         0.0798 
    105 H105      -57.9807  -24.2113   13.9859 H         1 UNK         0.0798 
    106 H106      -55.4647  -26.4295   15.2629 H         1 UNK         0.3198 
    107 H107      -53.9571  -28.4794   15.3196 H         1 UNK         0.0843 
    108 H108      -52.8980  -29.5028   13.3139 H         1 UNK         0.0831 
    109 H109      -51.6865  -29.0867   14.5168 H         1 UNK         0.0831 
    110 H110      -51.8984  -28.0727   13.0925 H         1 UNK         0.0831 
    111 H111      -51.9398  -26.3862   14.8573 H         1 UNK         0.3133 
    112 H112      -52.5696  -24.1224   16.3864 H         1 UNK         0.0566 
    113 H113      -52.0405  -23.8723   18.8254 H         1 UNK         0.0814 
    114 H114      -53.7097  -24.3438   18.5548 H         1 UNK         0.0814 
    115 H115      -52.5458  -25.5391   19.1032 H         1 UNK         0.0814 
    116 H116      -50.4487  -24.6180   16.1705 H         1 UNK         0.3091 
    117 H117      -48.1128  -26.5262   17.7495 H         1 UNK         0.0702 
    118 H118      -47.4906  -27.7768   15.6815 H         1 UNK         0.0785 
    119 H119      -49.1236  -27.5722   15.0491 H         1 UNK         0.0785 
    120 H120      -48.8487  -28.5450   16.4868 H         1 UNK         0.0785 
    121 H121      -48.0767  -25.3346   15.1277 H         1 UNK         0.2998 
    122 H122      -47.7711  -21.9541   16.2624 H         1 UNK         0.0697 
    123 H123      -45.8001  -23.8175   14.8333 H         1 UNK         0.0825 
    124 H124      -45.4567  -22.9082   16.2990 H         1 UNK         0.0825 
    125 H125      -45.7779  -22.0559   14.7974 H         1 UNK         0.0825 
    126 H126      -47.8395  -22.9672   13.6306 H         1 UNK         0.3029 
    127 H127      -51.4357  -22.9969   13.2420 H         1 UNK         0.0897 
    128 H128      -50.6542  -21.6773   11.2649 H         1 UNK         0.0792 
    129 H129      -50.5941  -20.7263   12.7414 H         1 UNK         0.0792 
    130 H130      -49.1121  -21.3803   12.0648 H         1 UNK         0.0792 
    131 H131      -49.4076  -23.8631   11.4534 H         1 UNK         0.3086 
    132 H132      -49.2165  -27.2536   12.5638 H         1 UNK         0.0583 
    133 H133      -51.2170  -27.1207   11.0270 H         1 UNK         0.1020 
    134 H134      -50.3400  -26.0387    9.9857 H         1 UNK         0.1020 
    135 H135      -49.8803  -30.5591   10.3889 H         1 UNK         0.0694 
    136 H136      -50.7952  -29.5023   11.4308 H         1 UNK         0.0694 
    137 H137      -47.9024  -25.6974   10.5239 H         1 UNK         0.2989 
    138 H138      -45.0812  -24.7955   12.5053 H         1 UNK         0.1055 
    139 H139      -44.6273  -27.1300   11.7654 H         1 UNK         0.0806 
    140 H140      -43.9252  -25.9779   10.6397 H         1 UNK         0.0806 
    141 H141      -45.4197  -26.8173   10.2285 H         1 UNK         0.0806 
    142 H142      -45.7969  -24.3868    9.7385 H         1 UNK         0.3061 
    143 H143      -47.5789  -21.3473   10.2305 H         1 UNK         0.0734 
    144 H144      -45.1930  -20.6151   10.4199 H         1 UNK         0.0832 
    145 H145      -44.7369  -21.7417    9.1497 H         1 UNK         0.0832 
    146 H146      -45.8085  -20.3859    8.7925 H         1 UNK         0.0832 
    147 H147      -46.7330  -22.5296    7.8328 H         1 UNK         0.3156 
    148 H148      -49.7629  -24.1020    7.1719 H         1 UNK         0.0589 
    149 H149      -47.1008  -23.1821    5.9530 H         1 UNK         0.0808 
    150 H150      -48.5912  -23.5490    5.1004 H         1 UNK         0.0808 
    151 H151      -48.5198  -22.1568    6.1625 H         1 UNK         0.0808 
    152 H152      -48.9159  -26.0962    6.7174 H         1 UNK         0.3098 
    153 H153      -45.9109  -27.3082    5.9305 H         1 UNK         0.0720 
    154 H154      -45.2115  -27.9117    8.1654 H         1 UNK         0.0791 
    155 H155      -46.0340  -29.2947    7.4735 H         1 UNK         0.0791 
    156 H156      -46.8528  -28.2879    8.6662 H         1 UNK         0.0791 
    157 H157      -48.4171  -28.6263    6.6338 H         1 UNK         0.3028 
@<TRIPOS>BOND
     1    1    2 1    
     2    1   82 1    
     3    1   83 1    
     4    1   84 1    
     5    2    3 2    
     6    2    4 am   BACKBONE|DICT|INTERRES
     7    4    5 1    
     8    4   85 1    
     9    5    6 1    
    10    5   80 1    
    11    5   86 1    
    12    6    7 1    
    13    6   87 1    
    14    6   88 1    
    15    7    8 1    
    16    8    9 1    
    17    8   89 1    
    18    8   90 1    
    19    9   10 ar   
    20    9   14 ar   
    21   10   11 ar   
    22   10   91 1    
    23   11   12 ar   
    24   11   58 1    
    25   12   13 ar   
    26   12   92 1    
    27   13   14 ar   
    28   13   15 1    
    29   14   93 1    
    30   15   16 1    
    31   15   94 1    
    32   15   95 1    
    33   16   17 1    
    34   17   18 1    
    35   17   96 1    
    36   17   97 1    
    37   18   19 1    
    38   18   22 1    
    39   18   98 1    
    40   19   20 am   BACKBONE|DICT|INTERRES
    41   19   21 2    
    42   20   99 1    
    43   20  100 1    
    44   22   23 am   BACKBONE|DICT|INTERRES
    45   22  101 1    
    46   23   24 2    
    47   23   25 1    
    48   25   26 1    
    49   25   27 1    
    50   25  102 1    
    51   26  103 1    
    52   26  104 1    
    53   26  105 1    
    54   27   28 am   BACKBONE|DICT|INTERRES
    55   27  106 1    
    56   28   29 2    
    57   28   30 1    
    58   30   31 1    
    59   30   32 1    
    60   30  107 1    
    61   31  108 1    
    62   31  109 1    
    63   31  110 1    
    64   32   33 am   BACKBONE|DICT|INTERRES
    65   32  111 1    
    66   33   34 2    
    67   33   35 1    
    68   35   36 1    
    69   35   37 1    
    70   35  112 1    
    71   36  113 1    
    72   36  114 1    
    73   36  115 1    
    74   37   38 am   BACKBONE|DICT|INTERRES
    75   37  116 1    
    76   38   39 2    
    77   38   40 1    
    78   40   41 1    
    79   40   42 1    
    80   40  117 1    
    81   41  118 1    
    82   41  119 1    
    83   41  120 1    
    84   42   43 am   BACKBONE|DICT|INTERRES
    85   42  121 1    
    86   43   44 2    
    87   43   45 1    
    88   45   46 1    
    89   45   47 1    
    90   45  122 1    
    91   46  123 1    
    92   46  124 1    
    93   46  125 1    
    94   47   48 am   BACKBONE|DICT|INTERRES
    95   47  126 1    
    96   48   49 2    
    97   48   50 1    
    98   50   51 1    
    99   50   52 1    
   100   50  127 1    
   101   51  128 1    
   102   51  129 1    
   103   51  130 1    
   104   52   53 am   BACKBONE|DICT|INTERRES
   105   52  131 1    
   106   53   54 2    
   107   53   55 1    
   108   55   56 1    
   109   55   59 1    
   110   55  132 1    
   111   56   57 1    
   112   56  133 1    
   113   56  134 1    
   114   57   58 1    
   115   58  135 1    
   116   58  136 1    
   117   59   60 am   BACKBONE|DICT|INTERRES
   118   59  137 1    
   119   60   61 2    
   120   60   62 1    
   121   62   63 1    
   122   62   64 1    
   123   62  138 1    
   124   63  139 1    
   125   63  140 1    
   126   63  141 1    
   127   64   65 am   BACKBONE|DICT|INTERRES
   128   64  142 1    
   129   65   66 2    
   130   65   67 1    
   131   67   68 1    
   132   67   69 1    
   133   67  143 1    
   134   68  144 1    
   135   68  145 1    
   136   68  146 1    
   137   69   70 am   BACKBONE|DICT|INTERRES
   138   69  147 1    
   139   70   71 2    
   140   70   72 1    
   141   72   73 1    
   142   72   74 1    
   143   72  148 1    
   144   73  149 1    
   145   73  150 1    
   146   73  151 1    
   147   74   75 am   BACKBONE|DICT|INTERRES
   148   74  152 1    
   149   75   76 2    
   150   75   77 1    
   151   77   78 1    
   152   77   79 1    
   153   77  153 1    
   154   78  154 1    
   155   78  155 1    
   156   78  156 1    
   157   79   80 am   BACKBONE|DICT|INTERRES
   158   79  157 1    
   159   80   81 2    
@<TRIPOS>SUBSTRUCTURE
     1 UNK         1 GROUP             0       ****    0 ROOT    
