@<TRIPOS>MOLECULE
3R207
157   159    1
SMALL
USER_CHARGES


@<TRIPOS>ATOM
      1 CA        -44.8562  -29.1458    8.4740 C.3       0 UNK        -0.1975 
      2 C         -45.8866  -29.2935    7.3653 C.2       0 UNK         0.4852 
      3 O         -45.5618  -29.0747    6.1984 O.2       0 UNK        -0.5216 
      4 N         -47.1341  -29.6352    7.7212 N.am      1 UNK        -0.4461 
      5 CA        -48.2487  -29.9480    6.8095 C.3       1 UNK         0.0864 
      6 C6        -49.4365  -30.5801    7.5820 C.3       14 UNK        -0.0898 
      7 S7        -50.2949  -29.4169    8.7022 S.3       14 UNK        -0.2598 
      8 C8        -51.8712  -29.2104    7.8142 C.3       14 UNK         0.0286 
      9 C9        -52.5203  -27.8751    8.1340 C.ar      14 UNK        -0.0844 
     10 C10       -52.1181  -26.7285    7.4478 C.ar      14 UNK        -0.0881 
     11 C11       -52.7128  -25.4953    7.7212 C.ar      14 UNK        -0.0643 
     12 C12       -53.7347  -25.4173    8.6724 C.ar      14 UNK        -0.0930 
     13 C13       -54.1432  -26.5558    9.3758 C.ar      14 UNK        -0.0827 
     14 C14       -53.5255  -27.7824    9.0997 C.ar      14 UNK        -0.1249 
     15 C15       -55.2137  -26.4258   10.4580 C.3       14 UNK         0.0141 
     16 S16       -56.5812  -27.6208   10.2920 S.3       14 UNK        -0.2313 
     17 C17       -55.9508  -29.0583   11.2257 C.3       14 UNK        -0.0915 
     18 CA        -56.8261  -29.4164   12.4527 C.3       13 UNK         0.0968 
     19 C         -56.4204  -30.7992   13.0455 C.2       13 UNK         0.5732 
     20 N         -56.0026  -30.9070   14.3019 N.am      13 UNK        -0.7310 
     21 O         -56.4992  -31.8074   12.3475 O.2       13 UNK        -0.5035 
     22 N         -56.8517  -28.3259   13.4395 N.am      13 UNK        -0.4233 
     23 C         -57.8443  -28.1330   14.3186 C.2       13 UNK         0.4989 
     24 O         -58.8922  -28.7824   14.3122 O.2       13 UNK        -0.4996 
     25 CA        -57.6344  -27.0379   15.3880 C.3       12 UNK         0.0216 
     26 CB        -58.4833  -27.2808   16.6548 C.3       12 UNK        -0.1964 
     27 N         -56.2280  -26.8162   15.7549 N.am      12 UNK        -0.4276 
     28 C         -55.3588  -27.7268   16.2177 C.2       12 UNK         0.5020 
     29 O         -55.6241  -28.9180   16.3938 O.2       12 UNK        -0.5489 
     30 CA        -53.9335  -27.2239   16.4913 C.3       11 UNK         0.0294 
     31 CB        -53.5517  -27.4199   17.9672 C.3       11 UNK        -0.2019 
     32 N         -52.9431  -27.8896   15.6436 N.am      11 UNK        -0.4493 
     33 C         -52.9286  -27.8934   14.3048 C.2       11 UNK         0.4932 
     34 O         -53.7831  -27.3390   13.6112 O.2       11 UNK        -0.5029 
     35 CA        -51.7275  -28.5949   13.6440 C.3       10 UNK         0.0280 
     36 CB        -51.7974  -28.5847   12.1070 C.3       10 UNK        -0.1976 
     37 N         -50.4703  -27.9686   14.0521 N.am      10 UNK        -0.4242 
     38 C         -49.8137  -28.2131   15.1945 C.2       10 UNK         0.5072 
     39 O         -50.2045  -29.0122   16.0469 O.2       10 UNK        -0.5224 
     40 CA        -48.5390  -27.4007   15.4487 C.3       9 UNK         0.0343 
     41 CB        -47.3825  -27.8971   14.5653 C.3       9 UNK        -0.2003 
     42 N         -48.7919  -25.9839   15.1869 N.am      9 UNK        -0.4272 
     43 C         -48.7300  -25.0123   16.1058 C.2       9 UNK         0.4988 
     44 O         -48.3607  -25.1802   17.2689 O.2       9 UNK        -0.5108 
     45 CA        -49.1616  -23.6075   15.6540 C.3       8 UNK         0.0248 
     46 CB        -47.9953  -22.8823   14.9636 C.3       8 UNK        -0.2001 
     47 N         -50.3202  -23.6172   14.7594 N.am      8 UNK        -0.4140 
     48 C         -51.5583  -24.0157   15.0770 C.2       8 UNK         0.5028 
     49 O         -51.8762  -24.4080   16.1992 O.2       8 UNK        -0.5428 
     50 CA        -52.6346  -23.9782   13.9711 C.3       7 UNK         0.0264 
     51 CB        -53.4330  -22.6613   14.0231 C.3       7 UNK        -0.1988 
     52 N         -52.1523  -24.2596   12.6082 N.am      7 UNK        -0.4454 
     53 C         -51.3052  -23.5412   11.8555 C.2       7 UNK         0.5027 
     54 O         -50.7893  -22.4820   12.2174 O.2       7 UNK        -0.5083 
     55 CA        -50.9140  -24.1354   10.4898 C.3       6 UNK         0.0844 
     56 C56       -51.1490  -23.0946    9.3618 C.3       14 UNK        -0.0967 
     57 S57       -50.6395  -23.6775    7.7068 S.3       14 UNK        -0.2604 
     58 C58       -52.2213  -24.2465    7.0087 C.3       14 UNK         0.0134 
     59 N         -49.5370  -24.6335   10.4874 N.am      6 UNK        -0.4116 
     60 C         -48.9611  -25.4708   11.3615 C.2       5 UNK         0.5034 
     61 O         -49.5091  -25.9197   12.3705 O.2       5 UNK        -0.5045 
     62 CA        -47.5241  -25.9148   11.0456 C.3       5 UNK         0.0224 
     63 CB        -47.5324  -27.3409   10.4747 C.3       5 UNK        -0.1978 
     64 N         -46.8279  -25.0292   10.1067 N.am      5 UNK        -0.4737 
     65 C         -46.3288  -23.8259   10.4176 C.2       4 UNK         0.5027 
     66 O         -46.3998  -23.3411   11.5467 O.2       4 UNK        -0.5211 
     67 CA        -45.6756  -23.0070    9.2847 C.3       4 UNK         0.0297 
     68 CB        -44.3429  -22.3695    9.7309 C.3       4 UNK        -0.1993 
     69 N         -45.5189  -23.7218    8.0074 N.am      4 UNK        -0.4486 
     70 C         -44.7183  -24.7591    7.7255 C.2       3 UNK         0.4961 
     71 O         -44.0149  -25.3339    8.5565 O.2       3 UNK        -0.5105 
     72 CA        -44.7469  -25.2514    6.2654 C.3       3 UNK         0.0299 
     73 CB        -43.5515  -26.1627    5.9303 C.3       3 UNK        -0.1972 
     74 N         -45.9897  -25.9592    5.9447 N.am      3 UNK        -0.4305 
     75 C         -47.1895  -25.3819    5.7636 C.2       2 UNK         0.5006 
     76 O         -47.3816  -24.1699    5.8637 O.2       2 UNK        -0.5106 
     77 CA        -48.3701  -26.3039    5.4253 C.3       2 UNK         0.0296 
     78 CB        -48.4448  -26.4575    3.8900 C.3       2 UNK        -0.2002 
     79 N         -48.2043  -27.5767    6.1384 N.am      2 UNK        -0.4032 
     80 C         -48.7053  -28.7925    5.8803 C.2       1 UNK         0.5000 
     81 O         -49.4942  -29.0425    4.9678 O.2       1 UNK        -0.5238 
     82 H82       -43.9270  -29.6385    8.1889 H         1 UNK         0.0889 
     83 H83       -45.1975  -29.5919    9.4078 H         1 UNK         0.0889 
     84 H84       -44.6405  -28.0927    8.6526 H         1 UNK         0.0889 
     85 H85       -47.3422  -29.7789    8.6996 H         1 UNK         0.3028 
     86 H86       -47.8681  -30.7175    6.1342 H         1 UNK         0.0864 
     87 H87       -50.1503  -31.0176    6.8817 H         1 UNK         0.0720 
     88 H88       -49.0807  -31.4198    8.1811 H         1 UNK         0.0720 
     89 H89       -52.5382  -30.0353    8.0691 H         1 UNK         0.0814 
     90 H90       -51.7075  -29.2715    6.7372 H         1 UNK         0.0814 
     91 H91       -51.3289  -26.7939    6.7115 H         1 UNK         0.1469 
     92 H92       -54.1918  -24.4606    8.8847 H         1 UNK         0.1381 
     93 H93       -53.8209  -28.6739    9.6297 H         1 UNK         0.1206 
     94 H94       -55.6523  -25.4272   10.4318 H         1 UNK         0.0813 
     95 H95       -54.7504  -26.5176   11.4381 H         1 UNK         0.0813 
     96 H96       -54.9297  -28.8721   11.5553 H         1 UNK         0.0638 
     97 H97       -55.9005  -29.8943   10.5257 H         1 UNK         0.0638 
     98 H98       -57.8442  -29.5538   12.0835 H         1 UNK         0.0568 
     99 H99       -55.7564  -31.8177   14.6541 H         1 UNK         0.3450 
    100 H100      -55.9417  -30.1016   14.9187 H         1 UNK         0.3450 
    101 H101      -56.0013  -27.7833   13.5232 H         1 UNK         0.2987 
    102 H102      -57.9808  -26.1091   14.9323 H         1 UNK         0.0766 
    103 H103      -59.5475  -27.3109   16.4171 H         1 UNK         0.0798 
    104 H104      -58.3410  -26.4859   17.3869 H         1 UNK         0.0798 
    105 H105      -58.2298  -28.2272   17.1340 H         1 UNK         0.0798 
    106 H106      -55.8913  -25.8737   15.6125 H         1 UNK         0.3198 
    107 H107      -53.8886  -26.1561   16.2720 H         1 UNK         0.0843 
    108 H108      -53.5287  -28.4755   18.2416 H         1 UNK         0.0831 
    109 H109      -54.2692  -26.9270   18.6246 H         1 UNK         0.0831 
    110 H110      -52.5711  -26.9939   18.1815 H         1 UNK         0.0831 
    111 H111      -52.1848  -28.3707   16.1148 H         1 UNK         0.3133 
    112 H112      -51.7320  -29.6368   13.9705 H         1 UNK         0.0566 
    113 H113      -50.9186  -29.0577   11.6692 H         1 UNK         0.0814 
    114 H114      -51.8635  -27.5731   11.7045 H         1 UNK         0.0814 
    115 H115      -52.6650  -29.1397   11.7543 H         1 UNK         0.0814 
    116 H116      -50.1002  -27.2668   13.4144 H         1 UNK         0.3091 
    117 H117      -48.2555  -27.5543   16.4921 H         1 UNK         0.0702 
    118 H118      -47.1632  -28.9466   14.7660 H         1 UNK         0.0785 
    119 H119      -46.4698  -27.3324   14.7563 H         1 UNK         0.0785 
    120 H120      -47.6133  -27.8103   13.5044 H         1 UNK         0.0785 
    121 H121      -49.1146  -25.7470   14.2539 H         1 UNK         0.2998 
    122 H122      -49.4379  -23.0422   16.5464 H         1 UNK         0.0697 
    123 H123      -47.6956  -23.3842   14.0424 H         1 UNK         0.0825 
    124 H124      -47.1198  -22.8423   15.6131 H         1 UNK         0.0825 
    125 H125      -48.2592  -21.8547   14.7127 H         1 UNK         0.0825 
    126 H126      -50.1871  -23.2465   13.8226 H         1 UNK         0.3029 
    127 H127      -53.3324  -24.7833   14.2026 H         1 UNK         0.0897 
    128 H128      -52.8047  -21.7930   13.8230 H         1 UNK         0.0792 
    129 H129      -53.8779  -22.5163   15.0085 H         1 UNK         0.0792 
    130 H130      -54.2465  -22.6620   13.2977 H         1 UNK         0.0792 
    131 H131      -52.4622  -25.1471   12.2359 H         1 UNK         0.3086 
    132 H132      -51.5491  -25.0013   10.3007 H         1 UNK         0.0583 
    133 H133      -52.1976  -22.7932    9.3312 H         1 UNK         0.1020 
    134 H134      -50.5862  -22.1809    9.5649 H         1 UNK         0.1020 
    135 H135      -52.9601  -23.4454    7.0630 H         1 UNK         0.0694 
    136 H136      -52.0818  -24.4638    5.9487 H         1 UNK         0.0694 
    137 H137      -48.9816  -24.3336    9.7010 H         1 UNK         0.2989 
    138 H138      -46.9743  -25.9205   11.9895 H         1 UNK         0.1055 
    139 H139      -48.0104  -27.3798    9.4956 H         1 UNK         0.0806 
    140 H140      -48.0778  -28.0267   11.1249 H         1 UNK         0.0806 
    141 H141      -46.5187  -27.7267   10.3793 H         1 UNK         0.0806 
    142 H142      -46.6967  -25.3601    9.1631 H         1 UNK         0.3061 
    143 H143      -46.3710  -22.1919    9.0784 H         1 UNK         0.0734 
    144 H144      -43.6100  -23.1225   10.0222 H         1 UNK         0.0832 
    145 H145      -43.9060  -21.7639    8.9371 H         1 UNK         0.0832 
    146 H146      -44.4902  -21.7146   10.5907 H         1 UNK         0.0832 
    147 H147      -46.1280  -23.4107    7.2547 H         1 UNK         0.3156 
    148 H148      -44.6753  -24.3715    5.6223 H         1 UNK         0.0589 
    149 H149      -43.5459  -26.4382    4.8756 H         1 UNK         0.0808 
    150 H150      -42.6068  -25.6582    6.1373 H         1 UNK         0.0808 
    151 H151      -43.5632  -27.0829    6.5152 H         1 UNK         0.0808 
    152 H152      -45.9042  -26.9607    5.8086 H         1 UNK         0.3098 
    153 H153      -49.2836  -25.8281    5.7845 H         1 UNK         0.0720 
    154 H154      -47.6300  -27.0706    3.5034 H         1 UNK         0.0791 
    155 H155      -48.3873  -25.4873    3.3938 H         1 UNK         0.0791 
    156 H156      -49.3861  -26.9069    3.5756 H         1 UNK         0.0791 
    157 H157      -47.6026  -27.5250    6.9471 H         1 UNK         0.3028 
@<TRIPOS>BOND
     1    1    2 1    
     2    1   82 1    
     3    1   83 1    
     4    1   84 1    
     5    2    3 2    
     6    2    4 am   BACKBONE|DICT|INTERRES
     7    4    5 1    
     8    4   85 1    
     9    5    6 1    
    10    5   80 1    
    11    5   86 1    
    12    6    7 1    
    13    6   87 1    
    14    6   88 1    
    15    7    8 1    
    16    8    9 1    
    17    8   89 1    
    18    8   90 1    
    19    9   10 ar   
    20    9   14 ar   
    21   10   11 ar   
    22   10   91 1    
    23   11   12 ar   
    24   11   58 1    
    25   12   13 ar   
    26   12   92 1    
    27   13   14 ar   
    28   13   15 1    
    29   14   93 1    
    30   15   16 1    
    31   15   94 1    
    32   15   95 1    
    33   16   17 1    
    34   17   18 1    
    35   17   96 1    
    36   17   97 1    
    37   18   19 1    
    38   18   22 1    
    39   18   98 1    
    40   19   20 am   BACKBONE|DICT|INTERRES
    41   19   21 2    
    42   20   99 1    
    43   20  100 1    
    44   22   23 am   BACKBONE|DICT|INTERRES
    45   22  101 1    
    46   23   24 2    
    47   23   25 1    
    48   25   26 1    
    49   25   27 1    
    50   25  102 1    
    51   26  103 1    
    52   26  104 1    
    53   26  105 1    
    54   27   28 am   BACKBONE|DICT|INTERRES
    55   27  106 1    
    56   28   29 2    
    57   28   30 1    
    58   30   31 1    
    59   30   32 1    
    60   30  107 1    
    61   31  108 1    
    62   31  109 1    
    63   31  110 1    
    64   32   33 am   BACKBONE|DICT|INTERRES
    65   32  111 1    
    66   33   34 2    
    67   33   35 1    
    68   35   36 1    
    69   35   37 1    
    70   35  112 1    
    71   36  113 1    
    72   36  114 1    
    73   36  115 1    
    74   37   38 am   BACKBONE|DICT|INTERRES
    75   37  116 1    
    76   38   39 2    
    77   38   40 1    
    78   40   41 1    
    79   40   42 1    
    80   40  117 1    
    81   41  118 1    
    82   41  119 1    
    83   41  120 1    
    84   42   43 am   BACKBONE|DICT|INTERRES
    85   42  121 1    
    86   43   44 2    
    87   43   45 1    
    88   45   46 1    
    89   45   47 1    
    90   45  122 1    
    91   46  123 1    
    92   46  124 1    
    93   46  125 1    
    94   47   48 am   BACKBONE|DICT|INTERRES
    95   47  126 1    
    96   48   49 2    
    97   48   50 1    
    98   50   51 1    
    99   50   52 1    
   100   50  127 1    
   101   51  128 1    
   102   51  129 1    
   103   51  130 1    
   104   52   53 am   BACKBONE|DICT|INTERRES
   105   52  131 1    
   106   53   54 2    
   107   53   55 1    
   108   55   56 1    
   109   55   59 1    
   110   55  132 1    
   111   56   57 1    
   112   56  133 1    
   113   56  134 1    
   114   57   58 1    
   115   58  135 1    
   116   58  136 1    
   117   59   60 am   BACKBONE|DICT|INTERRES
   118   59  137 1    
   119   60   61 2    
   120   60   62 1    
   121   62   63 1    
   122   62   64 1    
   123   62  138 1    
   124   63  139 1    
   125   63  140 1    
   126   63  141 1    
   127   64   65 am   BACKBONE|DICT|INTERRES
   128   64  142 1    
   129   65   66 2    
   130   65   67 1    
   131   67   68 1    
   132   67   69 1    
   133   67  143 1    
   134   68  144 1    
   135   68  145 1    
   136   68  146 1    
   137   69   70 am   BACKBONE|DICT|INTERRES
   138   69  147 1    
   139   70   71 2    
   140   70   72 1    
   141   72   73 1    
   142   72   74 1    
   143   72  148 1    
   144   73  149 1    
   145   73  150 1    
   146   73  151 1    
   147   74   75 am   BACKBONE|DICT|INTERRES
   148   74  152 1    
   149   75   76 2    
   150   75   77 1    
   151   77   78 1    
   152   77   79 1    
   153   77  153 1    
   154   78  154 1    
   155   78  155 1    
   156   78  156 1    
   157   79   80 am   BACKBONE|DICT|INTERRES
   158   79  157 1    
   159   80   81 2    
@<TRIPOS>SUBSTRUCTURE
     1 UNK         1 GROUP             0       ****    0 ROOT    
