@<TRIPOS>MOLECULE
3R207
157   159    1
SMALL
USER_CHARGES


@<TRIPOS>ATOM
      1 CA        -51.7675  -26.8732    1.9468 C.3       0 UNK        -0.1975 
      2 C         -52.1486  -26.3622    3.3287 C.2       0 UNK         0.4852 
      3 O         -53.0001  -25.4785    3.4401 O.2       0 UNK        -0.5216 
      4 N         -51.5316  -26.9184    4.3787 N.am      1 UNK        -0.4461 
      5 CA        -51.7064  -26.5057    5.7747 C.3       1 UNK         0.0864 
      6 C6        -51.4728  -27.6956    6.7446 C.3       14 UNK        -0.0898 
      7 S7        -49.7885  -28.4021    6.6966 S.3       14 UNK        -0.2598 
      8 C8        -50.0889  -30.1058    7.2747 C.3       14 UNK         0.0286 
      9 C9        -50.0992  -30.2072    8.7951 C.ar      14 UNK        -0.0844 
     10 C10       -48.9255  -30.5364    9.4814 C.ar      14 UNK        -0.0881 
     11 C11       -48.9210  -30.6509   10.8753 C.ar      14 UNK        -0.0643 
     12 C12       -50.1016  -30.4257   11.5860 C.ar      14 UNK        -0.0930 
     13 C13       -51.2806  -30.0902   10.9136 C.ar      14 UNK        -0.0827 
     14 C14       -51.2777  -29.9915    9.5178 C.ar      14 UNK        -0.1249 
     15 C15       -52.5406  -29.7877   11.7070 C.3       14 UNK         0.0141 
     16 S16       -53.6986  -31.1865   11.7185 S.3       14 UNK        -0.2313 
     17 C17       -54.7693  -30.7290   13.1236 C.3       14 UNK        -0.0915 
     18 CA        -55.9777  -29.8486   12.7140 C.3       13 UNK         0.0968 
     19 C         -56.9894  -29.7164   13.8802 C.2       13 UNK         0.5732 
     20 N         -58.1895  -30.2610   13.7328 N.am      13 UNK        -0.7310 
     21 O         -56.6793  -29.1622   14.9329 O.2       13 UNK        -0.5035 
     22 N         -55.5518  -28.5158   12.2738 N.am      13 UNK        -0.4233 
     23 C         -56.2247  -27.7550   11.4023 C.2       13 UNK         0.4989 
     24 O         -57.2432  -28.1309   10.8181 O.2       13 UNK        -0.4996 
     25 CA        -55.6556  -26.3481   11.1169 C.3       12 UNK         0.0216 
     26 CB        -56.6890  -25.4012   10.4703 C.3       12 UNK        -0.1964 
     27 N         -55.0356  -25.7126   12.2850 N.am      12 UNK        -0.4276 
     28 C         -55.6051  -25.4374   13.4669 C.2       12 UNK         0.5020 
     29 O         -56.7862  -25.6570   13.7442 O.2       12 UNK        -0.5489 
     30 CA        -54.6742  -24.8132   14.5225 C.3       11 UNK         0.0294 
     31 CB        -55.4095  -23.7570   15.3667 C.3       11 UNK        -0.2019 
     32 N         -54.0350  -25.7752   15.4283 N.am      11 UNK        -0.4493 
     33 C         -53.4697  -26.9575   15.1392 C.2       11 UNK         0.4932 
     34 O         -53.4879  -27.5072   14.0370 O.2       11 UNK        -0.5029 
     35 CA        -52.6542  -27.5753   16.2828 C.3       10 UNK         0.0280 
     36 CB        -52.3227  -29.0609   16.0516 C.3       10 UNK        -0.1976 
     37 N         -51.4114  -26.8142   16.3726 N.am      10 UNK        -0.4242 
     38 C         -51.1905  -25.7965   17.2141 C.2       10 UNK         0.5072 
     39 O         -51.9552  -25.4822   18.1273 O.2       10 UNK        -0.5224 
     40 CA        -49.9332  -24.9494   16.9514 C.3       9 UNK         0.0343 
     41 CB        -48.6519  -25.7352   17.2756 C.3       9 UNK        -0.2003 
     42 N         -49.8790  -24.4569   15.5716 N.am      9 UNK        -0.4272 
     43 C         -50.7553  -23.5949   15.0290 C.2       9 UNK         0.4988 
     44 O         -51.6701  -23.0588   15.6539 O.2       9 UNK        -0.5108 
     45 CA        -50.6000  -23.2906   13.5315 C.3       8 UNK         0.0248 
     46 CB        -49.5724  -22.1710   13.2972 C.3       8 UNK        -0.2001 
     47 N         -50.2024  -24.4936   12.8008 N.am      8 UNK        -0.4140 
     48 C         -51.0676  -25.3569   12.2524 C.2       8 UNK         0.5028 
     49 O         -52.2794  -25.1538   12.1724 O.2       8 UNK        -0.5428 
     50 CA        -50.5066  -26.6600   11.6623 C.3       7 UNK         0.0264 
     51 CB        -50.4513  -26.5534   10.1373 C.3       7 UNK        -0.1988 
     52 N         -49.1799  -27.0348   12.1419 N.am      7 UNK        -0.4454 
     53 C         -48.8810  -27.4425   13.3818 C.2       7 UNK         0.5027 
     54 O         -49.7141  -27.5986   14.2727 O.2       7 UNK        -0.5083 
     55 CA        -47.3809  -27.6117   13.7053 C.3       6 UNK         0.0844 
     56 C56       -46.9190  -29.0859   13.5729 C.3       14 UNK        -0.0967 
     57 S57       -46.5423  -29.6216   11.8649 S.3       14 UNK        -0.2604 
     58 C58       -47.6455  -31.0451   11.6043 C.3       14 UNK         0.0134 
     59 N         -46.5418  -26.6711   12.9480 N.am      6 UNK        -0.4116 
     60 C         -46.6642  -25.3371   12.9800 C.2       5 UNK         0.5034 
     61 O         -47.4050  -24.7503   13.7702 O.2       5 UNK        -0.5045 
     62 CA        -45.9495  -24.5251   11.8869 C.3       5 UNK         0.0224 
     63 CB        -44.4972  -24.1966   12.2831 C.3       5 UNK        -0.1978 
     64 N         -46.0457  -25.1202   10.5414 N.am      5 UNK        -0.4737 
     65 C         -45.4412  -26.2220   10.0656 C.2       4 UNK         0.5027 
     66 O         -44.6915  -26.9251   10.7417 O.2       4 UNK        -0.5211 
     67 CA        -45.7392  -26.6441    8.6120 C.3       4 UNK         0.0297 
     68 CB        -46.5852  -27.9267    8.5815 C.3       4 UNK        -0.1993 
     69 N         -46.4171  -25.6168    7.8198 N.am      4 UNK        -0.4486 
     70 C         -45.8502  -24.4841    7.3855 C.2       3 UNK         0.4961 
     71 O         -44.6639  -24.2039    7.5602 O.2       3 UNK        -0.5105 
     72 CA        -46.7522  -23.4849    6.6399 C.3       3 UNK         0.0299 
     73 CB        -46.4738  -23.5385    5.1290 C.3       3 UNK        -0.1972 
     74 N         -48.1930  -23.6542    6.8597 N.am      3 UNK        -0.4305 
     75 C         -48.8504  -23.5419    8.0200 C.2       2 UNK         0.5006 
     76 O         -48.2929  -23.4226    9.1124 O.2       2 UNK        -0.5106 
     77 CA        -50.3915  -23.5556    7.9516 C.3       2 UNK         0.0296 
     78 CB        -50.9210  -22.2712    7.2842 C.3       2 UNK        -0.2002 
     79 N         -51.0018  -24.7524    7.3458 N.am      2 UNK        -0.4032 
     80 C         -50.8600  -25.2510    6.1068 C.2       1 UNK         0.5000 
     81 O         -50.1156  -24.7592    5.2523 O.2       1 UNK        -0.5238 
     82 H82       -51.0192  -27.6641    1.9967 H         1 UNK         0.0889 
     83 H83       -51.3615  -26.0600    1.3458 H         1 UNK         0.0889 
     84 H84       -52.6456  -27.2691    1.4373 H         1 UNK         0.0889 
     85 H85       -50.8146  -27.6135    4.2267 H         1 UNK         0.3028 
     86 H86       -52.7480  -26.2008    5.9001 H         1 UNK         0.0864 
     87 H87       -52.1830  -28.4855    6.4954 H         1 UNK         0.0720 
     88 H88       -51.7126  -27.4215    7.7696 H         1 UNK         0.0720 
     89 H89       -49.3046  -30.7477    6.8706 H         1 UNK         0.0814 
     90 H90       -51.0239  -30.4878    6.8627 H         1 UNK         0.0814 
     91 H91       -48.0111  -30.7075    8.9299 H         1 UNK         0.1469 
     92 H92       -50.1006  -30.5020   12.6647 H         1 UNK         0.1381 
     93 H93       -52.1892  -29.7326    8.9970 H         1 UNK         0.1206 
     94 H94       -53.0342  -28.9129   11.2831 H         1 UNK         0.0813 
     95 H95       -52.2756  -29.5249   12.7317 H         1 UNK         0.0813 
     96 H96       -54.1755  -30.2404   13.8965 H         1 UNK         0.0638 
     97 H97       -55.1203  -31.6639   13.5645 H         1 UNK         0.0638 
     98 H98       -56.4762  -30.3495   11.8814 H         1 UNK         0.0568 
     99 H99       -58.8524  -30.1962   14.4893 H         1 UNK         0.3450 
    100 H100      -58.4517  -30.7193   12.8739 H         1 UNK         0.3450 
    101 H101      -54.7760  -28.1078   12.7907 H         1 UNK         0.2987 
    102 H102      -54.8495  -26.4954   10.3967 H         1 UNK         0.0766 
    103 H103      -56.2525  -24.4260   10.2542 H         1 UNK         0.0798 
    104 H104      -57.5535  -25.2462   11.1167 H         1 UNK         0.0798 
    105 H105      -57.0564  -25.8056    9.5264 H         1 UNK         0.0798 
    106 H106      -54.0317  -25.5325   12.2064 H         1 UNK         0.3198 
    107 H107      -53.8720  -24.2933   13.9974 H         1 UNK         0.0843 
    108 H108      -56.1744  -24.2076   16.0005 H         1 UNK         0.0831 
    109 H109      -55.9049  -23.0234   14.7292 H         1 UNK         0.0831 
    110 H110      -54.7179  -23.2103   16.0085 H         1 UNK         0.0831 
    111 H111      -53.9088  -25.4440   16.3748 H         1 UNK         0.3133 
    112 H112      -53.2300  -27.4966   17.2073 H         1 UNK         0.0566 
    113 H113      -51.7256  -29.4629   16.8699 H         1 UNK         0.0814 
    114 H114      -53.2348  -29.6550   15.9937 H         1 UNK         0.0814 
    115 H115      -51.7658  -29.2176   15.1271 H         1 UNK         0.0814 
    116 H116      -50.7412  -26.9921   15.6246 H         1 UNK         0.3091 
    117 H117      -49.9720  -24.0801   17.6113 H         1 UNK         0.0702 
    118 H118      -47.7618  -25.1252   17.1195 H         1 UNK         0.0785 
    119 H119      -48.5560  -26.6306   16.6618 H         1 UNK         0.0785 
    120 H120      -48.6472  -26.0551   18.3185 H         1 UNK         0.0785 
    121 H121      -49.1178  -24.7961   14.9960 H         1 UNK         0.2998 
    122 H122      -51.5641  -22.9371   13.1592 H         1 UNK         0.0697 
    123 H123      -48.5922  -22.4187   13.7046 H         1 UNK         0.0825 
    124 H124      -49.8953  -21.2451   13.7748 H         1 UNK         0.0825 
    125 H125      -49.4502  -21.9621   12.2341 H         1 UNK         0.0825 
    126 H126      -49.2192  -24.7323   12.8319 H         1 UNK         0.3029 
    127 H127      -51.2007  -27.4501   11.9431 H         1 UNK         0.0897 
    128 H128      -51.4389  -26.3199    9.7414 H         1 UNK         0.0792 
    129 H129      -50.1216  -27.4866    9.6846 H         1 UNK         0.0792 
    130 H130      -49.7636  -25.7716    9.8178 H         1 UNK         0.0792 
    131 H131      -48.4234  -26.9651   11.4784 H         1 UNK         0.3086 
    132 H132      -47.2693  -27.3389   14.7562 H         1 UNK         0.0583 
    133 H133      -46.0029  -29.2169   14.1509 H         1 UNK         0.1020 
    134 H134      -47.6420  -29.7608   14.0353 H         1 UNK         0.1020 
    135 H135      -47.1110  -31.7876   11.0099 H         1 UNK         0.0694 
    136 H136      -47.8727  -31.5337   12.5527 H         1 UNK         0.0694 
    137 H137      -45.9059  -27.0728   12.2636 H         1 UNK         0.2989 
    138 H138      -46.4839  -23.5757   11.8162 H         1 UNK         0.1055 
    139 H139      -44.4697  -23.6350   13.2179 H         1 UNK         0.0806 
    140 H140      -44.0086  -23.5860   11.5238 H         1 UNK         0.0806 
    141 H141      -43.8956  -25.0938   12.4307 H         1 UNK         0.0806 
    142 H142      -46.6673  -24.6264    9.9083 H         1 UNK         0.3061 
    143 H143      -44.7799  -26.8591    8.1366 H         1 UNK         0.0734 
    144 H144      -46.7787  -28.2530    7.5596 H         1 UNK         0.0832 
    145 H145      -46.0665  -28.7449    9.0814 H         1 UNK         0.0832 
    146 H146      -47.5462  -27.7950    9.0802 H         1 UNK         0.0832 
    147 H147      -47.3944  -25.7652    7.6149 H         1 UNK         0.3156 
    148 H148      -46.4871  -22.4888    7.0000 H         1 UNK         0.0589 
    149 H149      -46.7578  -24.5015    4.7022 H         1 UNK         0.0808 
    150 H150      -47.0218  -22.7611    4.5962 H         1 UNK         0.0808 
    151 H151      -45.4140  -23.3871    4.9184 H         1 UNK         0.0808 
    152 H152      -48.7630  -23.8555    6.0388 H         1 UNK         0.3098 
    153 H153      -50.7402  -23.5423    8.9858 H         1 UNK         0.0720 
    154 H154      -52.0066  -22.2070    7.3584 H         1 UNK         0.0791 
    155 H155      -50.6562  -22.2181    6.2277 H         1 UNK         0.0791 
    156 H156      -50.5116  -21.3825    7.7667 H         1 UNK         0.0791 
    157 H157      -51.6395  -25.2399    7.9575 H         1 UNK         0.3028 
@<TRIPOS>BOND
     1    1    2 1    
     2    1   82 1    
     3    1   83 1    
     4    1   84 1    
     5    2    3 2    
     6    2    4 am   BACKBONE|DICT|INTERRES
     7    4    5 1    
     8    4   85 1    
     9    5    6 1    
    10    5   80 1    
    11    5   86 1    
    12    6    7 1    
    13    6   87 1    
    14    6   88 1    
    15    7    8 1    
    16    8    9 1    
    17    8   89 1    
    18    8   90 1    
    19    9   10 ar   
    20    9   14 ar   
    21   10   11 ar   
    22   10   91 1    
    23   11   12 ar   
    24   11   58 1    
    25   12   13 ar   
    26   12   92 1    
    27   13   14 ar   
    28   13   15 1    
    29   14   93 1    
    30   15   16 1    
    31   15   94 1    
    32   15   95 1    
    33   16   17 1    
    34   17   18 1    
    35   17   96 1    
    36   17   97 1    
    37   18   19 1    
    38   18   22 1    
    39   18   98 1    
    40   19   20 am   BACKBONE|DICT|INTERRES
    41   19   21 2    
    42   20   99 1    
    43   20  100 1    
    44   22   23 am   BACKBONE|DICT|INTERRES
    45   22  101 1    
    46   23   24 2    
    47   23   25 1    
    48   25   26 1    
    49   25   27 1    
    50   25  102 1    
    51   26  103 1    
    52   26  104 1    
    53   26  105 1    
    54   27   28 am   BACKBONE|DICT|INTERRES
    55   27  106 1    
    56   28   29 2    
    57   28   30 1    
    58   30   31 1    
    59   30   32 1    
    60   30  107 1    
    61   31  108 1    
    62   31  109 1    
    63   31  110 1    
    64   32   33 am   BACKBONE|DICT|INTERRES
    65   32  111 1    
    66   33   34 2    
    67   33   35 1    
    68   35   36 1    
    69   35   37 1    
    70   35  112 1    
    71   36  113 1    
    72   36  114 1    
    73   36  115 1    
    74   37   38 am   BACKBONE|DICT|INTERRES
    75   37  116 1    
    76   38   39 2    
    77   38   40 1    
    78   40   41 1    
    79   40   42 1    
    80   40  117 1    
    81   41  118 1    
    82   41  119 1    
    83   41  120 1    
    84   42   43 am   BACKBONE|DICT|INTERRES
    85   42  121 1    
    86   43   44 2    
    87   43   45 1    
    88   45   46 1    
    89   45   47 1    
    90   45  122 1    
    91   46  123 1    
    92   46  124 1    
    93   46  125 1    
    94   47   48 am   BACKBONE|DICT|INTERRES
    95   47  126 1    
    96   48   49 2    
    97   48   50 1    
    98   50   51 1    
    99   50   52 1    
   100   50  127 1    
   101   51  128 1    
   102   51  129 1    
   103   51  130 1    
   104   52   53 am   BACKBONE|DICT|INTERRES
   105   52  131 1    
   106   53   54 2    
   107   53   55 1    
   108   55   56 1    
   109   55   59 1    
   110   55  132 1    
   111   56   57 1    
   112   56  133 1    
   113   56  134 1    
   114   57   58 1    
   115   58  135 1    
   116   58  136 1    
   117   59   60 am   BACKBONE|DICT|INTERRES
   118   59  137 1    
   119   60   61 2    
   120   60   62 1    
   121   62   63 1    
   122   62   64 1    
   123   62  138 1    
   124   63  139 1    
   125   63  140 1    
   126   63  141 1    
   127   64   65 am   BACKBONE|DICT|INTERRES
   128   64  142 1    
   129   65   66 2    
   130   65   67 1    
   131   67   68 1    
   132   67   69 1    
   133   67  143 1    
   134   68  144 1    
   135   68  145 1    
   136   68  146 1    
   137   69   70 am   BACKBONE|DICT|INTERRES
   138   69  147 1    
   139   70   71 2    
   140   70   72 1    
   141   72   73 1    
   142   72   74 1    
   143   72  148 1    
   144   73  149 1    
   145   73  150 1    
   146   73  151 1    
   147   74   75 am   BACKBONE|DICT|INTERRES
   148   74  152 1    
   149   75   76 2    
   150   75   77 1    
   151   77   78 1    
   152   77   79 1    
   153   77  153 1    
   154   78  154 1    
   155   78  155 1    
   156   78  156 1    
   157   79   80 am   BACKBONE|DICT|INTERRES
   158   79  157 1    
   159   80   81 2    
@<TRIPOS>SUBSTRUCTURE
     1 UNK         1 GROUP             0       ****    0 ROOT    
