@<TRIPOS>MOLECULE
3R207
157   159    1
SMALL
USER_CHARGES


@<TRIPOS>ATOM
      1 CA        -51.2377  -31.5571    3.9470 C.3       0 UNK        -0.1975 
      2 C         -50.7594  -30.3733    4.7753 C.2       0 UNK         0.4852 
      3 O         -51.0519  -29.2279    4.4286 O.2       0 UNK        -0.5216 
      4 N         -50.0348  -30.6442    5.8681 N.am      1 UNK        -0.4461 
      5 CA        -49.4696  -29.6365    6.7716 C.3       1 UNK         0.0864 
      6 C6        -49.0275  -30.2517    8.1252 C.3       14 UNK        -0.0898 
      7 S7        -50.3370  -31.1870    8.9865 S.3       14 UNK        -0.2598 
      8 C8        -51.0401  -29.9440   10.1189 C.3       14 UNK         0.0286 
      9 C9        -52.1503  -29.1463    9.4528 C.ar      14 UNK        -0.0844 
     10 C10       -51.9253  -27.8433    8.9973 C.ar      14 UNK        -0.0881 
     11 C11       -52.9506  -27.1200    8.3689 C.ar      14 UNK        -0.0643 
     12 C12       -54.2127  -27.7085    8.2394 C.ar      14 UNK        -0.0930 
     13 C13       -54.4557  -29.0010    8.7116 C.ar      14 UNK        -0.0827 
     14 C14       -53.4165  -29.7184    9.3067 C.ar      14 UNK        -0.1249 
     15 C15       -55.8423  -29.6192    8.5858 C.3       14 UNK         0.0141 
     16 S16       -56.6762  -29.7892   10.1995 S.3       14 UNK        -0.2313 
     17 C17       -56.6744  -28.0689   10.8069 C.3       14 UNK        -0.0915 
     18 CA        -55.5488  -27.8136   11.8460 C.3       13 UNK         0.0968 
     19 C         -55.3643  -26.2966   12.0907 C.2       13 UNK         0.5732 
     20 N         -54.4832  -25.6524   11.3369 N.am      13 UNK        -0.7310 
     21 O         -56.0424  -25.6935   12.9213 O.2       13 UNK        -0.5035 
     22 N         -55.8142  -28.4991   13.1173 N.am      13 UNK        -0.4233 
     23 C         -55.1474  -29.5650   13.5695 C.2       13 UNK         0.4989 
     24 O         -54.2577  -30.1467   12.9454 O.2       13 UNK        -0.4996 
     25 CA        -55.5035  -30.0440   14.9820 C.3       12 UNK         0.0216 
     26 CB        -55.5796  -31.5877   15.0254 C.3       12 UNK        -0.1964 
     27 N         -54.4733  -29.5166   15.8766 N.am      12 UNK        -0.4276 
     28 C         -54.3242  -29.7392   17.1900 C.2       12 UNK         0.5020 
     29 O         -55.1213  -30.3941   17.8642 O.2       12 UNK        -0.5489 
     30 CA        -53.0964  -29.1087   17.8913 C.3       11 UNK         0.0294 
     31 CB        -52.4628  -30.0599   18.9290 C.3       11 UNK        -0.2019 
     32 N         -52.0807  -28.5783   16.9699 N.am      11 UNK        -0.4493 
     33 C         -51.3502  -29.2514   16.0665 C.2       11 UNK         0.4932 
     34 O         -51.3022  -30.4804   16.0078 O.2       11 UNK        -0.5029 
     35 CA        -50.5697  -28.4140   15.0265 C.3       10 UNK         0.0280 
     36 CB        -50.5996  -29.0717   13.6317 C.3       10 UNK        -0.1976 
     37 N         -50.9779  -27.0042   14.9075 N.am      10 UNK        -0.4242 
     38 C         -52.1994  -26.5061   14.6568 C.2       10 UNK         0.5072 
     39 O         -53.2077  -27.2066   14.5784 O.2       10 UNK        -0.5224 
     40 CA        -52.3438  -24.9821   14.4737 C.3       9 UNK         0.0343 
     41 CB        -53.3987  -24.3885   15.4290 C.3       9 UNK        -0.2003 
     42 N         -51.0840  -24.2284   14.5268 N.am      9 UNK        -0.4272 
     43 C         -50.2690  -24.0039   15.5678 C.2       9 UNK         0.4988 
     44 O         -50.5005  -24.3893   16.7136 O.2       9 UNK        -0.5108 
     45 CA        -48.9368  -23.2811   15.2793 C.3       8 UNK         0.0248 
     46 CB        -47.7610  -24.2627   15.4190 C.3       8 UNK        -0.2001 
     47 N         -48.8749  -22.6599   13.9516 N.am      8 UNK        -0.4140 
     48 C         -49.5141  -21.5333   13.6062 C.2       8 UNK         0.5028 
     49 O         -50.1645  -20.8458   14.3942 O.2       8 UNK        -0.5428 
     50 CA        -49.4498  -21.1243   12.1239 C.3       7 UNK         0.0264 
     51 CB        -48.1521  -20.3565   11.8261 C.3       7 UNK        -0.1988 
     52 N         -49.5780  -22.2613   11.2047 N.am      7 UNK        -0.4454 
     53 C         -50.6698  -23.0366   11.1011 C.2       7 UNK         0.5027 
     54 O         -51.7001  -22.8529   11.7489 O.2       7 UNK        -0.5083 
     55 CA        -50.5951  -24.2453   10.1478 C.3       6 UNK         0.0844 
     56 C56       -50.8612  -23.8036    8.6884 C.3       14 UNK        -0.0967 
     57 S57       -51.0285  -25.2066    7.5358 S.3       14 UNK        -0.2604 
     58 C58       -52.7611  -25.7031    7.8242 C.3       14 UNK         0.0134 
     59 N         -49.3361  -24.9766   10.3024 N.am      6 UNK        -0.4116 
     60 C         -48.9368  -25.6009   11.4188 C.2       5 UNK         0.5034 
     61 O         -49.6223  -25.7019   12.4326 O.2       5 UNK        -0.5045 
     62 CA        -47.5076  -26.1609   11.4300 C.3       5 UNK         0.0224 
     63 CB        -47.4484  -27.5492   10.7748 C.3       5 UNK        -0.1978 
     64 N         -46.5614  -25.2567   10.7737 N.am      5 UNK        -0.4737 
     65 C         -46.1866  -24.0694   11.2689 C.2       4 UNK         0.5027 
     66 O         -46.5748  -23.6277   12.3502 O.2       4 UNK        -0.5211 
     67 CA        -45.2486  -23.2202   10.3945 C.3       4 UNK         0.0297 
     68 CB        -43.7869  -23.6492   10.5970 C.3       4 UNK        -0.1993 
     69 N         -45.5875  -23.2802    8.9694 N.am      4 UNK        -0.4486 
     70 C         -46.7092  -22.7708    8.4417 C.2       3 UNK         0.4961 
     71 O         -47.5699  -22.1833    9.0973 O.2       3 UNK        -0.5105 
     72 CA        -46.9350  -22.9991    6.9353 C.3       3 UNK         0.0299 
     73 CB        -46.1259  -21.9867    6.1088 C.3       3 UNK        -0.1972 
     74 N         -46.6539  -24.3634    6.4623 N.am      3 UNK        -0.4305 
     75 C         -47.1654  -25.4804    6.9965 C.2       2 UNK         0.5006 
     76 O         -47.8197  -25.5033    8.0398 O.2       2 UNK        -0.5106 
     77 CA        -46.8952  -26.8046    6.2781 C.3       2 UNK         0.0296 
     78 CB        -45.5353  -27.3845    6.7130 C.3       2 UNK        -0.2002 
     79 N         -47.9844  -27.7023    6.6536 N.am      2 UNK        -0.4032 
     80 C         -48.2834  -28.8897    6.1201 C.2       1 UNK         0.5000 
     81 O         -47.6461  -29.4082    5.1979 O.2       1 UNK        -0.5238 
     82 H82       -50.9193  -32.5083    4.3732 H         1 UNK         0.0889 
     83 H83       -50.8421  -31.4900    2.9339 H         1 UNK         0.0889 
     84 H84       -52.3259  -31.5591    3.8894 H         1 UNK         0.0889 
     85 H85       -49.8195  -31.6028    6.1003 H         1 UNK         0.3028 
     86 H86       -50.2528  -28.9015    6.9679 H         1 UNK         0.0864 
     87 H87       -48.6528  -29.4800    8.7973 H         1 UNK         0.0720 
     88 H88       -48.1919  -30.9373    7.9698 H         1 UNK         0.0720 
     89 H89       -51.4492  -30.4595   10.9894 H         1 UNK         0.0814 
     90 H90       -50.2578  -29.2870   10.4995 H         1 UNK         0.0814 
     91 H91       -50.9470  -27.4042    9.1288 H         1 UNK         0.1469 
     92 H92       -55.0138  -27.1532    7.7704 H         1 UNK         0.1381 
     93 H93       -53.5988  -30.7196    9.6732 H         1 UNK         0.1206 
     94 H94       -56.4729  -29.0283    7.9197 H         1 UNK         0.0813 
     95 H95       -55.7555  -30.6054    8.1278 H         1 UNK         0.0813 
     96 H96       -57.6519  -27.8564   11.2431 H         1 UNK         0.0638 
     97 H97       -56.5789  -27.3987    9.9508 H         1 UNK         0.0638 
     98 H98       -54.6051  -28.1748   11.4338 H         1 UNK         0.0568 
     99 H99       -54.3637  -24.6603   11.4645 H         1 UNK         0.3450 
    100 H100      -53.9419  -26.1465   10.6456 H         1 UNK         0.3450 
    101 H101      -56.4692  -28.0258   13.7234 H         1 UNK         0.2987 
    102 H102      -56.4702  -29.6305   15.2752 H         1 UNK         0.0766 
    103 H103      -56.2311  -31.9678   14.2373 H         1 UNK         0.0798 
    104 H104      -55.9850  -31.9486   15.9700 H         1 UNK         0.0798 
    105 H105      -54.5984  -32.0433   14.8857 H         1 UNK         0.0798 
    106 H106      -53.8091  -28.8925   15.4211 H         1 UNK         0.3198 
    107 H107      -53.4820  -28.2445   18.4344 H         1 UNK         0.0843 
    108 H108      -52.1298  -30.9932   18.4744 H         1 UNK         0.0831 
    109 H109      -53.1789  -30.3200   19.7094 H         1 UNK         0.0831 
    110 H110      -51.6054  -29.5995   19.4195 H         1 UNK         0.0831 
    111 H111      -52.0361  -27.5697   16.9177 H         1 UNK         0.3133 
    112 H112      -49.5334  -28.4003   15.3664 H         1 UNK         0.0566 
    113 H113      -51.6189  -29.1596   13.2530 H         1 UNK         0.0814 
    114 H114      -50.1714  -30.0744   13.6539 H         1 UNK         0.0814 
    115 H115      -50.0253  -28.4910   12.9107 H         1 UNK         0.0814 
    116 H116      -50.2237  -26.3331   14.9357 H         1 UNK         0.3091 
    117 H117      -52.7130  -24.8466   13.4569 H         1 UNK         0.0702 
    118 H118      -53.5207  -23.3177   15.2668 H         1 UNK         0.0785 
    119 H119      -53.1369  -24.5444   16.4756 H         1 UNK         0.0785 
    120 H120      -54.3729  -24.8519   15.2668 H         1 UNK         0.0785 
    121 H121      -50.7634  -23.9061   13.6224 H         1 UNK         0.2998 
    122 H122      -48.8210  -22.4989   16.0323 H         1 UNK         0.0697 
    123 H123      -46.8049  -23.7573   15.2810 H         1 UNK         0.0825 
    124 H124      -47.8200  -25.0681   14.6860 H         1 UNK         0.0825 
    125 H125      -47.7445  -24.7203   16.4091 H         1 UNK         0.0825 
    126 H126      -48.2912  -23.1212   13.2589 H         1 UNK         0.3029 
    127 H127      -50.2904  -20.4533   11.9342 H         1 UNK         0.0897 
    128 H128      -48.0488  -19.4932   12.4849 H         1 UNK         0.0792 
    129 H129      -48.1379  -19.9853   10.8012 H         1 UNK         0.0792 
    130 H130      -47.2704  -20.9821   11.9665 H         1 UNK         0.0792 
    131 H131      -48.7890  -22.4367   10.5868 H         1 UNK         0.3086 
    132 H132      -51.3950  -24.9282   10.4425 H         1 UNK         0.0583 
    133 H133      -51.7619  -23.1897    8.6217 H         1 UNK         0.1020 
    134 H134      -50.0464  -23.1722    8.3297 H         1 UNK         0.1020 
    135 H135      -53.2479  -25.0039    8.5046 H         1 UNK         0.0694 
    136 H136      -53.2857  -25.6140    6.8717 H         1 UNK         0.0694 
    137 H137      -48.7238  -25.0022    9.4882 H         1 UNK         0.2989 
    138 H138      -47.2055  -26.2664   12.4744 H         1 UNK         0.1055 
    139 H139      -48.1196  -28.2461   11.2773 H         1 UNK         0.0806 
    140 H140      -46.4451  -27.9713   10.8317 H         1 UNK         0.0806 
    141 H141      -47.7366  -27.5140    9.7254 H         1 UNK         0.0806 
    142 H142      -46.2650  -25.5052    9.8406 H         1 UNK         0.3061 
    143 H143      -45.3456  -22.1820   10.7196 H         1 UNK         0.0734 
    144 H144      -43.6148  -24.6750   10.2686 H         1 UNK         0.0832 
    145 H145      -43.1031  -23.0007   10.0491 H         1 UNK         0.0832 
    146 H146      -43.5084  -23.5939   11.6504 H         1 UNK         0.0832 
    147 H147      -44.9412  -23.7569    8.3575 H         1 UNK         0.3156 
    148 H148      -47.9940  -22.8149    6.7428 H         1 UNK         0.0589 
    149 H149      -46.3822  -22.0420    5.0507 H         1 UNK         0.0808 
    150 H150      -45.0519  -22.1513    6.2038 H         1 UNK         0.0808 
    151 H151      -46.3291  -20.9654    6.4347 H         1 UNK         0.0808 
    152 H152      -46.1068  -24.4415    5.6168 H         1 UNK         0.3098 
    153 H153      -46.9158  -26.6442    5.1985 H         1 UNK         0.0720 
    154 H154      -44.7213  -26.6983    6.4762 H         1 UNK         0.0791 
    155 H155      -45.3190  -28.3237    6.2040 H         1 UNK         0.0791 
    156 H156      -45.5036  -27.5729    7.7870 H         1 UNK         0.0791 
    157 H157      -48.5645  -27.3136    7.3883 H         1 UNK         0.3028 
@<TRIPOS>BOND
     1    1    2 1    
     2    1   82 1    
     3    1   83 1    
     4    1   84 1    
     5    2    3 2    
     6    2    4 am   BACKBONE|DICT|INTERRES
     7    4    5 1    
     8    4   85 1    
     9    5    6 1    
    10    5   80 1    
    11    5   86 1    
    12    6    7 1    
    13    6   87 1    
    14    6   88 1    
    15    7    8 1    
    16    8    9 1    
    17    8   89 1    
    18    8   90 1    
    19    9   10 ar   
    20    9   14 ar   
    21   10   11 ar   
    22   10   91 1    
    23   11   12 ar   
    24   11   58 1    
    25   12   13 ar   
    26   12   92 1    
    27   13   14 ar   
    28   13   15 1    
    29   14   93 1    
    30   15   16 1    
    31   15   94 1    
    32   15   95 1    
    33   16   17 1    
    34   17   18 1    
    35   17   96 1    
    36   17   97 1    
    37   18   19 1    
    38   18   22 1    
    39   18   98 1    
    40   19   20 am   BACKBONE|DICT|INTERRES
    41   19   21 2    
    42   20   99 1    
    43   20  100 1    
    44   22   23 am   BACKBONE|DICT|INTERRES
    45   22  101 1    
    46   23   24 2    
    47   23   25 1    
    48   25   26 1    
    49   25   27 1    
    50   25  102 1    
    51   26  103 1    
    52   26  104 1    
    53   26  105 1    
    54   27   28 am   BACKBONE|DICT|INTERRES
    55   27  106 1    
    56   28   29 2    
    57   28   30 1    
    58   30   31 1    
    59   30   32 1    
    60   30  107 1    
    61   31  108 1    
    62   31  109 1    
    63   31  110 1    
    64   32   33 am   BACKBONE|DICT|INTERRES
    65   32  111 1    
    66   33   34 2    
    67   33   35 1    
    68   35   36 1    
    69   35   37 1    
    70   35  112 1    
    71   36  113 1    
    72   36  114 1    
    73   36  115 1    
    74   37   38 am   BACKBONE|DICT|INTERRES
    75   37  116 1    
    76   38   39 2    
    77   38   40 1    
    78   40   41 1    
    79   40   42 1    
    80   40  117 1    
    81   41  118 1    
    82   41  119 1    
    83   41  120 1    
    84   42   43 am   BACKBONE|DICT|INTERRES
    85   42  121 1    
    86   43   44 2    
    87   43   45 1    
    88   45   46 1    
    89   45   47 1    
    90   45  122 1    
    91   46  123 1    
    92   46  124 1    
    93   46  125 1    
    94   47   48 am   BACKBONE|DICT|INTERRES
    95   47  126 1    
    96   48   49 2    
    97   48   50 1    
    98   50   51 1    
    99   50   52 1    
   100   50  127 1    
   101   51  128 1    
   102   51  129 1    
   103   51  130 1    
   104   52   53 am   BACKBONE|DICT|INTERRES
   105   52  131 1    
   106   53   54 2    
   107   53   55 1    
   108   55   56 1    
   109   55   59 1    
   110   55  132 1    
   111   56   57 1    
   112   56  133 1    
   113   56  134 1    
   114   57   58 1    
   115   58  135 1    
   116   58  136 1    
   117   59   60 am   BACKBONE|DICT|INTERRES
   118   59  137 1    
   119   60   61 2    
   120   60   62 1    
   121   62   63 1    
   122   62   64 1    
   123   62  138 1    
   124   63  139 1    
   125   63  140 1    
   126   63  141 1    
   127   64   65 am   BACKBONE|DICT|INTERRES
   128   64  142 1    
   129   65   66 2    
   130   65   67 1    
   131   67   68 1    
   132   67   69 1    
   133   67  143 1    
   134   68  144 1    
   135   68  145 1    
   136   68  146 1    
   137   69   70 am   BACKBONE|DICT|INTERRES
   138   69  147 1    
   139   70   71 2    
   140   70   72 1    
   141   72   73 1    
   142   72   74 1    
   143   72  148 1    
   144   73  149 1    
   145   73  150 1    
   146   73  151 1    
   147   74   75 am   BACKBONE|DICT|INTERRES
   148   74  152 1    
   149   75   76 2    
   150   75   77 1    
   151   77   78 1    
   152   77   79 1    
   153   77  153 1    
   154   78  154 1    
   155   78  155 1    
   156   78  156 1    
   157   79   80 am   BACKBONE|DICT|INTERRES
   158   79  157 1    
   159   80   81 2    
@<TRIPOS>SUBSTRUCTURE
     1 UNK         1 GROUP             0       ****    0 ROOT    
