@<TRIPOS>MOLECULE
3R207
157   159    1
SMALL
USER_CHARGES


@<TRIPOS>ATOM
      1 CA        -48.8846  -32.7236    4.5055 C.3       0 UNK        -0.1975 
      2 C         -49.1245  -31.3200    3.9693 C.2       0 UNK         0.4852 
      3 O         -48.4465  -30.9005    3.0307 O.2       0 UNK        -0.5216 
      4 N         -50.0847  -30.5926    4.5578 N.am      1 UNK        -0.4461 
      5 CA        -50.4428  -29.2165    4.1878 C.3       1 UNK         0.0864 
      6 C6        -51.8247  -28.8323    4.7716 C.3       14 UNK        -0.0898 
      7 S7        -52.6233  -27.4680    3.8593 S.3       14 UNK        -0.2598 
      8 C8        -54.1128  -27.1706    4.8686 C.3       14 UNK         0.0286 
      9 C9        -53.7790  -26.8803    6.3261 C.ar      14 UNK        -0.0844 
     10 C10       -52.9748  -25.7871    6.6628 C.ar      14 UNK        -0.0881 
     11 C11       -52.6249  -25.5475    7.9940 C.ar      14 UNK        -0.0643 
     12 C12       -53.1073  -26.3978    8.9962 C.ar      14 UNK        -0.0930 
     13 C13       -53.9280  -27.4826    8.6738 C.ar      14 UNK        -0.0827 
     14 C14       -54.2559  -27.7213    7.3362 C.ar      14 UNK        -0.1249 
     15 C15       -54.4657  -28.3968    9.7645 C.3       14 UNK         0.0141 
     16 S16       -53.2544  -29.6779   10.2109 S.3       14 UNK        -0.2313 
     17 C17       -54.3074  -30.8563   11.1247 C.3       14 UNK        -0.0915 
     18 CA        -54.5799  -30.4481   12.6029 C.3       13 UNK         0.0968 
     19 C         -55.5715  -31.4099   13.3274 C.2       13 UNK         0.5732 
     20 N         -55.4422  -31.6449   14.6294 N.am      13 UNK        -0.7310 
     21 O         -56.4972  -31.9312   12.7095 O.2       13 UNK        -0.5035 
     22 N         -53.3644  -30.1505   13.3761 N.am      13 UNK        -0.4233 
     23 C         -52.3712  -31.0020   13.6719 C.2       13 UNK         0.4989 
     24 O         -52.2914  -32.1512   13.2371 O.2       13 UNK        -0.4996 
     25 CA        -51.2867  -30.5002   14.6469 C.3       12 UNK         0.0216 
     26 CB        -50.0117  -30.1120   13.8829 C.3       12 UNK        -0.1964 
     27 N         -51.7173  -29.3664   15.4717 N.am      12 UNK        -0.4276 
     28 C         -52.6770  -29.4177   16.4068 C.2       12 UNK         0.5020 
     29 O         -53.2697  -30.4495   16.7256 O.2       12 UNK        -0.5489 
     30 CA        -53.0884  -28.0780   17.0397 C.3       11 UNK         0.0294 
     31 CB        -52.2215  -27.7743   18.2711 C.3       11 UNK        -0.2019 
     32 N         -53.0265  -26.9534   16.0966 N.am      11 UNK        -0.4493 
     33 C         -53.7992  -26.8377   15.0023 C.2       11 UNK         0.4932 
     34 O         -54.6159  -27.6952   14.6655 O.2       11 UNK        -0.5029 
     35 CA        -53.6066  -25.6075   14.0952 C.3       10 UNK         0.0280 
     36 CB        -54.9377  -25.0622   13.5366 C.3       10 UNK        -0.1976 
     37 N         -52.7906  -24.5463   14.6953 N.am      10 UNK        -0.4242 
     38 C         -53.1005  -23.7531   15.7317 C.2       10 UNK         0.5072 
     39 O         -54.1876  -23.7779   16.3111 O.2       10 UNK        -0.5224 
     40 CA        -52.0076  -22.7733   16.2084 C.3       9 UNK         0.0343 
     41 CB        -52.1723  -22.3817   17.6926 C.3       9 UNK        -0.2003 
     42 N         -50.6310  -23.2190   15.9497 N.am      9 UNK        -0.4272 
     43 C         -50.0293  -24.3298   16.4045 C.2       9 UNK         0.4988 
     44 O         -50.6223  -25.1917   17.0546 O.2       9 UNK        -0.5108 
     45 CA        -48.5321  -24.5305   16.0710 C.3       8 UNK         0.0248 
     46 CB        -48.1794  -26.0208   15.9035 C.3       8 UNK        -0.2001 
     47 N         -48.1019  -23.8046   14.8716 N.am      8 UNK        -0.4140 
     48 C         -47.7435  -22.5136   14.8158 C.2       8 UNK         0.5028 
     49 O         -47.6309  -21.7917   15.8062 O.2       8 UNK        -0.5428 
     50 CA        -47.5654  -21.9034   13.4106 C.3       7 UNK         0.0264 
     51 CB        -46.1243  -22.0837   12.9097 C.3       7 UNK        -0.1988 
     52 N         -48.5121  -22.4586   12.4343 N.am      7 UNK        -0.4454 
     53 C         -49.8459  -22.3309   12.5256 C.2       7 UNK         0.5027 
     54 O         -50.4017  -21.6255   13.3681 O.2       7 UNK        -0.5083 
     55 CA        -50.7144  -23.1848   11.5834 C.3       6 UNK         0.0844 
     56 C56       -51.0762  -22.4281   10.2826 C.3       14 UNK        -0.0967 
     57 S57       -52.5047  -23.2009    9.4539 S.3       14 UNK        -0.2604 
     58 C58       -51.6951  -24.3962    8.3457 C.3       14 UNK         0.0134 
     59 N         -50.0882  -24.4819   11.3159 N.am      6 UNK        -0.4116 
     60 C         -50.0268  -25.4998   12.1821 C.2       5 UNK         0.5034 
     61 O         -50.4989  -25.4635   13.3156 O.2       5 UNK        -0.5045 
     62 CA        -49.2681  -26.7536   11.7230 C.3       5 UNK         0.0224 
     63 CB        -50.1722  -27.6507   10.8647 C.3       5 UNK        -0.1978 
     64 N         -48.0478  -26.4265   10.9842 N.am      5 UNK        -0.4737 
     65 C         -46.9866  -25.8187   11.5360 C.2       4 UNK         0.5027 
     66 O         -46.9086  -25.5481   12.7333 O.2       4 UNK        -0.5211 
     67 CA        -45.8467  -25.3904   10.5944 C.3       4 UNK         0.0297 
     68 CB        -44.7755  -26.4895   10.5213 C.3       4 UNK        -0.1993 
     69 N         -46.2935  -25.0574    9.2391 N.am      4 UNK        -0.4486 
     70 C         -47.2086  -24.1300    8.9187 C.2       3 UNK         0.4961 
     71 O         -47.7524  -23.3944    9.7427 O.2       3 UNK        -0.5105 
     72 CA        -47.6282  -24.0438    7.4394 C.3       3 UNK         0.0299 
     73 CB        -46.9189  -22.8681    6.7505 C.3       3 UNK        -0.1972 
     74 N         -47.3771  -25.2785    6.6842 N.am      3 UNK        -0.4305 
     75 C         -47.9855  -26.4514    6.9117 C.2       2 UNK         0.5006 
     76 O         -48.8459  -26.6227    7.7776 O.2       2 UNK        -0.5106 
     77 CA        -47.4736  -27.6520    6.1037 C.3       2 UNK         0.0296 
     78 CB        -46.5333  -28.5101    6.9671 C.3       2 UNK        -0.2002 
     79 N         -48.5766  -28.4839    5.6268 N.am      2 UNK        -0.4032 
     80 C         -49.3450  -28.1922    4.5671 C.2       1 UNK         0.5000 
     81 O         -49.1871  -27.1840    3.8747 O.2       1 UNK        -0.5238 
     82 H82       -49.0377  -33.4580    3.7152 H         1 UNK         0.0889 
     83 H83       -49.5560  -32.9671    5.3287 H         1 UNK         0.0889 
     84 H84       -47.8600  -32.8178    4.8644 H         1 UNK         0.0889 
     85 H85       -50.6161  -30.9978    5.3158 H         1 UNK         0.3028 
     86 H86       -50.5232  -29.2004    3.0982 H         1 UNK         0.0864 
     87 H87       -51.7371  -28.5792    5.8300 H         1 UNK         0.0720 
     88 H88       -52.5059  -29.6834    4.7205 H         1 UNK         0.0720 
     89 H89       -54.7723  -28.0358    4.7848 H         1 UNK         0.0814 
     90 H90       -54.6613  -26.3246    4.4524 H         1 UNK         0.0814 
     91 H91       -52.5977  -25.1424    5.8806 H         1 UNK         0.1469 
     92 H92       -52.8398  -26.2145   10.0278 H         1 UNK         0.1381 
     93 H93       -54.8776  -28.5690    7.0821 H         1 UNK         0.1206 
     94 H94       -55.3924  -28.8661    9.4306 H         1 UNK         0.0813 
     95 H95       -54.7177  -27.8133   10.6514 H         1 UNK         0.0813 
     96 H96       -55.2451  -30.9672   10.5777 H         1 UNK         0.0638 
     97 H97       -53.8269  -31.8347   11.0845 H         1 UNK         0.0638 
     98 H98       -55.1194  -29.5016   12.5677 H         1 UNK         0.0568 
     99 H99       -56.0988  -32.2595   15.0833 H         1 UNK         0.3450 
    100 H100      -54.7006  -31.2156   15.1668 H         1 UNK         0.3450 
    101 H101      -53.3765  -29.2480   13.8318 H         1 UNK         0.2987 
    102 H102      -51.0459  -31.3278   15.3176 H         1 UNK         0.0766 
    103 H103      -50.1969  -29.2890   13.1952 H         1 UNK         0.0798 
    104 H104      -49.6389  -30.9507   13.2931 H         1 UNK         0.0798 
    105 H105      -49.2126  -29.8136   14.5619 H         1 UNK         0.0798 
    106 H106      -51.2911  -28.4708   15.2814 H         1 UNK         0.3198 
    107 H107      -54.1253  -28.1749   17.3687 H         1 UNK         0.0843 
    108 H108      -52.5276  -26.8460   18.7539 H         1 UNK         0.0831 
    109 H109      -51.1662  -27.6831   18.0110 H         1 UNK         0.0831 
    110 H110      -52.3064  -28.5695   19.0129 H         1 UNK         0.0831 
    111 H111      -52.3574  -26.2198   16.3075 H         1 UNK         0.3133 
    112 H112      -53.0383  -25.9699   13.2385 H         1 UNK         0.0566 
    113 H113      -55.4518  -25.8201   12.9442 H         1 UNK         0.0814 
    114 H114      -55.6198  -24.7580   14.3307 H         1 UNK         0.0814 
    115 H115      -54.7722  -24.2038   12.8856 H         1 UNK         0.0814 
    116 H116      -51.8422  -24.5064   14.3314 H         1 UNK         0.3091 
    117 H117      -52.1440  -21.8688   15.6139 H         1 UNK         0.0702 
    118 H118      -51.4066  -21.6704   18.0025 H         1 UNK         0.0785 
    119 H119      -52.1085  -23.2509   18.3484 H         1 UNK         0.0785 
    120 H120      -53.1395  -21.9100   17.8708 H         1 UNK         0.0785 
    121 H121      -50.0859  -22.5907   15.3726 H         1 UNK         0.2998 
    122 H122      -47.9690  -24.1518   16.9261 H         1 UNK         0.0697 
    123 H123      -47.1215  -26.1548   15.6768 H         1 UNK         0.0825 
    124 H124      -48.3866  -26.5810   16.8162 H         1 UNK         0.0825 
    125 H125      -48.7527  -26.4828   15.0999 H         1 UNK         0.0825 
    126 H126      -48.1043  -24.3360   14.0080 H         1 UNK         0.3029 
    127 H127      -47.7654  -20.8323   13.4874 H         1 UNK         0.0897 
    128 H128      -45.9989  -21.6917   11.9000 H         1 UNK         0.0792 
    129 H129      -45.4233  -21.5522   13.5546 H         1 UNK         0.0792 
    130 H130      -45.8246  -23.1308   12.9058 H         1 UNK         0.0792 
    131 H131      -48.1279  -22.9910   11.6591 H         1 UNK         0.3086 
    132 H132      -51.6446  -23.3749   12.1243 H         1 UNK         0.0583 
    133 H133      -51.3602  -21.3973   10.5047 H         1 UNK         0.1020 
    134 H134      -50.2266  -22.3655    9.6003 H         1 UNK         0.1020 
    135 H135      -51.3598  -23.8725    7.4492 H         1 UNK         0.0694 
    136 H136      -50.8006  -24.8116    8.8063 H         1 UNK         0.0694 
    137 H137      -49.5920  -24.5663   10.4404 H         1 UNK         0.2989 
    138 H138      -48.9807  -27.3062   12.6199 H         1 UNK         0.1055 
    139 H139      -50.4312  -27.1804    9.9158 H         1 UNK         0.0806 
    140 H140      -51.1064  -27.8737   11.3817 H         1 UNK         0.0806 
    141 H141      -49.6907  -28.6027   10.6412 H         1 UNK         0.0806 
    142 H142      -48.0525  -26.6014    9.9867 H         1 UNK         0.3061 
    143 H143      -45.3894  -24.4936   11.0153 H         1 UNK         0.0734 
    144 H144      -43.9159  -26.1700    9.9320 H         1 UNK         0.0832 
    145 H145      -44.4068  -26.7397   11.5172 H         1 UNK         0.0832 
    146 H146      -45.1661  -27.4071   10.0793 H         1 UNK         0.0832 
    147 H147      -45.8967  -25.6011    8.4878 H         1 UNK         0.3156 
    148 H148      -48.7030  -23.8529    7.4181 H         1 UNK         0.0589 
    149 H149      -45.8374  -23.0072    6.7221 H         1 UNK         0.0808 
    150 H150      -47.2692  -22.7374    5.7264 H         1 UNK         0.0808 
    151 H151      -47.1130  -21.9329    7.2781 H         1 UNK         0.0808 
    152 H152      -46.6777  -25.2274    5.9566 H         1 UNK         0.3098 
    153 H153      -46.9116  -27.2915    5.2391 H         1 UNK         0.0720 
    154 H154      -45.6728  -27.9315    7.3052 H         1 UNK         0.0791 
    155 H155      -47.0370  -28.8948    7.8553 H         1 UNK         0.0791 
    156 H156      -46.1472  -29.3615    6.4060 H         1 UNK         0.0791 
    157 H157      -48.7886  -29.3119    6.1627 H         1 UNK         0.3028 
@<TRIPOS>BOND
     1    1    2 1    
     2    1   82 1    
     3    1   83 1    
     4    1   84 1    
     5    2    3 2    
     6    2    4 am   BACKBONE|DICT|INTERRES
     7    4    5 1    
     8    4   85 1    
     9    5    6 1    
    10    5   80 1    
    11    5   86 1    
    12    6    7 1    
    13    6   87 1    
    14    6   88 1    
    15    7    8 1    
    16    8    9 1    
    17    8   89 1    
    18    8   90 1    
    19    9   10 ar   
    20    9   14 ar   
    21   10   11 ar   
    22   10   91 1    
    23   11   12 ar   
    24   11   58 1    
    25   12   13 ar   
    26   12   92 1    
    27   13   14 ar   
    28   13   15 1    
    29   14   93 1    
    30   15   16 1    
    31   15   94 1    
    32   15   95 1    
    33   16   17 1    
    34   17   18 1    
    35   17   96 1    
    36   17   97 1    
    37   18   19 1    
    38   18   22 1    
    39   18   98 1    
    40   19   20 am   BACKBONE|DICT|INTERRES
    41   19   21 2    
    42   20   99 1    
    43   20  100 1    
    44   22   23 am   BACKBONE|DICT|INTERRES
    45   22  101 1    
    46   23   24 2    
    47   23   25 1    
    48   25   26 1    
    49   25   27 1    
    50   25  102 1    
    51   26  103 1    
    52   26  104 1    
    53   26  105 1    
    54   27   28 am   BACKBONE|DICT|INTERRES
    55   27  106 1    
    56   28   29 2    
    57   28   30 1    
    58   30   31 1    
    59   30   32 1    
    60   30  107 1    
    61   31  108 1    
    62   31  109 1    
    63   31  110 1    
    64   32   33 am   BACKBONE|DICT|INTERRES
    65   32  111 1    
    66   33   34 2    
    67   33   35 1    
    68   35   36 1    
    69   35   37 1    
    70   35  112 1    
    71   36  113 1    
    72   36  114 1    
    73   36  115 1    
    74   37   38 am   BACKBONE|DICT|INTERRES
    75   37  116 1    
    76   38   39 2    
    77   38   40 1    
    78   40   41 1    
    79   40   42 1    
    80   40  117 1    
    81   41  118 1    
    82   41  119 1    
    83   41  120 1    
    84   42   43 am   BACKBONE|DICT|INTERRES
    85   42  121 1    
    86   43   44 2    
    87   43   45 1    
    88   45   46 1    
    89   45   47 1    
    90   45  122 1    
    91   46  123 1    
    92   46  124 1    
    93   46  125 1    
    94   47   48 am   BACKBONE|DICT|INTERRES
    95   47  126 1    
    96   48   49 2    
    97   48   50 1    
    98   50   51 1    
    99   50   52 1    
   100   50  127 1    
   101   51  128 1    
   102   51  129 1    
   103   51  130 1    
   104   52   53 am   BACKBONE|DICT|INTERRES
   105   52  131 1    
   106   53   54 2    
   107   53   55 1    
   108   55   56 1    
   109   55   59 1    
   110   55  132 1    
   111   56   57 1    
   112   56  133 1    
   113   56  134 1    
   114   57   58 1    
   115   58  135 1    
   116   58  136 1    
   117   59   60 am   BACKBONE|DICT|INTERRES
   118   59  137 1    
   119   60   61 2    
   120   60   62 1    
   121   62   63 1    
   122   62   64 1    
   123   62  138 1    
   124   63  139 1    
   125   63  140 1    
   126   63  141 1    
   127   64   65 am   BACKBONE|DICT|INTERRES
   128   64  142 1    
   129   65   66 2    
   130   65   67 1    
   131   67   68 1    
   132   67   69 1    
   133   67  143 1    
   134   68  144 1    
   135   68  145 1    
   136   68  146 1    
   137   69   70 am   BACKBONE|DICT|INTERRES
   138   69  147 1    
   139   70   71 2    
   140   70   72 1    
   141   72   73 1    
   142   72   74 1    
   143   72  148 1    
   144   73  149 1    
   145   73  150 1    
   146   73  151 1    
   147   74   75 am   BACKBONE|DICT|INTERRES
   148   74  152 1    
   149   75   76 2    
   150   75   77 1    
   151   77   78 1    
   152   77   79 1    
   153   77  153 1    
   154   78  154 1    
   155   78  155 1    
   156   78  156 1    
   157   79   80 am   BACKBONE|DICT|INTERRES
   158   79  157 1    
   159   80   81 2    
@<TRIPOS>SUBSTRUCTURE
     1 UNK         1 GROUP             0       ****    0 ROOT    
