@<TRIPOS>MOLECULE
3R207
157   159    1
SMALL
USER_CHARGES


@<TRIPOS>ATOM
      1 CA        -45.7921  -29.0341   10.6108 C.3       0 UNK        -0.1975 
      2 C         -45.7600  -28.9633    9.0919 C.2       0 UNK         0.4852 
      3 O         -44.6776  -28.9411    8.5029 O.2       0 UNK        -0.5216 
      4 N         -46.9357  -28.9224    8.4498 N.am      1 UNK        -0.4461 
      5 CA        -47.0993  -28.7867    6.9984 C.3       1 UNK         0.0864 
      6 C6        -48.5777  -28.9439    6.5547 C.3       14 UNK        -0.0898 
      7 S7        -49.7629  -27.8752    7.4465 S.3       14 UNK        -0.2598 
      8 C8        -51.3259  -28.7040    7.0317 C.3       14 UNK         0.0286 
      9 C9        -52.4949  -27.9972    7.6949 C.ar      14 UNK        -0.0844 
     10 C10       -53.1357  -26.9367    7.0488 C.ar      14 UNK        -0.0881 
     11 C11       -54.1793  -26.2481    7.6760 C.ar      14 UNK        -0.0643 
     12 C12       -54.6012  -26.6516    8.9479 C.ar      14 UNK        -0.0930 
     13 C13       -53.9692  -27.7166    9.5993 C.ar      14 UNK        -0.0827 
     14 C14       -52.9184  -28.3859    8.9679 C.ar      14 UNK        -0.1249 
     15 C15       -54.3792  -28.1128   11.0070 C.3       14 UNK         0.0141 
     16 S16       -55.6419  -29.4168   11.0181 S.3       14 UNK        -0.2313 
     17 C17       -55.6655  -29.8676   12.7903 C.3       14 UNK        -0.0915 
     18 CA        -56.5858  -28.9688   13.6719 C.3       13 UNK         0.0968 
     19 C         -58.1152  -29.2472   13.5086 C.2       13 UNK         0.5732 
     20 N         -58.9458  -28.8816   14.4786 N.am      13 UNK        -0.7310 
     21 O         -58.5674  -29.7786   12.4975 O.2       13 UNK        -0.5035 
     22 N         -56.1297  -28.9269   15.0766 N.am      13 UNK        -0.4233 
     23 C         -56.1697  -29.9578   15.9338 C.2       13 UNK         0.4989 
     24 O         -56.5286  -31.0969   15.6282 O.2       13 UNK        -0.4996 
     25 CA        -55.7564  -29.6410   17.3824 C.3       12 UNK         0.0216 
     26 CB        -56.1004  -30.7737   18.3746 C.3       12 UNK        -0.1964 
     27 N         -54.3465  -29.2528   17.4919 N.am      12 UNK        -0.4276 
     28 C         -53.2561  -29.9911   17.2329 C.2       12 UNK         0.5020 
     29 O         -53.2942  -31.1593   16.8435 O.2       12 UNK        -0.5489 
     30 CA        -51.8889  -29.3097   17.4599 C.3       11 UNK         0.0294 
     31 CB        -50.7570  -29.9827   16.6606 C.3       11 UNK        -0.2019 
     32 N         -51.9316  -27.8845   17.1219 N.am      11 UNK        -0.4493 
     33 C         -52.2109  -26.8916   17.9809 C.2       11 UNK         0.4932 
     34 O         -52.3867  -27.0693   19.1858 O.2       11 UNK        -0.5029 
     35 CA        -52.3782  -25.4691   17.4081 C.3       10 UNK         0.0280 
     36 CB        -51.0917  -24.6550   17.6157 C.3       10 UNK        -0.1976 
     37 N         -52.7408  -25.4395   15.9889 N.am      10 UNK        -0.4242 
     38 C         -53.8493  -25.9827   15.4602 C.2       10 UNK         0.5072 
     39 O         -54.7633  -26.4759   16.1246 O.2       10 UNK        -0.5224 
     40 CA        -53.9340  -26.0649   13.9273 C.3       9 UNK         0.0343 
     41 CB        -54.8476  -24.9564   13.3826 C.3       9 UNK        -0.2003 
     42 N         -52.6376  -26.0247   13.2418 N.am      9 UNK        -0.4272 
     43 C         -51.6303  -26.8928   13.4418 C.2       9 UNK         0.4988 
     44 O         -51.7375  -27.8867   14.1589 O.2       9 UNK        -0.5108 
     45 CA        -50.2611  -26.5940   12.7957 C.3       8 UNK         0.0248 
     46 CB        -50.0215  -27.5359   11.6037 C.3       8 UNK        -0.2001 
     47 N         -50.0763  -25.2122   12.3448 N.am      8 UNK        -0.4140 
     48 C         -50.2487  -24.0929   13.0671 C.2       8 UNK         0.5028 
     49 O         -50.4776  -24.0841   14.2777 O.2       8 UNK        -0.5428 
     50 CA        -50.2767  -22.7700   12.2780 C.3       7 UNK         0.0264 
     51 CB        -48.9057  -22.0777   12.3056 C.3       7 UNK        -0.1988 
     52 N         -50.7026  -22.9725   10.8877 N.am      7 UNK        -0.4454 
     53 C         -51.9300  -23.3647   10.5121 C.2       7 UNK         0.5027 
     54 O         -52.8726  -23.4355   11.3004 O.2       7 UNK        -0.5083 
     55 CA        -52.1391  -23.8649    9.0646 C.3       6 UNK         0.0844 
     56 C56       -53.2508  -23.0736    8.3240 C.3       14 UNK        -0.0967 
     57 S57       -53.6177  -23.7174    6.6526 S.3       14 UNK        -0.2604 
     58 C58       -54.8223  -25.0478    6.9920 C.3       14 UNK         0.0134 
     59 N         -50.8992  -24.0562    8.3032 N.am      6 UNK        -0.4116 
     60 C         -50.0540  -23.1272    7.8436 C.2       5 UNK         0.5034 
     61 O         -50.2207  -21.9126    7.9638 O.2       5 UNK        -0.5045 
     62 CA        -48.7541  -23.6673    7.2230 C.3       5 UNK         0.0224 
     63 CB        -48.3213  -22.8399    6.0004 C.3       5 UNK        -0.1978 
     64 N         -47.6408  -23.7239    8.1792 N.am      5 UNK        -0.4737 
     65 C         -47.6260  -24.3750    9.3519 C.2       4 UNK         0.5027 
     66 O         -48.6060  -24.9303    9.8510 O.2       4 UNK        -0.5211 
     67 CA        -46.2728  -24.4364   10.0709 C.3       4 UNK         0.0297 
     68 CB        -46.3327  -25.2433   11.3861 C.3       4 UNK        -0.1993 
     69 N         -45.2667  -25.0090    9.1738 N.am      4 UNK        -0.4486 
     70 C         -43.9478  -24.7890    9.2791 C.2       3 UNK         0.4961 
     71 O         -43.4582  -24.0249   10.1122 O.2       3 UNK        -0.5105 
     72 CA        -42.9916  -25.5445    8.3348 C.3       3 UNK         0.0299 
     73 CB        -42.1875  -26.5952    9.1192 C.3       3 UNK        -0.1972 
     74 N         -43.6661  -26.2009    7.2137 N.am      3 UNK        -0.4305 
     75 C         -44.0076  -25.5858    6.0711 C.2       2 UNK         0.5006 
     76 O         -43.7452  -24.4071    5.8287 O.2       2 UNK        -0.5106 
     77 CA        -44.7853  -26.4052    5.0179 C.3       2 UNK         0.0296 
     78 CB        -43.8351  -26.8942    3.9124 C.3       2 UNK        -0.2002 
     79 N         -45.5337  -27.5511    5.5512 N.am      2 UNK        -0.4032 
     80 C         -46.4750  -27.4677    6.5014 C.2       1 UNK         0.5000 
     81 O         -46.8040  -26.4064    7.0287 O.2       1 UNK        -0.5238 
     82 H82       -45.1594  -28.2551   11.0353 H         1 UNK         0.0889 
     83 H83       -45.4146  -29.9991   10.9476 H         1 UNK         0.0889 
     84 H84       -46.8005  -28.9057   11.0037 H         1 UNK         0.0889 
     85 H85       -47.7967  -28.8932    8.9768 H         1 UNK         0.3028 
     86 H86       -46.5398  -29.6080    6.5453 H         1 UNK         0.0864 
     87 H87       -48.8793  -29.9813    6.7079 H         1 UNK         0.0720 
     88 H88       -48.6809  -28.7636    5.4829 H         1 UNK         0.0720 
     89 H89       -51.2859  -29.7459    7.3533 H         1 UNK         0.0814 
     90 H90       -51.4568  -28.7169    5.9485 H         1 UNK         0.0814 
     91 H91       -52.7997  -26.6218    6.0701 H         1 UNK         0.1469 
     92 H92       -55.4034  -26.1213    9.4427 H         1 UNK         0.1381 
     93 H93       -52.4171  -29.1987    9.4758 H         1 UNK         0.1206 
     94 H94       -53.5036  -28.4377   11.5709 H         1 UNK         0.0813 
     95 H95       -54.7832  -27.2418   11.5169 H         1 UNK         0.0813 
     96 H96       -54.6382  -29.8255   13.1564 H         1 UNK         0.0638 
     97 H97       -55.9605  -30.9147   12.8766 H         1 UNK         0.0638 
     98 H98       -56.4714  -27.9451   13.3170 H         1 UNK         0.0568 
     99 H99       -59.9324  -29.0568   14.3713 H         1 UNK         0.3450 
    100 H100      -58.6012  -28.4326   15.3115 H         1 UNK         0.3450 
    101 H101      -55.8127  -28.0267   15.4232 H         1 UNK         0.2987 
    102 H102      -56.3354  -28.7661   17.6826 H         1 UNK         0.0766 
    103 H103      -57.1680  -30.9960   18.3548 H         1 UNK         0.0798 
    104 H104      -55.8465  -30.4955   19.3974 H         1 UNK         0.0798 
    105 H105      -55.5742  -31.6993   18.1390 H         1 UNK         0.0798 
    106 H106      -54.1892  -28.2894   17.7573 H         1 UNK         0.3198 
    107 H107      -51.6531  -29.4251   18.5200 H         1 UNK         0.0843 
    108 H108      -50.9674  -29.9902   15.5907 H         1 UNK         0.0831 
    109 H109      -50.6215  -31.0193   16.9716 H         1 UNK         0.0831 
    110 H110      -49.8050  -29.4740   16.8125 H         1 UNK         0.0831 
    111 H111      -51.8434  -27.6723   16.1317 H         1 UNK         0.3133 
    112 H112      -53.1846  -24.9855   17.9629 H         1 UNK         0.0566 
    113 H113      -51.2181  -23.6224   17.2893 H         1 UNK         0.0814 
    114 H114      -50.2531  -25.0791   17.0615 H         1 UNK         0.0814 
    115 H115      -50.8091  -24.6294   18.6691 H         1 UNK         0.0814 
    116 H116      -52.0493  -25.0452   15.3581 H         1 UNK         0.3091 
    117 H117      -54.3786  -27.0328   13.7049 H         1 UNK         0.0702 
    118 H118      -54.9779  -25.0322   12.3033 H         1 UNK         0.0785 
    119 H119      -54.4447  -23.9655   13.5969 H         1 UNK         0.0785 
    120 H120      -55.8398  -25.0095   13.8328 H         1 UNK         0.0785 
    121 H121      -52.4765  -25.2239   12.6436 H         1 UNK         0.2998 
    122 H122      -49.4996  -26.7911   13.5524 H         1 UNK         0.0697 
    123 H123      -49.0175  -27.4142   11.1969 H         1 UNK         0.0825 
    124 H124      -50.7303  -27.3507   10.7953 H         1 UNK         0.0825 
    125 H125      -50.1269  -28.5809   11.8988 H         1 UNK         0.0825 
    126 H126      -49.8000  -25.1018   11.3721 H         1 UNK         0.3029 
    127 H127      -51.0028  -22.1144   12.7638 H         1 UNK         0.0897 
    128 H128      -48.1377  -22.6740   11.8152 H         1 UNK         0.0792 
    129 H129      -48.5783  -21.9050   13.3319 H         1 UNK         0.0792 
    130 H130      -48.9429  -21.1071   11.8106 H         1 UNK         0.0792 
    131 H131      -49.9770  -22.9707   10.1842 H         1 UNK         0.3086 
    132 H132      -52.5038  -24.8794    9.2080 H         1 UNK         0.0583 
    133 H133      -54.1745  -23.0752    8.9060 H         1 UNK         0.1020 
    134 H134      -52.9625  -22.0257    8.2250 H         1 UNK         0.1020 
    135 H135      -55.6445  -24.6474    7.5871 H         1 UNK         0.0694 
    136 H136      -55.2580  -25.3753    6.0471 H         1 UNK         0.0694 
    137 H137      -50.6114  -25.0217    8.2140 H         1 UNK         0.2989 
    138 H138      -48.9391  -24.6885    6.8809 H         1 UNK         0.1055 
    139 H139      -48.0486  -21.8205    6.2765 H         1 UNK         0.0806 
    140 H140      -49.1276  -22.7752    5.2684 H         1 UNK         0.0806 
    141 H141      -47.4658  -23.2936    5.4990 H         1 UNK         0.0806 
    142 H142      -46.7754  -23.3066    7.8691 H         1 UNK         0.3061 
    143 H143      -45.9991  -23.4065   10.3096 H         1 UNK         0.0734 
    144 H144      -46.6397  -26.2732   11.2071 H         1 UNK         0.0832 
    145 H145      -45.3674  -25.2625   11.8914 H         1 UNK         0.0832 
    146 H146      -47.0505  -24.8104   12.0829 H         1 UNK         0.0832 
    147 H147      -45.6306  -25.5958    8.4255 H         1 UNK         0.3156 
    148 H148      -42.2829  -24.8137    7.9394 H         1 UNK         0.0589 
    149 H149      -42.8366  -27.3341    9.5897 H         1 UNK         0.0808 
    150 H150      -41.6034  -26.1268    9.9126 H         1 UNK         0.0808 
    151 H151      -41.4871  -27.1250    8.4734 H         1 UNK         0.0808 
    152 H152      -43.9368  -27.1678    7.3540 H         1 UNK         0.3098 
    153 H153      -45.5137  -25.7285    4.5661 H         1 UNK         0.0720 
    154 H154      -43.2850  -26.0608    3.4728 H         1 UNK         0.0791 
    155 H155      -44.3815  -27.3798    3.1035 H         1 UNK         0.0791 
    156 H156      -43.1002  -27.6028    4.2966 H         1 UNK         0.0791 
    157 H157      -45.2890  -28.4596    5.1838 H         1 UNK         0.3028 
@<TRIPOS>BOND
     1    1    2 1    
     2    1   82 1    
     3    1   83 1    
     4    1   84 1    
     5    2    3 2    
     6    2    4 am   BACKBONE|DICT|INTERRES
     7    4    5 1    
     8    4   85 1    
     9    5    6 1    
    10    5   80 1    
    11    5   86 1    
    12    6    7 1    
    13    6   87 1    
    14    6   88 1    
    15    7    8 1    
    16    8    9 1    
    17    8   89 1    
    18    8   90 1    
    19    9   10 ar   
    20    9   14 ar   
    21   10   11 ar   
    22   10   91 1    
    23   11   12 ar   
    24   11   58 1    
    25   12   13 ar   
    26   12   92 1    
    27   13   14 ar   
    28   13   15 1    
    29   14   93 1    
    30   15   16 1    
    31   15   94 1    
    32   15   95 1    
    33   16   17 1    
    34   17   18 1    
    35   17   96 1    
    36   17   97 1    
    37   18   19 1    
    38   18   22 1    
    39   18   98 1    
    40   19   20 am   BACKBONE|DICT|INTERRES
    41   19   21 2    
    42   20   99 1    
    43   20  100 1    
    44   22   23 am   BACKBONE|DICT|INTERRES
    45   22  101 1    
    46   23   24 2    
    47   23   25 1    
    48   25   26 1    
    49   25   27 1    
    50   25  102 1    
    51   26  103 1    
    52   26  104 1    
    53   26  105 1    
    54   27   28 am   BACKBONE|DICT|INTERRES
    55   27  106 1    
    56   28   29 2    
    57   28   30 1    
    58   30   31 1    
    59   30   32 1    
    60   30  107 1    
    61   31  108 1    
    62   31  109 1    
    63   31  110 1    
    64   32   33 am   BACKBONE|DICT|INTERRES
    65   32  111 1    
    66   33   34 2    
    67   33   35 1    
    68   35   36 1    
    69   35   37 1    
    70   35  112 1    
    71   36  113 1    
    72   36  114 1    
    73   36  115 1    
    74   37   38 am   BACKBONE|DICT|INTERRES
    75   37  116 1    
    76   38   39 2    
    77   38   40 1    
    78   40   41 1    
    79   40   42 1    
    80   40  117 1    
    81   41  118 1    
    82   41  119 1    
    83   41  120 1    
    84   42   43 am   BACKBONE|DICT|INTERRES
    85   42  121 1    
    86   43   44 2    
    87   43   45 1    
    88   45   46 1    
    89   45   47 1    
    90   45  122 1    
    91   46  123 1    
    92   46  124 1    
    93   46  125 1    
    94   47   48 am   BACKBONE|DICT|INTERRES
    95   47  126 1    
    96   48   49 2    
    97   48   50 1    
    98   50   51 1    
    99   50   52 1    
   100   50  127 1    
   101   51  128 1    
   102   51  129 1    
   103   51  130 1    
   104   52   53 am   BACKBONE|DICT|INTERRES
   105   52  131 1    
   106   53   54 2    
   107   53   55 1    
   108   55   56 1    
   109   55   59 1    
   110   55  132 1    
   111   56   57 1    
   112   56  133 1    
   113   56  134 1    
   114   57   58 1    
   115   58  135 1    
   116   58  136 1    
   117   59   60 am   BACKBONE|DICT|INTERRES
   118   59  137 1    
   119   60   61 2    
   120   60   62 1    
   121   62   63 1    
   122   62   64 1    
   123   62  138 1    
   124   63  139 1    
   125   63  140 1    
   126   63  141 1    
   127   64   65 am   BACKBONE|DICT|INTERRES
   128   64  142 1    
   129   65   66 2    
   130   65   67 1    
   131   67   68 1    
   132   67   69 1    
   133   67  143 1    
   134   68  144 1    
   135   68  145 1    
   136   68  146 1    
   137   69   70 am   BACKBONE|DICT|INTERRES
   138   69  147 1    
   139   70   71 2    
   140   70   72 1    
   141   72   73 1    
   142   72   74 1    
   143   72  148 1    
   144   73  149 1    
   145   73  150 1    
   146   73  151 1    
   147   74   75 am   BACKBONE|DICT|INTERRES
   148   74  152 1    
   149   75   76 2    
   150   75   77 1    
   151   77   78 1    
   152   77   79 1    
   153   77  153 1    
   154   78  154 1    
   155   78  155 1    
   156   78  156 1    
   157   79   80 am   BACKBONE|DICT|INTERRES
   158   79  157 1    
   159   80   81 2    
@<TRIPOS>SUBSTRUCTURE
     1 UNK         1 GROUP             0       ****    0 ROOT    
