@<TRIPOS>MOLECULE
3R207
157   159    1
SMALL
USER_CHARGES


@<TRIPOS>ATOM
      1 CA        -52.6293  -29.5744    3.0846 C.3       0 UNK        -0.1975 
      2 C         -51.8908  -28.7335    4.1156 C.2       0 UNK         0.4852 
      3 O         -51.9881  -27.5056    4.0856 O.2       0 UNK        -0.5216 
      4 N         -51.1621  -29.3853    5.0304 N.am      1 UNK        -0.4461 
      5 CA        -50.3523  -28.7397    6.0679 C.3       1 UNK         0.0864 
      6 C6        -49.9661  -29.7287    7.1954 C.3       14 UNK        -0.0898 
      7 S7        -51.3776  -30.0846    8.2891 S.3       14 UNK        -0.2598 
      8 C8        -51.1670  -28.8251    9.5916 C.3       14 UNK         0.0286 
      9 C9        -52.3104  -27.8245    9.5947 C.ar      14 UNK        -0.0844 
     10 C10       -52.1665  -26.5701    8.9945 C.ar      14 UNK        -0.0881 
     11 C11       -53.2206  -25.6505    9.0122 C.ar      14 UNK        -0.0643 
     12 C12       -54.4319  -26.0024    9.6197 C.ar      14 UNK        -0.0930 
     13 C13       -54.5899  -27.2580   10.2157 C.ar      14 UNK        -0.0827 
     14 C14       -53.5177  -28.1530   10.2125 C.ar      14 UNK        -0.1249 
     15 C15       -55.8964  -27.6391   10.9030 C.3       14 UNK         0.0141 
     16 S16       -56.5395  -29.2468   10.3293 S.3       14 UNK        -0.2313 
     17 C17       -57.4302  -29.9084   11.7881 C.3       14 UNK        -0.0915 
     18 CA        -56.6538  -29.9288   13.1457 C.3       13 UNK         0.0968 
     19 C         -57.4448  -30.6510   14.2781 C.2       13 UNK         0.5732 
     20 N         -56.7885  -31.3024   15.2311 N.am      13 UNK        -0.7310 
     21 O         -58.6721  -30.5949   14.3163 O.2       13 UNK        -0.5035 
     22 N         -55.2425  -30.3358   13.0200 N.am      13 UNK        -0.4233 
     23 C         -54.7940  -31.5266   12.5987 C.2       13 UNK         0.4989 
     24 O         -55.5318  -32.4686   12.3059 O.2       13 UNK        -0.4996 
     25 CA        -53.2707  -31.7149   12.4590 C.3       12 UNK         0.0216 
     26 CB        -52.8957  -32.0534   11.0059 C.3       12 UNK        -0.1964 
     27 N         -52.4886  -30.5543   12.9053 N.am      12 UNK        -0.4276 
     28 C         -52.0494  -30.3838   14.1581 C.2       12 UNK         0.5020 
     29 O         -52.2747  -31.1768   15.0736 O.2       12 UNK        -0.5489 
     30 CA        -51.2104  -29.1256   14.4485 C.3       11 UNK         0.0294 
     31 CB        -49.7393  -29.3676   14.0715 C.3       11 UNK        -0.2019 
     32 N         -51.6550  -27.8605   13.8476 N.am      11 UNK        -0.4493 
     33 C         -52.9001  -27.3603   13.8429 C.2       11 UNK         0.4932 
     34 O         -53.9161  -28.0193   14.0687 O.2       11 UNK        -0.5029 
     35 CA        -52.9991  -25.8391   13.6102 C.3       10 UNK         0.0280 
     36 CB        -54.4464  -25.3114   13.5252 C.3       10 UNK        -0.1976 
     37 N         -52.2640  -25.0862   14.6360 N.am      10 UNK        -0.4242 
     38 C         -52.4445  -25.1444   15.9674 C.2       10 UNK         0.5072 
     39 O         -53.2852  -25.8574   16.5195 O.2       10 UNK        -0.5224 
     40 CA        -51.5517  -24.2313   16.8329 C.3       9 UNK         0.0343 
     41 CB        -51.5693  -24.6176   18.3277 C.3       9 UNK        -0.2003 
     42 N         -50.1693  -24.1214   16.3586 N.am      9 UNK        -0.4272 
     43 C         -49.2778  -25.1022   16.1590 C.2       9 UNK         0.4988 
     44 O         -49.5259  -26.2976   16.3239 O.2       9 UNK        -0.5108 
     45 CA        -47.8654  -24.6595   15.7127 C.3       8 UNK         0.0248 
     46 CB        -46.9515  -25.8574   15.3940 C.3       8 UNK        -0.2001 
     47 N         -47.8833  -23.7526   14.5586 N.am      8 UNK        -0.4140 
     48 C         -48.2827  -22.4725   14.5649 C.2       8 UNK         0.5028 
     49 O         -48.6211  -21.8713   15.5858 O.2       8 UNK        -0.5428 
     50 CA        -48.3913  -21.7580   13.2074 C.3       7 UNK         0.0264 
     51 CB        -47.0520  -21.1070   12.8291 C.3       7 UNK        -0.1988 
     52 N         -48.8473  -22.6308   12.1200 N.am      7 UNK        -0.4454 
     53 C         -50.0302  -23.2671   12.0861 C.2       7 UNK         0.5027 
     54 O         -50.8795  -23.1772   12.9743 O.2       7 UNK        -0.5083 
     55 CA        -50.2791  -24.2073   10.8877 C.3       6 UNK         0.0844 
     56 C56       -50.6496  -23.4374    9.5954 C.3       14 UNK        -0.0967 
     57 S57       -52.4278  -23.0312    9.5224 S.3       14 UNK        -0.2604 
     58 C58       -53.0613  -24.2841    8.3585 C.3       14 UNK         0.0134 
     59 N         -49.1453  -25.1080   10.6890 N.am      6 UNK        -0.4116 
     60 C         -48.7751  -26.0725   11.5424 C.2       5 UNK         0.5034 
     61 O         -49.4298  -26.4032   12.5322 O.2       5 UNK        -0.5045 
     62 CA        -47.4256  -26.7573   11.2617 C.3       5 UNK         0.0224 
     63 CB        -47.5938  -27.9932   10.3665 C.3       5 UNK        -0.1978 
     64 N         -46.4507  -25.8486   10.6507 N.am      5 UNK        -0.4737 
     65 C         -45.8422  -24.8504   11.3044 C.2       4 UNK         0.5027 
     66 O         -46.0287  -24.6030   12.4937 O.2       4 UNK        -0.5211 
     67 CA        -44.8928  -23.9602   10.4861 C.3       4 UNK         0.0297 
     68 CB        -43.5098  -24.6183   10.3603 C.3       4 UNK        -0.1993 
     69 N         -45.4123  -23.6438    9.1530 N.am      4 UNK        -0.4486 
     70 C         -46.5053  -22.9029    8.9228 C.2       3 UNK         0.4961 
     71 O         -47.1992  -22.4058    9.8088 O.2       3 UNK        -0.5105 
     72 CA        -46.9296  -22.7354    7.4540 C.3       3 UNK         0.0299 
     73 CB        -46.0922  -21.6443    6.7682 C.3       3 UNK        -0.1972 
     74 N         -46.8689  -23.9764    6.6713 N.am      3 UNK        -0.4305 
     75 C         -47.5224  -25.1021    6.9851 C.2       2 UNK         0.5006 
     76 O         -48.1876  -25.2477    8.0160 O.2       2 UNK        -0.5106 
     77 CA        -47.4106  -26.2740    6.0057 C.3       2 UNK         0.0296 
     78 CB        -46.1137  -27.0693    6.2436 C.3       2 UNK        -0.2002 
     79 N         -48.5740  -27.1100    6.2601 N.am      2 UNK        -0.4032 
     80 C         -49.0922  -28.0665    5.4879 C.2       1 UNK         0.5000 
     81 O         -48.6109  -28.4315    4.4115 O.2       1 UNK        -0.5238 
     82 H82       -53.7017  -29.3928    3.1512 H         1 UNK         0.0889 
     83 H83       -52.4564  -30.6410    3.2285 H         1 UNK         0.0889 
     84 H84       -52.3000  -29.3102    2.0800 H         1 UNK         0.0889 
     85 H85       -51.1096  -30.3930    4.9990 H         1 UNK         0.3028 
     86 H86       -50.9607  -27.9429    6.5022 H         1 UNK         0.0864 
     87 H87       -49.1407  -29.3592    7.8063 H         1 UNK         0.0720 
     88 H88       -49.6088  -30.6693    6.7725 H         1 UNK         0.0720 
     89 H89       -50.2270  -28.2933    9.4666 H         1 UNK         0.0814 
     90 H90       -51.1026  -29.3219   10.5596 H         1 UNK         0.0814 
     91 H91       -51.2327  -26.3042    8.5203 H         1 UNK         0.1469 
     92 H92       -55.2488  -25.2939    9.6317 H         1 UNK         0.1381 
     93 H93       -53.6375  -29.1173   10.6807 H         1 UNK         0.1206 
     94 H94       -56.6617  -26.8772   10.7491 H         1 UNK         0.0813 
     95 H95       -55.7015  -27.6725   11.9704 H         1 UNK         0.0813 
     96 H96       -58.3519  -29.3346   11.8980 H         1 UNK         0.0638 
     97 H97       -57.7417  -30.9217   11.5291 H         1 UNK         0.0638 
     98 H98       -56.6139  -28.9027   13.5080 H         1 UNK         0.0568 
     99 H99       -57.3068  -31.7573   15.9658 H         1 UNK         0.3450 
    100 H100      -55.7819  -31.3425   15.2204 H         1 UNK         0.3450 
    101 H101      -54.5740  -29.6264   13.3084 H         1 UNK         0.2987 
    102 H102      -53.0032  -32.5791   13.0710 H         1 UNK         0.0766 
    103 H103      -53.2578  -31.3036   10.3036 H         1 UNK         0.0798 
    104 H104      -53.3346  -33.0057   10.7054 H         1 UNK         0.0798 
    105 H105      -51.8167  -32.1440   10.8792 H         1 UNK         0.0798 
    106 H106      -52.2862  -29.8360   12.2273 H         1 UNK         0.3198 
    107 H107      -51.2516  -28.9691   15.5284 H         1 UNK         0.0843 
    108 H108      -49.1024  -28.5583   14.4306 H         1 UNK         0.0831 
    109 H109      -49.6064  -29.4429   12.9919 H         1 UNK         0.0831 
    110 H110      -49.3653  -30.2917   14.5145 H         1 UNK         0.0831 
    111 H111      -50.9025  -27.2270   13.5882 H         1 UNK         0.3133 
    112 H112      -52.5178  -25.6335   12.6561 H         1 UNK         0.0566 
    113 H113      -54.4658  -24.2233   13.4650 H         1 UNK         0.0814 
    114 H114      -54.9461  -25.6801   12.6341 H         1 UNK         0.0814 
    115 H115      -55.0430  -25.6086   14.3884 H         1 UNK         0.0814 
    116 H116      -51.5678  -24.4400   14.2725 H         1 UNK         0.3091 
    117 H117      -51.9785  -23.2311   16.7474 H         1 UNK         0.0702 
    118 H118      -50.9569  -23.9383   18.9207 H         1 UNK         0.0785 
    119 H119      -51.1966  -25.6303   18.4855 H         1 UNK         0.0785 
    120 H120      -52.5810  -24.5754   18.7333 H         1 UNK         0.0785 
    121 H121      -49.8387  -23.1761   16.1760 H         1 UNK         0.2998 
    122 H122      -47.4233  -24.1233   16.5547 H         1 UNK         0.0697 
    123 H123      -45.9469  -25.5315   15.1241 H         1 UNK         0.0825 
    124 H124      -46.8552  -26.5193   16.2555 H         1 UNK         0.0825 
    125 H125      -47.3456  -26.4506   14.5686 H         1 UNK         0.0825 
    126 H126      -47.5477  -24.1404   13.6819 H         1 UNK         0.3029 
    127 H127      -49.1342  -20.9653   13.3177 H         1 UNK         0.0897 
    128 H128      -47.1395  -20.5227   11.9129 H         1 UNK         0.0792 
    129 H129      -46.7109  -20.4301   13.6136 H         1 UNK         0.0792 
    130 H130      -46.2703  -21.8515   12.6776 H         1 UNK         0.0792 
    131 H131      -48.2171  -22.7220   11.3248 H         1 UNK         0.3086 
    132 H132      -51.1221  -24.8486   11.1435 H         1 UNK         0.0583 
    133 H133      -50.0668  -22.5199    9.4914 H         1 UNK         0.1020 
    134 H134      -50.4015  -24.0283    8.7140 H         1 UNK         0.1020 
    135 H135      -54.0276  -23.9462    7.9810 H         1 UNK         0.0694 
    136 H136      -52.4083  -24.3498    7.4868 H         1 UNK         0.0694 
    137 H137      -48.5821  -24.9570    9.8571 H         1 UNK         0.2989 
    138 H138      -47.0271  -27.0897   12.2227 H         1 UNK         0.1055 
    139 H139      -47.9506  -27.7261    9.3720 H         1 UNK         0.0806 
    140 H140      -48.3014  -28.6984   10.8036 H         1 UNK         0.0806 
    141 H141      -46.6489  -28.5236   10.2476 H         1 UNK         0.0806 
    142 H142      -46.2764  -25.9558    9.6623 H         1 UNK         0.3061 
    143 H143      -44.7727  -23.0203   11.0290 H         1 UNK         0.0734 
    144 H144      -42.8003  -23.9590    9.8598 H         1 UNK         0.0832 
    145 H145      -43.0974  -24.8467   11.3443 H         1 UNK         0.0832 
    146 H146      -43.5531  -25.5536    9.8009 H         1 UNK         0.0832 
    147 H147      -44.9111  -24.0185    8.3607 H         1 UNK         0.3156 
    148 H148      -47.9714  -22.4077    7.4556 H         1 UNK         0.0589 
    149 H149      -45.0420  -21.9276    6.6874 H         1 UNK         0.0808 
    150 H150      -46.4613  -21.4325    5.7645 H         1 UNK         0.0808 
    151 H151      -46.1350  -20.7096    7.3295 H         1 UNK         0.0808 
    152 H152      -46.3376  -23.9458    5.8126 H         1 UNK         0.3098 
    153 H153      -47.4489  -25.8987    4.9813 H         1 UNK         0.0720 
    154 H154      -46.0586  -27.4566    7.2618 H         1 UNK         0.0791 
    155 H155      -45.2341  -26.4456    6.0811 H         1 UNK         0.0791 
    156 H156      -46.0366  -27.9163    5.5617 H         1 UNK         0.0791 
    157 H157      -49.0407  -26.8480    7.1199 H         1 UNK         0.3028 
@<TRIPOS>BOND
     1    1    2 1    
     2    1   82 1    
     3    1   83 1    
     4    1   84 1    
     5    2    3 2    
     6    2    4 am   BACKBONE|DICT|INTERRES
     7    4    5 1    
     8    4   85 1    
     9    5    6 1    
    10    5   80 1    
    11    5   86 1    
    12    6    7 1    
    13    6   87 1    
    14    6   88 1    
    15    7    8 1    
    16    8    9 1    
    17    8   89 1    
    18    8   90 1    
    19    9   10 ar   
    20    9   14 ar   
    21   10   11 ar   
    22   10   91 1    
    23   11   12 ar   
    24   11   58 1    
    25   12   13 ar   
    26   12   92 1    
    27   13   14 ar   
    28   13   15 1    
    29   14   93 1    
    30   15   16 1    
    31   15   94 1    
    32   15   95 1    
    33   16   17 1    
    34   17   18 1    
    35   17   96 1    
    36   17   97 1    
    37   18   19 1    
    38   18   22 1    
    39   18   98 1    
    40   19   20 am   BACKBONE|DICT|INTERRES
    41   19   21 2    
    42   20   99 1    
    43   20  100 1    
    44   22   23 am   BACKBONE|DICT|INTERRES
    45   22  101 1    
    46   23   24 2    
    47   23   25 1    
    48   25   26 1    
    49   25   27 1    
    50   25  102 1    
    51   26  103 1    
    52   26  104 1    
    53   26  105 1    
    54   27   28 am   BACKBONE|DICT|INTERRES
    55   27  106 1    
    56   28   29 2    
    57   28   30 1    
    58   30   31 1    
    59   30   32 1    
    60   30  107 1    
    61   31  108 1    
    62   31  109 1    
    63   31  110 1    
    64   32   33 am   BACKBONE|DICT|INTERRES
    65   32  111 1    
    66   33   34 2    
    67   33   35 1    
    68   35   36 1    
    69   35   37 1    
    70   35  112 1    
    71   36  113 1    
    72   36  114 1    
    73   36  115 1    
    74   37   38 am   BACKBONE|DICT|INTERRES
    75   37  116 1    
    76   38   39 2    
    77   38   40 1    
    78   40   41 1    
    79   40   42 1    
    80   40  117 1    
    81   41  118 1    
    82   41  119 1    
    83   41  120 1    
    84   42   43 am   BACKBONE|DICT|INTERRES
    85   42  121 1    
    86   43   44 2    
    87   43   45 1    
    88   45   46 1    
    89   45   47 1    
    90   45  122 1    
    91   46  123 1    
    92   46  124 1    
    93   46  125 1    
    94   47   48 am   BACKBONE|DICT|INTERRES
    95   47  126 1    
    96   48   49 2    
    97   48   50 1    
    98   50   51 1    
    99   50   52 1    
   100   50  127 1    
   101   51  128 1    
   102   51  129 1    
   103   51  130 1    
   104   52   53 am   BACKBONE|DICT|INTERRES
   105   52  131 1    
   106   53   54 2    
   107   53   55 1    
   108   55   56 1    
   109   55   59 1    
   110   55  132 1    
   111   56   57 1    
   112   56  133 1    
   113   56  134 1    
   114   57   58 1    
   115   58  135 1    
   116   58  136 1    
   117   59   60 am   BACKBONE|DICT|INTERRES
   118   59  137 1    
   119   60   61 2    
   120   60   62 1    
   121   62   63 1    
   122   62   64 1    
   123   62  138 1    
   124   63  139 1    
   125   63  140 1    
   126   63  141 1    
   127   64   65 am   BACKBONE|DICT|INTERRES
   128   64  142 1    
   129   65   66 2    
   130   65   67 1    
   131   67   68 1    
   132   67   69 1    
   133   67  143 1    
   134   68  144 1    
   135   68  145 1    
   136   68  146 1    
   137   69   70 am   BACKBONE|DICT|INTERRES
   138   69  147 1    
   139   70   71 2    
   140   70   72 1    
   141   72   73 1    
   142   72   74 1    
   143   72  148 1    
   144   73  149 1    
   145   73  150 1    
   146   73  151 1    
   147   74   75 am   BACKBONE|DICT|INTERRES
   148   74  152 1    
   149   75   76 2    
   150   75   77 1    
   151   77   78 1    
   152   77   79 1    
   153   77  153 1    
   154   78  154 1    
   155   78  155 1    
   156   78  156 1    
   157   79   80 am   BACKBONE|DICT|INTERRES
   158   79  157 1    
   159   80   81 2    
@<TRIPOS>SUBSTRUCTURE
     1 UNK         1 GROUP             0       ****    0 ROOT    
