@<TRIPOS>MOLECULE
3R207
157   159    1
SMALL
USER_CHARGES


@<TRIPOS>ATOM
      1 CA        -49.8976  -29.6239    0.6417 C.3       0 UNK        -0.1975 
      2 C         -49.7238  -28.9840    2.0115 C.2       0 UNK         0.4852 
      3 O         -49.9807  -27.7889    2.1646 O.2       0 UNK        -0.5216 
      4 N         -49.2984  -29.7715    3.0080 N.am      1 UNK        -0.4461 
      5 CA        -49.0077  -29.3111    4.3694 C.3       1 UNK         0.0864 
      6 C6        -49.0453  -30.4928    5.3739 C.3       14 UNK        -0.0898 
      7 S7        -49.5156  -29.9542    7.0501 S.3       14 UNK        -0.2598 
      8 C8        -51.3329  -29.9735    6.9315 C.3       14 UNK         0.0286 
      9 C9        -51.9375  -28.7776    7.6501 C.ar      14 UNK        -0.0844 
     10 C10       -51.8797  -27.5114    7.0599 C.ar      14 UNK        -0.0881 
     11 C11       -52.4185  -26.3976    7.7095 C.ar      14 UNK        -0.0643 
     12 C12       -53.0503  -26.5629    8.9431 C.ar      14 UNK        -0.0930 
     13 C13       -53.1078  -27.8217    9.5478 C.ar      14 UNK        -0.0827 
     14 C14       -52.5479  -28.9273    8.8996 C.ar      14 UNK        -0.1249 
     15 C15       -53.7285  -27.9619   10.9262 C.3       14 UNK         0.0141 
     16 S16       -55.4591  -28.5122   10.8631 S.3       14 UNK        -0.2313 
     17 C17       -55.3216  -30.2935   11.2555 C.3       14 UNK        -0.0915 
     18 CA        -55.3431  -30.6271   12.7782 C.3       13 UNK         0.0968 
     19 C         -53.9203  -30.5732   13.4122 C.2       13 UNK         0.5732 
     20 N         -53.6429  -29.7235   14.3941 N.am      13 UNK        -0.7310 
     21 O         -53.0449  -31.3320   13.0031 O.2       13 UNK        -0.5035 
     22 N         -56.3770  -29.8602   13.4887 N.am      13 UNK        -0.4233 
     23 C         -56.8710  -30.1475   14.6967 C.2       13 UNK         0.4989 
     24 O         -56.6107  -31.1714   15.3322 O.2       13 UNK        -0.4996 
     25 CA        -57.8109  -29.0903   15.3035 C.3       12 UNK         0.0216 
     26 CB        -59.2275  -29.6598   15.4893 C.3       12 UNK        -0.1964 
     27 N         -57.3218  -28.5694   16.5846 N.am      12 UNK        -0.4276 
     28 C         -56.1218  -28.0093   16.7905 C.2       12 UNK         0.5020 
     29 O         -55.2601  -27.8775   15.9141 O.2       12 UNK        -0.5489 
     30 CA        -55.8348  -27.5168   18.2162 C.3       11 UNK         0.0294 
     31 CB        -55.6338  -28.6943   19.1866 C.3       11 UNK        -0.2019 
     32 N         -54.6178  -26.7140   18.1801 N.am      11 UNK        -0.4493 
     33 C         -54.3947  -25.5636   18.8240 C.2       11 UNK         0.4932 
     34 O         -55.1865  -25.0662   19.6256 O.2       11 UNK        -0.5029 
     35 CA        -53.0606  -24.8419   18.5368 C.3       10 UNK         0.0280 
     36 CB        -52.1444  -24.8910   19.7708 C.3       10 UNK        -0.1976 
     37 N         -52.3345  -25.3946   17.3883 N.am      10 UNK        -0.4242 
     38 C         -52.6607  -25.2157   16.1026 C.2       10 UNK         0.5072 
     39 O         -53.5551  -24.4575   15.7230 O.2       10 UNK        -0.5224 
     40 CA        -51.8579  -26.0489   15.0860 C.3       9 UNK         0.0343 
     41 CB        -52.5895  -26.1937   13.7451 C.3       9 UNK        -0.2003 
     42 N         -50.5206  -25.5094   14.8408 N.am      9 UNK        -0.4272 
     43 C         -49.4967  -25.5554   15.7034 C.2       9 UNK         0.4988 
     44 O         -49.5791  -26.0612   16.8247 O.2       9 UNK        -0.5108 
     45 CA        -48.1432  -24.9766   15.2510 C.3       8 UNK         0.0248 
     46 CB        -47.1450  -26.1163   14.9887 C.3       8 UNK        -0.2001 
     47 N         -48.2101  -24.1135   14.0661 N.am      8 UNK        -0.4140 
     48 C         -48.7341  -22.8795   14.0492 C.2       8 UNK         0.5028 
     49 O         -49.2359  -22.3370   15.0344 O.2       8 UNK        -0.5428 
     50 CA        -48.6946  -22.1177   12.7124 C.3       7 UNK         0.0264 
     51 CB        -47.3200  -21.4627   12.5015 C.3       7 UNK        -0.1988 
     52 N         -49.0198  -22.9538   11.5542 N.am      7 UNK        -0.4454 
     53 C         -50.2275  -23.4862   11.3116 C.2       7 UNK         0.5027 
     54 O         -51.2088  -23.3094   12.0333 O.2       7 UNK        -0.5083 
     55 CA        -50.3557  -24.3820   10.0604 C.3       6 UNK         0.0844 
     56 C56       -50.5810  -23.5046    8.7994 C.3       14 UNK        -0.0967 
     57 S57       -50.5919  -24.3933    7.2048 S.3       14 UNK        -0.2604 
     58 C58       -52.2969  -25.0186    7.0810 C.3       14 UNK         0.0134 
     59 N         -49.2315  -25.3191    9.9531 N.am      6 UNK        -0.4116 
     60 C         -48.9436  -26.2578   10.8703 C.2       5 UNK         0.5034 
     61 O         -49.6363  -26.4905   11.8604 O.2       5 UNK        -0.5045 
     62 CA        -47.6237  -27.0234   10.7002 C.3       5 UNK         0.0224 
     63 CB        -47.7987  -28.2372    9.7756 C.3       5 UNK        -0.1978 
     64 N         -46.5513  -26.1571   10.2065 N.am      5 UNK        -0.4737 
     65 C         -45.9655  -25.2015   10.9426 C.2       4 UNK         0.5027 
     66 O         -46.2402  -24.9866   12.1214 O.2       4 UNK        -0.5211 
     67 CA        -44.9331  -24.3052   10.2391 C.3       4 UNK         0.0297 
     68 CB        -43.5455  -24.9650   10.2563 C.3       4 UNK        -0.1993 
     69 N         -45.3084  -23.9843    8.8614 N.am      4 UNK        -0.4486 
     70 C         -46.3892  -23.2713    8.5143 C.2       3 UNK         0.4961 
     71 O         -47.1539  -22.7463    9.3238 O.2       3 UNK        -0.5105 
     72 CA        -46.6962  -23.1760    7.0092 C.3       3 UNK         0.0299 
     73 CB        -45.9858  -21.9619    6.3909 C.3       3 UNK        -0.1972 
     74 N         -46.3503  -24.3894    6.2551 N.am      3 UNK        -0.4305 
     75 C         -46.8675  -25.6026    6.4934 C.2       2 UNK         0.5006 
     76 O         -47.6514  -25.8460    7.4120 O.2       2 UNK        -0.5106 
     77 CA        -46.3991  -26.7522    5.6008 C.3       2 UNK         0.0296 
     78 CB        -45.2225  -27.5004    6.2552 C.3       2 UNK        -0.2002 
     79 N         -47.5323  -27.6520    5.4115 N.am      2 UNK        -0.4032 
     80 C         -47.6711  -28.5364    4.4187 C.2       1 UNK         0.5000 
     81 O         -46.7983  -28.7559    3.5725 O.2       1 UNK        -0.5238 
     82 H82       -49.2512  -29.1332   -0.0856 H         1 UNK         0.0889 
     83 H83       -50.9292  -29.5194    0.3068 H         1 UNK         0.0889 
     84 H84       -49.6507  -30.6855    0.6528 H         1 UNK         0.0889 
     85 H85       -49.0656  -30.7345    2.8119 H         1 UNK         0.3028 
     86 H86       -49.8004  -28.6078    4.6342 H         1 UNK         0.0864 
     87 H87       -49.7665  -31.2483    5.0566 H         1 UNK         0.0720 
     88 H88       -48.0842  -31.0090    5.4201 H         1 UNK         0.0720 
     89 H89       -51.7092  -30.9097    7.3465 H         1 UNK         0.0814 
     90 H90       -51.6482  -29.9533    5.8872 H         1 UNK         0.0814 
     91 H91       -51.3933  -27.3848    6.1029 H         1 UNK         0.1469 
     92 H92       -53.4726  -25.7045    9.4473 H         1 UNK         0.1381 
     93 H93       -52.5819  -29.8999    9.3708 H         1 UNK         0.1206 
     94 H94       -53.7179  -26.9928   11.4226 H         1 UNK         0.0813 
     95 H95       -53.1220  -28.6257   11.5414 H         1 UNK         0.0813 
     96 H96       -54.4464  -30.7147   10.7578 H         1 UNK         0.0638 
     97 H97       -56.1765  -30.7789   10.7827 H         1 UNK         0.0638 
     98 H98       -55.6330  -31.6763   12.8595 H         1 UNK         0.0568 
     99 H99       -52.7159  -29.7261   14.7850 H         1 UNK         0.3450 
    100 H100      -54.3468  -29.0976   14.7760 H         1 UNK         0.3450 
    101 H101      -56.6293  -28.9865   13.0500 H         1 UNK         0.2987 
    102 H102      -57.8762  -28.2429   14.6176 H         1 UNK         0.0766 
    103 H103      -59.9210  -28.8967   15.8434 H         1 UNK         0.0798 
    104 H104      -59.2408  -30.4845   16.2033 H         1 UNK         0.0798 
    105 H105      -59.6217  -30.0403   14.5459 H         1 UNK         0.0798 
    106 H106      -57.9493  -28.6595   17.3705 H         1 UNK         0.3198 
    107 H107      -56.6787  -26.9052   18.5430 H         1 UNK         0.0843 
    108 H108      -54.8217  -29.3473   18.8639 H         1 UNK         0.0831 
    109 H109      -56.5339  -29.3053   19.2619 H         1 UNK         0.0831 
    110 H110      -55.3994  -28.3420   20.1914 H         1 UNK         0.0831 
    111 H111      -53.9646  -27.0000   17.4626 H         1 UNK         0.3133 
    112 H112      -53.2937  -23.7963   18.3256 H         1 UNK         0.0566 
    113 H113      -51.2213  -24.3358   19.6023 H         1 UNK         0.0814 
    114 H114      -52.6332  -24.4475   20.6395 H         1 UNK         0.0814 
    115 H115      -51.8774  -25.9152   20.0347 H         1 UNK         0.0814 
    116 H116      -51.5148  -25.9591   17.5864 H         1 UNK         0.3091 
    117 H117      -51.7483  -27.0536   15.5001 H         1 UNK         0.0702 
    118 H118      -52.0410  -26.8582   13.0782 H         1 UNK         0.0785 
    119 H119      -52.7114  -25.2344   13.2413 H         1 UNK         0.0785 
    120 H120      -53.5835  -26.6202   13.8890 H         1 UNK         0.0785 
    121 H121      -50.3641  -25.0892   13.9346 H         1 UNK         0.2998 
    122 H122      -47.7604  -24.3778   16.0799 H         1 UNK         0.0697 
    123 H123      -47.4573  -26.7357   14.1471 H         1 UNK         0.0825 
    124 H124      -47.0526  -26.7683   15.8585 H         1 UNK         0.0825 
    125 H125      -46.1496  -25.7296   14.7700 H         1 UNK         0.0825 
    126 H126      -47.7454  -24.4586   13.2298 H         1 UNK         0.3029 
    127 H127      -49.4422  -21.3233   12.7667 H         1 UNK         0.0897 
    128 H128      -47.3051  -20.8554   11.5962 H         1 UNK         0.0792 
    129 H129      -47.0669  -20.8078   13.3364 H         1 UNK         0.0792 
    130 H130      -46.5268  -22.2062   12.4170 H         1 UNK         0.0792 
    131 H131      -48.2809  -23.0925   10.8688 H         1 UNK         0.3086 
    132 H132      -51.2483  -24.9900   10.2049 H         1 UNK         0.0583 
    133 H133      -51.5144  -22.9464    8.8930 H         1 UNK         0.1020 
    134 H134      -49.7971  -22.7487    8.7237 H         1 UNK         0.1020 
    135 H135      -52.9932  -24.3119    7.5347 H         1 UNK         0.0694 
    136 H136      -52.5703  -25.0825    6.0268 H         1 UNK         0.0694 
    137 H137      -48.6449  -25.2423    9.1288 H         1 UNK         0.2989 
    138 H138      -47.3310  -27.3942   11.6851 H         1 UNK         0.1055 
    139 H139      -48.5533  -28.9190   10.1704 H         1 UNK         0.0806 
    140 H140      -46.8717  -28.8012    9.6751 H         1 UNK         0.0806 
    141 H141      -48.1248  -27.9455    8.7785 H         1 UNK         0.0806 
    142 H142      -46.3454  -26.2101    9.2182 H         1 UNK         0.3061 
    143 H143      -44.8736  -23.3679   10.7966 H         1 UNK         0.0734 
    144 H144      -42.7868  -24.3064    9.8332 H         1 UNK         0.0832 
    145 H145      -43.2382  -25.1957   11.2774 H         1 UNK         0.0832 
    146 H146      -43.5328  -25.8996    9.6940 H         1 UNK         0.0832 
    147 H147      -44.7363  -24.3721    8.1258 H         1 UNK         0.3156 
    148 H148      -47.7730  -23.0260    6.9080 H         1 UNK         0.0589 
    149 H149      -44.9005  -22.0645    6.4277 H         1 UNK         0.0808 
    150 H150      -46.2759  -21.8194    5.3497 H         1 UNK         0.0808 
    151 H151      -46.2447  -21.0461    6.9245 H         1 UNK         0.0808 
    152 H152      -45.7011  -24.2777    5.4891 H         1 UNK         0.3098 
    153 H153      -46.0927  -26.3509    4.6324 H         1 UNK         0.0720 
    154 H154      -44.8642  -28.3111    5.6207 H         1 UNK         0.0791 
    155 H155      -45.5055  -27.9310    7.2168 H         1 UNK         0.0791 
    156 H156      -44.3788  -26.8316    6.4295 H         1 UNK         0.0791 
    157 H157      -48.2771  -27.5228    6.0868 H         1 UNK         0.3028 
@<TRIPOS>BOND
     1    1    2 1    
     2    1   82 1    
     3    1   83 1    
     4    1   84 1    
     5    2    3 2    
     6    2    4 am   BACKBONE|DICT|INTERRES
     7    4    5 1    
     8    4   85 1    
     9    5    6 1    
    10    5   80 1    
    11    5   86 1    
    12    6    7 1    
    13    6   87 1    
    14    6   88 1    
    15    7    8 1    
    16    8    9 1    
    17    8   89 1    
    18    8   90 1    
    19    9   10 ar   
    20    9   14 ar   
    21   10   11 ar   
    22   10   91 1    
    23   11   12 ar   
    24   11   58 1    
    25   12   13 ar   
    26   12   92 1    
    27   13   14 ar   
    28   13   15 1    
    29   14   93 1    
    30   15   16 1    
    31   15   94 1    
    32   15   95 1    
    33   16   17 1    
    34   17   18 1    
    35   17   96 1    
    36   17   97 1    
    37   18   19 1    
    38   18   22 1    
    39   18   98 1    
    40   19   20 am   BACKBONE|DICT|INTERRES
    41   19   21 2    
    42   20   99 1    
    43   20  100 1    
    44   22   23 am   BACKBONE|DICT|INTERRES
    45   22  101 1    
    46   23   24 2    
    47   23   25 1    
    48   25   26 1    
    49   25   27 1    
    50   25  102 1    
    51   26  103 1    
    52   26  104 1    
    53   26  105 1    
    54   27   28 am   BACKBONE|DICT|INTERRES
    55   27  106 1    
    56   28   29 2    
    57   28   30 1    
    58   30   31 1    
    59   30   32 1    
    60   30  107 1    
    61   31  108 1    
    62   31  109 1    
    63   31  110 1    
    64   32   33 am   BACKBONE|DICT|INTERRES
    65   32  111 1    
    66   33   34 2    
    67   33   35 1    
    68   35   36 1    
    69   35   37 1    
    70   35  112 1    
    71   36  113 1    
    72   36  114 1    
    73   36  115 1    
    74   37   38 am   BACKBONE|DICT|INTERRES
    75   37  116 1    
    76   38   39 2    
    77   38   40 1    
    78   40   41 1    
    79   40   42 1    
    80   40  117 1    
    81   41  118 1    
    82   41  119 1    
    83   41  120 1    
    84   42   43 am   BACKBONE|DICT|INTERRES
    85   42  121 1    
    86   43   44 2    
    87   43   45 1    
    88   45   46 1    
    89   45   47 1    
    90   45  122 1    
    91   46  123 1    
    92   46  124 1    
    93   46  125 1    
    94   47   48 am   BACKBONE|DICT|INTERRES
    95   47  126 1    
    96   48   49 2    
    97   48   50 1    
    98   50   51 1    
    99   50   52 1    
   100   50  127 1    
   101   51  128 1    
   102   51  129 1    
   103   51  130 1    
   104   52   53 am   BACKBONE|DICT|INTERRES
   105   52  131 1    
   106   53   54 2    
   107   53   55 1    
   108   55   56 1    
   109   55   59 1    
   110   55  132 1    
   111   56   57 1    
   112   56  133 1    
   113   56  134 1    
   114   57   58 1    
   115   58  135 1    
   116   58  136 1    
   117   59   60 am   BACKBONE|DICT|INTERRES
   118   59  137 1    
   119   60   61 2    
   120   60   62 1    
   121   62   63 1    
   122   62   64 1    
   123   62  138 1    
   124   63  139 1    
   125   63  140 1    
   126   63  141 1    
   127   64   65 am   BACKBONE|DICT|INTERRES
   128   64  142 1    
   129   65   66 2    
   130   65   67 1    
   131   67   68 1    
   132   67   69 1    
   133   67  143 1    
   134   68  144 1    
   135   68  145 1    
   136   68  146 1    
   137   69   70 am   BACKBONE|DICT|INTERRES
   138   69  147 1    
   139   70   71 2    
   140   70   72 1    
   141   72   73 1    
   142   72   74 1    
   143   72  148 1    
   144   73  149 1    
   145   73  150 1    
   146   73  151 1    
   147   74   75 am   BACKBONE|DICT|INTERRES
   148   74  152 1    
   149   75   76 2    
   150   75   77 1    
   151   77   78 1    
   152   77   79 1    
   153   77  153 1    
   154   78  154 1    
   155   78  155 1    
   156   78  156 1    
   157   79   80 am   BACKBONE|DICT|INTERRES
   158   79  157 1    
   159   80   81 2    
@<TRIPOS>SUBSTRUCTURE
     1 UNK         1 GROUP             0       ****    0 ROOT    
