@<TRIPOS>MOLECULE
3R207
157   159    1
SMALL
USER_CHARGES


@<TRIPOS>ATOM
      1 CA        -45.3180  -29.5764    7.3708 C.3       0 UNK        -0.1975 
      2 C         -46.2236  -28.6773    6.5437 C.2       0 UNK         0.4852 
      3 O         -45.7299  -27.8643    5.7608 O.2       0 UNK        -0.5216 
      4 N         -47.5474  -28.8086    6.7118 N.am      1 UNK        -0.4461 
      5 CA        -48.5554  -27.9894    6.0304 C.3       1 UNK         0.0864 
      6 C6        -49.9894  -28.5015    6.3022 C.3       14 UNK        -0.0898 
      7 S7        -51.1790  -27.9342    5.0411 S.3       14 UNK        -0.2598 
      8 C8        -52.7572  -28.5173    5.7440 C.3       14 UNK         0.0286 
      9 C9        -53.0440  -27.8851    7.0984 C.ar      14 UNK        -0.0844 
     10 C10       -53.3451  -26.5223    7.1863 C.ar      14 UNK        -0.0881 
     11 C11       -53.5504  -25.9214    8.4313 C.ar      14 UNK        -0.0643 
     12 C12       -53.4943  -26.7072    9.5864 C.ar      14 UNK        -0.0930 
     13 C13       -53.1903  -28.0669    9.5153 C.ar      14 UNK        -0.0827 
     14 C14       -52.9730  -28.6539    8.2655 C.ar      14 UNK        -0.1249 
     15 C15       -53.0397  -28.8812   10.7917 C.3       14 UNK         0.0141 
     16 S16       -54.6383  -29.2086   11.5962 S.3       14 UNK        -0.2313 
     17 C17       -54.1574  -30.6197   12.6385 C.3       14 UNK        -0.0915 
     18 CA        -55.2545  -31.0343   13.6531 C.3       13 UNK         0.0968 
     19 C         -55.0057  -32.4965   14.1235 C.2       13 UNK         0.5732 
     20 N         -55.6206  -33.4726   13.4696 N.am      13 UNK        -0.7310 
     21 O         -54.2291  -32.7532   15.0423 O.2       13 UNK        -0.5035 
     22 N         -55.3356  -30.0934   14.7840 N.am      13 UNK        -0.4233 
     23 C         -56.2359  -30.1867   15.7735 C.2       13 UNK         0.4989 
     24 O         -57.2228  -30.9232   15.7308 O.2       13 UNK        -0.4996 
     25 CA        -55.9958  -29.3525   17.0391 C.3       12 UNK         0.0216 
     26 CB        -54.8791  -29.9812   17.8909 C.3       12 UNK        -0.1964 
     27 N         -55.6483  -27.9629   16.7406 N.am      12 UNK        -0.4276 
     28 C         -56.3113  -26.8942   17.2066 C.2       12 UNK         0.5020 
     29 O         -57.3294  -26.9690   17.8970 O.2       12 UNK        -0.5489 
     30 CA        -55.7461  -25.4957   16.8858 C.3       11 UNK         0.0294 
     31 CB        -55.0613  -24.8983   18.1265 C.3       11 UNK        -0.2019 
     32 N         -54.7978  -25.4828   15.7718 N.am      11 UNK        -0.4493 
     33 C         -55.1312  -25.6577   14.4873 C.2       11 UNK         0.4932 
     34 O         -56.2917  -25.7662   14.0915 O.2       11 UNK        -0.5029 
     35 CA        -53.9798  -25.7436   13.4707 C.3       10 UNK         0.0280 
     36 CB        -53.7815  -24.3825   12.7888 C.3       10 UNK        -0.1976 
     37 N         -52.6876  -26.2051   13.9968 N.am      10 UNK        -0.4242 
     38 C         -52.4590  -27.3455   14.6643 C.2       10 UNK         0.5072 
     39 O         -53.3509  -28.1167   15.0216 O.2       10 UNK        -0.5224 
     40 CA        -51.0047  -27.6999   15.0075 C.3       9 UNK         0.0343 
     41 CB        -50.5740  -28.9655   14.2459 C.3       9 UNK        -0.2003 
     42 N         -50.0524  -26.6235   14.7057 N.am      9 UNK        -0.4272 
     43 C         -49.3058  -25.9965   15.6245 C.2       9 UNK         0.4988 
     44 O         -49.4460  -26.1478   16.8389 O.2       9 UNK        -0.5108 
     45 CA        -48.1693  -25.0894   15.1248 C.3       8 UNK         0.0248 
     46 CB        -46.9045  -25.9261   14.8674 C.3       8 UNK        -0.2001 
     47 N         -48.4748  -24.3128   13.9225 N.am      8 UNK        -0.4140 
     48 C         -49.2125  -23.1939   13.9077 C.2       8 UNK         0.5028 
     49 O         -49.8571  -22.7856   14.8738 O.2       8 UNK        -0.5428 
     50 CA        -49.2073  -22.3765   12.6055 C.3       7 UNK         0.0264 
     51 CB        -47.8711  -21.6339   12.4335 C.3       7 UNK        -0.1988 
     52 N         -49.4346  -23.2442   11.4508 N.am      7 UNK        -0.4454 
     53 C         -50.5829  -23.2991   10.7620 C.2       7 UNK         0.5027 
     54 O         -51.5019  -22.4948   10.9206 O.2       7 UNK        -0.5083 
     55 CA        -50.7791  -24.4691    9.7700 C.3       6 UNK         0.0844 
     56 C56       -50.9094  -24.0105    8.2949 C.3       14 UNK        -0.0967 
     57 S57       -52.5393  -23.3815    7.7388 S.3       14 UNK        -0.2604 
     58 C58       -53.8100  -24.4225    8.5475 C.3       14 UNK         0.0134 
     59 N         -49.7951  -25.5486    9.9096 N.am      6 UNK        -0.4116 
     60 C         -49.7185  -26.3733   10.9605 C.2       5 UNK         0.5034 
     61 O         -50.4662  -26.3097   11.9349 O.2       5 UNK        -0.5045 
     62 CA        -48.5703  -27.3945   10.9737 C.3       5 UNK         0.0224 
     63 CB        -48.9943  -28.6948   10.2765 C.3       5 UNK        -0.1978 
     64 N         -47.3068  -26.9145   10.3985 N.am      5 UNK        -0.4737 
     65 C         -46.6461  -25.8145   10.7850 C.2       4 UNK         0.5027 
     66 O         -47.0950  -24.9917   11.5830 O.2       4 UNK        -0.5211 
     67 CA        -45.2472  -25.6098   10.2030 C.3       4 UNK         0.0297 
     68 CB        -44.3283  -26.8148   10.4912 C.3       4 UNK        -0.1993 
     69 N         -45.2964  -25.3164    8.7693 N.am      4 UNK        -0.4486 
     70 C         -44.3243  -24.6518    8.1247 C.2       3 UNK         0.4961 
     71 O         -43.3180  -24.2151    8.6860 O.2       3 UNK        -0.5105 
     72 CA        -44.4528  -24.4362    6.6059 C.3       3 UNK         0.0299 
     73 CB        -43.4472  -25.3227    5.8520 C.3       3 UNK        -0.1972 
     74 N         -45.7979  -24.6781    6.0833 N.am      3 UNK        -0.4305 
     75 C         -46.8013  -23.7897    6.1487 C.2       2 UNK         0.5006 
     76 O         -46.6943  -22.6802    6.6720 O.2       2 UNK        -0.5106 
     77 CA        -48.1549  -24.1865    5.5265 C.3       2 UNK         0.0296 
     78 CB        -48.3257  -23.5250    4.1494 C.3       2 UNK        -0.2002 
     79 N         -48.3678  -25.6300    5.3922 N.am      2 UNK        -0.4032 
     80 C         -48.3957  -26.5019    6.4078 C.2       1 UNK         0.5000 
     81 O         -48.2629  -26.1794    7.5929 O.2       1 UNK        -0.5238 
     82 H82       -44.8667  -30.3373    6.7348 H         1 UNK         0.0889 
     83 H83       -45.8618  -30.0775    8.1714 H         1 UNK         0.0889 
     84 H84       -44.5161  -28.9910    7.8192 H         1 UNK         0.0889 
     85 H85       -47.9006  -29.4935    7.3633 H         1 UNK         0.3028 
     86 H86       -48.3547  -28.0981    4.9619 H         1 UNK         0.0864 
     87 H87       -50.0102  -29.5924    6.2958 H         1 UNK         0.0720 
     88 H88       -50.3303  -28.1942    7.2914 H         1 UNK         0.0720 
     89 H89       -52.7363  -29.6057    5.8184 H         1 UNK         0.0814 
     90 H90       -53.5657  -28.2730    5.0537 H         1 UNK         0.0814 
     91 H91       -53.3821  -25.9213    6.2879 H         1 UNK         0.1469 
     92 H92       -53.6521  -26.2541   10.5526 H         1 UNK         0.1381 
     93 H93       -52.7245  -29.7045    8.2022 H         1 UNK         0.1206 
     94 H94       -52.5400  -29.8265   10.5744 H         1 UNK         0.0813 
     95 H95       -52.3954  -28.3460   11.4904 H         1 UNK         0.0813 
     96 H96       -53.2250  -30.3874   13.1558 H         1 UNK         0.0638 
     97 H97       -53.9299  -31.4409   11.9554 H         1 UNK         0.0638 
     98 H98       -56.2213  -31.0118   13.1463 H         1 UNK         0.0568 
     99 H99       -56.2491  -33.2745   12.7066 H         1 UNK         0.3450 
    100 H100      -55.4589  -34.4271   13.7503 H         1 UNK         0.3450 
    101 H101      -54.5535  -29.4504   14.8804 H         1 UNK         0.2987 
    102 H102      -56.9185  -29.3962   17.6216 H         1 UNK         0.0766 
    103 H103      -54.7676  -29.4602   18.8419 H         1 UNK         0.0798 
    104 H104      -53.9156  -29.9541   17.3799 H         1 UNK         0.0798 
    105 H105      -55.0995  -31.0255   18.1170 H         1 UNK         0.0798 
    106 H106      -54.8360  -27.8187   16.1454 H         1 UNK         0.3198 
    107 H107      -56.5920  -24.8571   16.6214 H         1 UNK         0.0843 
    108 H108      -54.2008  -25.4916   18.4385 H         1 UNK         0.0831 
    109 H109      -55.7509  -24.8573   18.9710 H         1 UNK         0.0831 
    110 H110      -54.7201  -23.8796   17.9414 H         1 UNK         0.0831 
    111 H111      -53.8188  -25.3944   16.0026 H         1 UNK         0.3133 
    112 H112      -54.2885  -26.4670   12.7163 H         1 UNK         0.0566 
    113 H113      -53.0419  -24.4456   11.9943 H         1 UNK         0.0814 
    114 H114      -54.7095  -24.0277   12.3380 H         1 UNK         0.0814 
    115 H115      -53.4474  -23.6208   13.4945 H         1 UNK         0.0814 
    116 H116      -51.8783  -25.6687   13.7181 H         1 UNK         0.3091 
    117 H117      -50.9914  -27.9350   16.0736 H         1 UNK         0.0702 
    118 H118      -49.5554  -29.2550   14.5044 H         1 UNK         0.0785 
    119 H119      -50.6178  -28.8231   13.1662 H         1 UNK         0.0785 
    120 H120      -51.2197  -29.8095   14.4918 H         1 UNK         0.0785 
    121 H121      -49.9203  -26.4129   13.7201 H         1 UNK         0.2998 
    122 H122      -47.9413  -24.3850   15.9279 H         1 UNK         0.0697 
    123 H123      -47.0504  -26.6419   14.0576 H         1 UNK         0.0825 
    124 H124      -46.6212  -26.4919   15.7562 H         1 UNK         0.0825 
    125 H125      -46.0569  -25.2931   14.6038 H         1 UNK         0.0825 
    126 H126      -47.9601  -24.5665   13.0806 H         1 UNK         0.3029 
    127 H127      -49.9965  -21.6257   12.6871 H         1 UNK         0.0897 
    128 H128      -47.8842  -21.0021   11.5453 H         1 UNK         0.0792 
    129 H129      -47.6718  -20.9866   13.2886 H         1 UNK         0.0792 
    130 H130      -47.0291  -22.3211   12.3404 H         1 UNK         0.0792 
    131 H131      -48.7203  -23.9428   11.2696 H         1 UNK         0.3086 
    132 H132      -51.7178  -24.9089   10.0809 H         1 UNK         0.0583 
    133 H133      -50.1525  -23.2590    8.0653 H         1 UNK         0.1020 
    134 H134      -50.6946  -24.8525    7.6352 H         1 UNK         0.1020 
    135 H135      -53.8924  -24.1190    9.5921 H         1 UNK         0.0694 
    136 H136      -54.7772  -24.2014    8.0947 H         1 UNK         0.0694 
    137 H137      -49.1446  -25.6893    9.1387 H         1 UNK         0.2989 
    138 H138      -48.3719  -27.6279   12.0218 H         1 UNK         0.1055 
    139 H139      -49.9316  -29.0741   10.6853 H         1 UNK         0.0806 
    140 H140      -48.2469  -29.4777   10.4059 H         1 UNK         0.0806 
    141 H141      -49.1427  -28.5431    9.2093 H         1 UNK         0.0806 
    142 H142      -46.8763  -27.5108    9.7084 H         1 UNK         0.3061 
    143 H143      -44.8312  -24.7423   10.7211 H         1 UNK         0.0734 
    144 H144      -43.2926  -26.5939   10.2327 H         1 UNK         0.0832 
    145 H145      -44.3441  -27.0739   11.5508 H         1 UNK         0.0832 
    146 H146      -44.6259  -27.7019    9.9327 H         1 UNK         0.0832 
    147 H147      -46.1323  -25.5953    8.2678 H         1 UNK         0.3156 
    148 H148      -44.1876  -23.3959    6.4047 H         1 UNK         0.0589 
    149 H149      -43.6009  -26.3811    6.0625 H         1 UNK         0.0808 
    150 H150      -43.5171  -25.1791    4.7737 H         1 UNK         0.0808 
    151 H151      -42.4237  -25.0830    6.1434 H         1 UNK         0.0808 
    152 H152      -45.9640  -25.5875    5.6686 H         1 UNK         0.3098 
    153 H153      -48.9341  -23.7991    6.1818 H         1 UNK         0.0720 
    154 H154      -49.3182  -23.7123    3.7388 H         1 UNK         0.0791 
    155 H155      -47.5891  -23.8892    3.4320 H         1 UNK         0.0791 
    156 H156      -48.2061  -22.4427    4.2179 H         1 UNK         0.0791 
    157 H157      -48.4841  -25.9798    4.4518 H         1 UNK         0.3028 
@<TRIPOS>BOND
     1    1    2 1    
     2    1   82 1    
     3    1   83 1    
     4    1   84 1    
     5    2    3 2    
     6    2    4 am   BACKBONE|DICT|INTERRES
     7    4    5 1    
     8    4   85 1    
     9    5    6 1    
    10    5   80 1    
    11    5   86 1    
    12    6    7 1    
    13    6   87 1    
    14    6   88 1    
    15    7    8 1    
    16    8    9 1    
    17    8   89 1    
    18    8   90 1    
    19    9   10 ar   
    20    9   14 ar   
    21   10   11 ar   
    22   10   91 1    
    23   11   12 ar   
    24   11   58 1    
    25   12   13 ar   
    26   12   92 1    
    27   13   14 ar   
    28   13   15 1    
    29   14   93 1    
    30   15   16 1    
    31   15   94 1    
    32   15   95 1    
    33   16   17 1    
    34   17   18 1    
    35   17   96 1    
    36   17   97 1    
    37   18   19 1    
    38   18   22 1    
    39   18   98 1    
    40   19   20 am   BACKBONE|DICT|INTERRES
    41   19   21 2    
    42   20   99 1    
    43   20  100 1    
    44   22   23 am   BACKBONE|DICT|INTERRES
    45   22  101 1    
    46   23   24 2    
    47   23   25 1    
    48   25   26 1    
    49   25   27 1    
    50   25  102 1    
    51   26  103 1    
    52   26  104 1    
    53   26  105 1    
    54   27   28 am   BACKBONE|DICT|INTERRES
    55   27  106 1    
    56   28   29 2    
    57   28   30 1    
    58   30   31 1    
    59   30   32 1    
    60   30  107 1    
    61   31  108 1    
    62   31  109 1    
    63   31  110 1    
    64   32   33 am   BACKBONE|DICT|INTERRES
    65   32  111 1    
    66   33   34 2    
    67   33   35 1    
    68   35   36 1    
    69   35   37 1    
    70   35  112 1    
    71   36  113 1    
    72   36  114 1    
    73   36  115 1    
    74   37   38 am   BACKBONE|DICT|INTERRES
    75   37  116 1    
    76   38   39 2    
    77   38   40 1    
    78   40   41 1    
    79   40   42 1    
    80   40  117 1    
    81   41  118 1    
    82   41  119 1    
    83   41  120 1    
    84   42   43 am   BACKBONE|DICT|INTERRES
    85   42  121 1    
    86   43   44 2    
    87   43   45 1    
    88   45   46 1    
    89   45   47 1    
    90   45  122 1    
    91   46  123 1    
    92   46  124 1    
    93   46  125 1    
    94   47   48 am   BACKBONE|DICT|INTERRES
    95   47  126 1    
    96   48   49 2    
    97   48   50 1    
    98   50   51 1    
    99   50   52 1    
   100   50  127 1    
   101   51  128 1    
   102   51  129 1    
   103   51  130 1    
   104   52   53 am   BACKBONE|DICT|INTERRES
   105   52  131 1    
   106   53   54 2    
   107   53   55 1    
   108   55   56 1    
   109   55   59 1    
   110   55  132 1    
   111   56   57 1    
   112   56  133 1    
   113   56  134 1    
   114   57   58 1    
   115   58  135 1    
   116   58  136 1    
   117   59   60 am   BACKBONE|DICT|INTERRES
   118   59  137 1    
   119   60   61 2    
   120   60   62 1    
   121   62   63 1    
   122   62   64 1    
   123   62  138 1    
   124   63  139 1    
   125   63  140 1    
   126   63  141 1    
   127   64   65 am   BACKBONE|DICT|INTERRES
   128   64  142 1    
   129   65   66 2    
   130   65   67 1    
   131   67   68 1    
   132   67   69 1    
   133   67  143 1    
   134   68  144 1    
   135   68  145 1    
   136   68  146 1    
   137   69   70 am   BACKBONE|DICT|INTERRES
   138   69  147 1    
   139   70   71 2    
   140   70   72 1    
   141   72   73 1    
   142   72   74 1    
   143   72  148 1    
   144   73  149 1    
   145   73  150 1    
   146   73  151 1    
   147   74   75 am   BACKBONE|DICT|INTERRES
   148   74  152 1    
   149   75   76 2    
   150   75   77 1    
   151   77   78 1    
   152   77   79 1    
   153   77  153 1    
   154   78  154 1    
   155   78  155 1    
   156   78  156 1    
   157   79   80 am   BACKBONE|DICT|INTERRES
   158   79  157 1    
   159   80   81 2    
@<TRIPOS>SUBSTRUCTURE
     1 UNK         1 GROUP             0       ****    0 ROOT    
