@<TRIPOS>MOLECULE
3R207
157   159    1
SMALL
USER_CHARGES


@<TRIPOS>ATOM
      1 CA        -47.6032  -30.6674    2.3800 C.3       0 UNK        -0.1975 
      2 C         -48.7404  -29.8118    2.9184 C.2       0 UNK         0.4852 
      3 O         -49.1243  -28.8342    2.2758 O.2       0 UNK        -0.5216 
      4 N         -49.2824  -30.1782    4.0886 N.am      1 UNK        -0.4461 
      5 CA        -50.3600  -29.4639    4.7861 C.3       1 UNK         0.0864 
      6 C6        -50.9352  -30.3207    5.9428 C.3       14 UNK        -0.0898 
      7 S7        -52.7023  -30.0044    6.2654 S.3       14 UNK        -0.2598 
      8 C8        -53.1585  -31.4896    7.2253 C.3       14 UNK         0.0286 
      9 C9        -53.0883  -31.2491    8.7285 C.ar      14 UNK        -0.0844 
     10 C10       -51.8664  -30.9797    9.3518 C.ar      14 UNK        -0.0881 
     11 C11       -51.7998  -30.7158   10.7227 C.ar      14 UNK        -0.0643 
     12 C12       -52.9720  -30.7727   11.4844 C.ar      14 UNK        -0.0930 
     13 C13       -54.1962  -31.0882   10.8836 C.ar      14 UNK        -0.0827 
     14 C14       -54.2484  -31.3162    9.5050 C.ar      14 UNK        -0.1249 
     15 C15       -55.4620  -31.2024   11.7230 C.3       14 UNK         0.0141 
     16 S16       -56.1543  -29.5794   12.1675 S.3       14 UNK        -0.2313 
     17 C17       -56.6304  -28.9001   10.5394 C.3       14 UNK        -0.0915 
     18 CA        -55.5386  -27.9878    9.9192 C.3       13 UNK         0.0968 
     19 C         -56.0030  -27.4109    8.5568 C.2       13 UNK         0.5732 
     20 N         -55.5598  -27.9886    7.4487 N.am      13 UNK        -0.7310 
     21 O         -56.7958  -26.4726    8.5002 O.2       13 UNK        -0.5035 
     22 N         -55.1097  -26.9488   10.8605 N.am      13 UNK        -0.4233 
     23 C         -54.0273  -26.1809   10.7054 C.2       13 UNK         0.4989 
     24 O         -53.3118  -26.1877    9.7044 O.2       13 UNK        -0.4996 
     25 CA        -53.6465  -25.2641   11.8806 C.3       12 UNK         0.0216 
     26 CB        -54.2206  -23.8534   11.6721 C.3       12 UNK        -0.1964 
     27 N         -54.0016  -25.7463   13.2255 N.am      12 UNK        -0.4276 
     28 C         -53.6731  -26.9351   13.7575 C.2       12 UNK         0.5020 
     29 O         -53.1237  -27.8443   13.1415 O.2       12 UNK        -0.5489 
     30 CA        -53.9338  -27.0994   15.2564 C.3       11 UNK         0.0294 
     31 CB        -53.8263  -28.5630   15.7308 C.3       11 UNK        -0.2019 
     32 N         -52.9592  -26.2722   15.9630 N.am      11 UNK        -0.4493 
     33 C         -53.1657  -25.7023   17.1558 C.2       11 UNK         0.4932 
     34 O         -54.2017  -25.8533   17.8063 O.2       11 UNK        -0.5029 
     35 CA        -52.0568  -24.7800   17.6977 C.3       10 UNK         0.0280 
     36 CB        -52.1288  -24.5770   19.2270 C.3       10 UNK        -0.1976 
     37 N         -50.7037  -25.1568   17.2730 N.am      10 UNK        -0.4242 
     38 C         -50.0039  -26.2499   17.6196 C.2       10 UNK         0.5072 
     39 O         -50.4451  -27.1358   18.3532 O.2       10 UNK        -0.5224 
     40 CA        -48.5639  -26.3941   17.0752 C.3       9 UNK         0.0343 
     41 CB        -48.3971  -27.7079   16.2918 C.3       9 UNK        -0.2003 
     42 N         -48.1313  -25.2758   16.2313 N.am      9 UNK        -0.4272 
     43 C         -47.7490  -24.0705   16.6778 C.2       9 UNK         0.4988 
     44 O         -47.6145  -23.7937   17.8698 O.2       9 UNK        -0.5108 
     45 CA        -47.5348  -22.9708   15.6200 C.3       8 UNK         0.0248 
     46 CB        -46.0710  -22.9419   15.1529 C.3       8 UNK        -0.2001 
     47 N         -48.4234  -23.1036   14.4587 N.am      8 UNK        -0.4140 
     48 C         -49.7624  -23.0344   14.5116 C.2       8 UNK         0.5028 
     49 O         -50.3896  -22.7774   15.5382 O.2       8 UNK        -0.5428 
     50 CA        -50.5407  -23.3885   13.2341 C.3       7 UNK         0.0264 
     51 CB        -50.6176  -22.1948   12.2717 C.3       7 UNK        -0.1988 
     52 N         -49.9856  -24.5618   12.5523 N.am      7 UNK        -0.4454 
     53 C         -50.0396  -25.8082   13.0501 C.2       7 UNK         0.5027 
     54 O         -50.5935  -26.0790   14.1164 O.2       7 UNK        -0.5083 
     55 CA        -49.3156  -26.9223   12.2615 C.3       6 UNK         0.0844 
     56 C56       -50.2504  -27.6010   11.2305 C.3       14 UNK        -0.0967 
     57 S57       -49.5035  -29.1123   10.5350 S.3       14 UNK        -0.2604 
     58 C58       -50.4551  -30.4222   11.3834 C.3       14 UNK         0.0134 
     59 N         -48.0846  -26.4288   11.6382 N.am      6 UNK        -0.4116 
     60 C         -47.0037  -26.0147   12.3143 C.2       5 UNK         0.5034 
     61 O         -46.9063  -26.0506   13.5406 O.2       5 UNK        -0.5045 
     62 CA        -45.8729  -25.3915   11.4796 C.3       5 UNK         0.0224 
     63 CB        -45.0545  -26.4815   10.7688 C.3       5 UNK        -0.1978 
     64 N         -46.3862  -24.4385   10.4907 N.am      5 UNK        -0.4737 
     65 C         -46.9933  -23.2815   10.7973 C.2       4 UNK         0.5027 
     66 O         -47.1090  -22.8547   11.9438 O.2       4 UNK        -0.5211 
     67 CA        -47.6882  -22.5469    9.6481 C.3       4 UNK         0.0297 
     68 CB        -46.6883  -22.0187    8.6057 C.3       4 UNK        -0.1993 
     69 N         -48.6142  -23.4910    9.0383 N.am      4 UNK        -0.4486 
     70 C         -49.8409  -23.2626    8.5698 C.2       3 UNK         0.4961 
     71 O         -50.3569  -22.1458    8.5188 O.2       3 UNK        -0.5105 
     72 CA        -50.6130  -24.5146    8.0887 C.3       3 UNK         0.0299 
     73 CB        -51.9209  -24.1572    7.3600 C.3       3 UNK        -0.1972 
     74 N         -49.8206  -25.4098    7.2318 N.am      3 UNK        -0.4305 
     75 C         -48.7643  -26.1522    7.5894 C.2       2 UNK         0.5006 
     76 O         -48.3380  -26.2130    8.7474 O.2       2 UNK        -0.5106 
     77 CA        -48.0245  -26.8859    6.4552 C.3       2 UNK         0.0296 
     78 CB        -46.6027  -27.3061    6.8749 C.3       2 UNK        -0.2002 
     79 N         -48.7362  -28.0672    5.9683 N.am      2 UNK        -0.4032 
     80 C         -49.8872  -28.0785    5.2785 C.2       1 UNK         0.5000 
     81 O         -50.5258  -27.0651    4.9853 O.2       1 UNK        -0.5238 
     82 H82       -47.8619  -31.0592    1.3970 H         1 UNK         0.0889 
     83 H83       -47.3817  -31.5111    3.0329 H         1 UNK         0.0889 
     84 H84       -46.6980  -30.0689    2.2808 H         1 UNK         0.0889 
     85 H85       -48.9263  -31.0013    4.5535 H         1 UNK         0.3028 
     86 H86       -51.1501  -29.2973    4.0501 H         1 UNK         0.0864 
     87 H87       -50.8458  -31.3788    5.6908 H         1 UNK         0.0720 
     88 H88       -50.3594  -30.1851    6.8582 H         1 UNK         0.0720 
     89 H89       -52.5218  -32.3343    6.9603 H         1 UNK         0.0814 
     90 H90       -54.1701  -31.7788    6.9365 H         1 UNK         0.0814 
     91 H91       -50.9571  -30.9634    8.7726 H         1 UNK         0.1469 
     92 H92       -52.9347  -30.5772   12.5477 H         1 UNK         0.1381 
     93 H93       -55.1959  -31.5471    9.0374 H         1 UNK         0.1206 
     94 H94       -55.2366  -31.7482   12.6402 H         1 UNK         0.0813 
     95 H95       -56.2210  -31.7881   11.2022 H         1 UNK         0.0813 
     96 H96       -57.5579  -28.3409   10.6755 H         1 UNK         0.0638 
     97 H97       -56.8705  -29.7238    9.8649 H         1 UNK         0.0638 
     98 H98       -54.6563  -28.6001    9.7301 H         1 UNK         0.0568 
     99 H99       -55.8648  -27.6334    6.5567 H         1 UNK         0.3450 
    100 H100      -54.8926  -28.7440    7.4856 H         1 UNK         0.3450 
    101 H101      -55.6282  -26.8907   11.7227 H         1 UNK         0.2987 
    102 H102      -52.5614  -25.1853   11.8532 H         1 UNK         0.0766 
    103 H103      -53.8447  -23.1534   12.4183 H         1 UNK         0.0798 
    104 H104      -55.3101  -23.8503   11.7246 H         1 UNK         0.0798 
    105 H105      -53.9404  -23.4589   10.6940 H         1 UNK         0.0798 
    106 H106      -54.4471  -25.0725   13.8320 H         1 UNK         0.3198 
    107 H107      -54.9467  -26.7422   15.4555 H         1 UNK         0.0843 
    108 H108      -52.8187  -28.9570   15.5917 H         1 UNK         0.0831 
    109 H109      -54.5090  -29.2042   15.1715 H         1 UNK         0.0831 
    110 H110      -54.0799  -28.6582   16.7865 H         1 UNK         0.0831 
    111 H111      -52.0840  -26.1093   15.4681 H         1 UNK         0.3133 
    112 H112      -52.2435  -23.8076   17.2407 H         1 UNK         0.0566 
    113 H113      -51.3421  -23.9081   19.5759 H         1 UNK         0.0814 
    114 H114      -53.0814  -24.1327   19.5183 H         1 UNK         0.0814 
    115 H115      -52.0338  -25.5193   19.7670 H         1 UNK         0.0814 
    116 H116      -50.2675  -24.4912   16.6434 H         1 UNK         0.3091 
    117 H117      -47.9016  -26.4385   17.9422 H         1 UNK         0.0702 
    118 H118      -47.3847  -27.8138   15.9012 H         1 UNK         0.0785 
    119 H119      -49.0887  -27.7695   15.4524 H         1 UNK         0.0785 
    120 H120      -48.5890  -28.5705   16.9311 H         1 UNK         0.0785 
    121 H121      -48.1484  -25.4328   15.2304 H         1 UNK         0.2998 
    122 H122      -47.7583  -22.0130   16.0944 H         1 UNK         0.0697 
    123 H123      -45.7877  -23.8676   14.6517 H         1 UNK         0.0825 
    124 H124      -45.3940  -22.8075   15.9975 H         1 UNK         0.0825 
    125 H125      -45.8923  -22.1195   14.4598 H         1 UNK         0.0825 
    126 H126      -47.9730  -23.2408   13.5563 H         1 UNK         0.3029 
    127 H127      -51.5605  -23.6340   13.5384 H         1 UNK         0.0897 
    128 H128      -51.1880  -22.4395   11.3755 H         1 UNK         0.0792 
    129 H129      -51.1134  -21.3478   12.7476 H         1 UNK         0.0792 
    130 H130      -49.6300  -21.8556   11.9630 H         1 UNK         0.0792 
    131 H131      -49.4762  -24.4002   11.6974 H         1 UNK         0.3086 
    132 H132      -49.0275  -27.6796   12.9936 H         1 UNK         0.0583 
    133 H133      -51.2048  -27.8671   11.6777 H         1 UNK         0.1020 
    134 H134      -50.4896  -26.9224   10.4110 H         1 UNK         0.1020 
    135 H135      -49.8634  -31.3383   11.3753 H         1 UNK         0.0694 
    136 H136      -50.5848  -30.1502   12.4324 H         1 UNK         0.0694 
    137 H137      -48.0747  -26.4060   10.6218 H         1 UNK         0.2989 
    138 H138      -45.2133  -24.8525   12.1637 H         1 UNK         0.1055 
    139 H139      -44.6551  -27.1990   11.4871 H         1 UNK         0.0806 
    140 H140      -44.2059  -26.0546   10.2340 H         1 UNK         0.0806 
    141 H141      -45.6570  -27.0400   10.0509 H         1 UNK         0.0806 
    142 H142      -46.3253  -24.7212    9.5234 H         1 UNK         0.3061 
    143 H143      -48.2406  -21.7022   10.0639 H         1 UNK         0.0734 
    144 H144      -47.1997  -21.4603    7.8215 H         1 UNK         0.0832 
    145 H145      -45.9668  -21.3428    9.0666 H         1 UNK         0.0832 
    146 H146      -46.1272  -22.8223    8.1279 H         1 UNK         0.0832 
    147 H147      -48.3248  -24.4676    9.0408 H         1 UNK         0.3156 
    148 H148      -50.8834  -25.0720    8.9864 H         1 UNK         0.0589 
    149 H149      -51.7338  -23.5855    6.4505 H         1 UNK         0.0808 
    150 H150      -52.4783  -25.0542    7.0878 H         1 UNK         0.0808 
    151 H151      -52.5739  -23.5597    7.9977 H         1 UNK         0.0808 
    152 H152      -50.1267  -25.4938    6.2680 H         1 UNK         0.3098 
    153 H153      -47.9281  -26.1849    5.6234 H         1 UNK         0.0720 
    154 H154      -46.0542  -27.7425    6.0399 H         1 UNK         0.0791 
    155 H155      -46.6194  -28.0370    7.6849 H         1 UNK         0.0791 
    156 H156      -46.0270  -26.4475    7.2231 H         1 UNK         0.0791 
    157 H157      -48.2945  -28.9546    6.1572 H         1 UNK         0.3028 
@<TRIPOS>BOND
     1    1    2 1    
     2    1   82 1    
     3    1   83 1    
     4    1   84 1    
     5    2    3 2    
     6    2    4 am   BACKBONE|DICT|INTERRES
     7    4    5 1    
     8    4   85 1    
     9    5    6 1    
    10    5   80 1    
    11    5   86 1    
    12    6    7 1    
    13    6   87 1    
    14    6   88 1    
    15    7    8 1    
    16    8    9 1    
    17    8   89 1    
    18    8   90 1    
    19    9   10 ar   
    20    9   14 ar   
    21   10   11 ar   
    22   10   91 1    
    23   11   12 ar   
    24   11   58 1    
    25   12   13 ar   
    26   12   92 1    
    27   13   14 ar   
    28   13   15 1    
    29   14   93 1    
    30   15   16 1    
    31   15   94 1    
    32   15   95 1    
    33   16   17 1    
    34   17   18 1    
    35   17   96 1    
    36   17   97 1    
    37   18   19 1    
    38   18   22 1    
    39   18   98 1    
    40   19   20 am   BACKBONE|DICT|INTERRES
    41   19   21 2    
    42   20   99 1    
    43   20  100 1    
    44   22   23 am   BACKBONE|DICT|INTERRES
    45   22  101 1    
    46   23   24 2    
    47   23   25 1    
    48   25   26 1    
    49   25   27 1    
    50   25  102 1    
    51   26  103 1    
    52   26  104 1    
    53   26  105 1    
    54   27   28 am   BACKBONE|DICT|INTERRES
    55   27  106 1    
    56   28   29 2    
    57   28   30 1    
    58   30   31 1    
    59   30   32 1    
    60   30  107 1    
    61   31  108 1    
    62   31  109 1    
    63   31  110 1    
    64   32   33 am   BACKBONE|DICT|INTERRES
    65   32  111 1    
    66   33   34 2    
    67   33   35 1    
    68   35   36 1    
    69   35   37 1    
    70   35  112 1    
    71   36  113 1    
    72   36  114 1    
    73   36  115 1    
    74   37   38 am   BACKBONE|DICT|INTERRES
    75   37  116 1    
    76   38   39 2    
    77   38   40 1    
    78   40   41 1    
    79   40   42 1    
    80   40  117 1    
    81   41  118 1    
    82   41  119 1    
    83   41  120 1    
    84   42   43 am   BACKBONE|DICT|INTERRES
    85   42  121 1    
    86   43   44 2    
    87   43   45 1    
    88   45   46 1    
    89   45   47 1    
    90   45  122 1    
    91   46  123 1    
    92   46  124 1    
    93   46  125 1    
    94   47   48 am   BACKBONE|DICT|INTERRES
    95   47  126 1    
    96   48   49 2    
    97   48   50 1    
    98   50   51 1    
    99   50   52 1    
   100   50  127 1    
   101   51  128 1    
   102   51  129 1    
   103   51  130 1    
   104   52   53 am   BACKBONE|DICT|INTERRES
   105   52  131 1    
   106   53   54 2    
   107   53   55 1    
   108   55   56 1    
   109   55   59 1    
   110   55  132 1    
   111   56   57 1    
   112   56  133 1    
   113   56  134 1    
   114   57   58 1    
   115   58  135 1    
   116   58  136 1    
   117   59   60 am   BACKBONE|DICT|INTERRES
   118   59  137 1    
   119   60   61 2    
   120   60   62 1    
   121   62   63 1    
   122   62   64 1    
   123   62  138 1    
   124   63  139 1    
   125   63  140 1    
   126   63  141 1    
   127   64   65 am   BACKBONE|DICT|INTERRES
   128   64  142 1    
   129   65   66 2    
   130   65   67 1    
   131   67   68 1    
   132   67   69 1    
   133   67  143 1    
   134   68  144 1    
   135   68  145 1    
   136   68  146 1    
   137   69   70 am   BACKBONE|DICT|INTERRES
   138   69  147 1    
   139   70   71 2    
   140   70   72 1    
   141   72   73 1    
   142   72   74 1    
   143   72  148 1    
   144   73  149 1    
   145   73  150 1    
   146   73  151 1    
   147   74   75 am   BACKBONE|DICT|INTERRES
   148   74  152 1    
   149   75   76 2    
   150   75   77 1    
   151   77   78 1    
   152   77   79 1    
   153   77  153 1    
   154   78  154 1    
   155   78  155 1    
   156   78  156 1    
   157   79   80 am   BACKBONE|DICT|INTERRES
   158   79  157 1    
   159   80   81 2    
@<TRIPOS>SUBSTRUCTURE
     1 UNK         1 GROUP             0       ****    0 ROOT    
