@<TRIPOS>MOLECULE
3R207
157   159    1
SMALL
USER_CHARGES


@<TRIPOS>ATOM
      1 CA        -49.5804  -26.4167    0.6771 C.3       0 UNK        -0.1975 
      2 C         -50.0633  -26.5121    2.1170 C.2       0 UNK         0.4852 
      3 O         -51.1030  -27.1200    2.3750 O.2       0 UNK        -0.5216 
      4 N         -49.3187  -25.9167    3.0537 N.am      1 UNK        -0.4461 
      5 CA        -49.6240  -25.8666    4.4814 C.3       1 UNK         0.0864 
      6 C6        -49.2205  -27.1756    5.2091 C.3       14 UNK        -0.0898 
      7 S7        -50.2064  -27.4743    6.7147 S.3       14 UNK        -0.2598 
      8 C8        -50.7298  -29.1961    6.4378 C.3       14 UNK         0.0286 
      9 C9        -51.2550  -29.8344    7.7144 C.ar      14 UNK        -0.0844 
     10 C10       -50.3574  -30.3465    8.6557 C.ar      14 UNK        -0.0881 
     11 C11       -50.8193  -30.9468    9.8310 C.ar      14 UNK        -0.0643 
     12 C12       -52.1976  -31.0588   10.0444 C.ar      14 UNK        -0.0930 
     13 C13       -53.1051  -30.5389    9.1171 C.ar      14 UNK        -0.0827 
     14 C14       -52.6293  -29.9274    7.9528 C.ar      14 UNK        -0.1249 
     15 C15       -54.5987  -30.6397    9.3770 C.3       14 UNK         0.0141 
     16 S16       -55.2049  -29.2146   10.3340 S.3       14 UNK        -0.2313 
     17 C17       -56.9703  -29.6583   10.4875 C.3       14 UNK        -0.0915 
     18 CA        -57.4397  -29.9989   11.9278 C.3       13 UNK         0.0968 
     19 C         -56.6937  -31.2132   12.5532 C.2       13 UNK         0.5732 
     20 N         -56.9106  -32.4091   12.0218 N.am      13 UNK        -0.7310 
     21 O         -55.9123  -31.0857   13.4948 O.2       13 UNK        -0.5035 
     22 N         -57.4488  -28.8094   12.7904 N.am      13 UNK        -0.4233 
     23 C         -58.1878  -28.6893   13.8992 C.2       13 UNK         0.4989 
     24 O         -58.9717  -29.5542   14.2968 O.2       13 UNK        -0.4996 
     25 CA        -58.0165  -27.3846   14.6974 C.3       12 UNK         0.0216 
     26 CB        -59.1089  -27.1963   15.7677 C.3       12 UNK        -0.1964 
     27 N         -56.7058  -27.3339   15.3454 N.am      12 UNK        -0.4276 
     28 C         -55.5698  -26.9646   14.7444 C.2       12 UNK         0.5020 
     29 O         -55.4983  -26.6387   13.5560 O.2       12 UNK        -0.5489 
     30 CA        -54.2993  -26.9931   15.6096 C.3       11 UNK         0.0294 
     31 CB        -53.4699  -28.2498   15.3011 C.3       11 UNK        -0.2019 
     32 N         -53.4753  -25.8042   15.3901 N.am      11 UNK        -0.4493 
     33 C         -53.8117  -24.5601   15.7580 C.2       11 UNK         0.4932 
     34 O         -54.8421  -24.2863   16.3772 O.2       11 UNK        -0.5029 
     35 CA        -52.8160  -23.4458   15.3787 C.3       10 UNK         0.0280 
     36 CB        -53.1772  -22.0707   15.9795 C.3       10 UNK        -0.1976 
     37 N         -51.4281  -23.8066   15.6868 N.am      10 UNK        -0.4242 
     38 C         -50.8991  -24.0957   16.8859 C.2       10 UNK         0.5072 
     39 O         -51.5179  -24.0193   17.9485 O.2       10 UNK        -0.5224 
     40 CA        -49.4346  -24.5770   16.9191 C.3       9 UNK         0.0343 
     41 CB        -49.3817  -26.0767   17.2562 C.3       9 UNK        -0.2003 
     42 N         -48.7062  -24.3482   15.6676 N.am      9 UNK        -0.4272 
     43 C         -48.2496  -23.1590   15.2491 C.2       9 UNK         0.4988 
     44 O         -48.3249  -22.1244   15.9124 O.2       9 UNK        -0.5108 
     45 CA        -47.6412  -23.1076   13.8346 C.3       8 UNK         0.0248 
     46 CB        -46.1727  -23.5598   13.8531 C.3       8 UNK        -0.2001 
     47 N         -48.3919  -23.9065   12.8602 N.am      8 UNK        -0.4140 
     48 C         -49.6691  -23.6846   12.5146 C.2       8 UNK         0.5028 
     49 O         -50.3419  -22.7448   12.9368 O.2       8 UNK        -0.5428 
     50 CA        -50.3341  -24.7203   11.5974 C.3       7 UNK         0.0264 
     51 CB        -50.0105  -24.4528   10.1214 C.3       7 UNK        -0.1988 
     52 N         -49.9464  -26.0848   11.9461 N.am      7 UNK        -0.4454 
     53 C         -50.3695  -26.7327   13.0404 C.2       7 UNK         0.5027 
     54 O         -51.1412  -26.2488   13.8677 O.2       7 UNK        -0.5083 
     55 CA        -49.8320  -28.1623   13.2423 C.3       6 UNK         0.0844 
     56 C56       -50.6420  -29.1300   12.3515 C.3       14 UNK        -0.0967 
     57 S57       -50.1994  -30.8869   12.5799 S.3       14 UNK        -0.2604 
     58 C58       -49.8176  -31.4342   10.8762 C.3       14 UNK         0.0134 
     59 N         -48.3904  -28.2469   12.9884 N.am      6 UNK        -0.4116 
     60 C         -47.4458  -27.5688   13.6557 C.2       5 UNK         0.5034 
     61 O         -47.6746  -26.8237   14.6067 O.2       5 UNK        -0.5045 
     62 CA        -46.0051  -27.6968   13.1333 C.3       5 UNK         0.0224 
     63 CB        -45.3154  -28.9236   13.7506 C.3       5 UNK        -0.1978 
     64 N         -45.9145  -27.7644   11.6695 N.am      5 UNK        -0.4737 
     65 C         -46.3658  -26.8240   10.8281 C.2       4 UNK         0.5027 
     66 O         -46.9409  -25.7959   11.1923 O.2       4 UNK        -0.5211 
     67 CA        -46.2246  -27.1401    9.3314 C.3       4 UNK         0.0297 
     68 CB        -47.3926  -28.0288    8.8774 C.3       4 UNK        -0.1993 
     69 N         -46.1892  -25.9349    8.5001 N.am      4 UNK        -0.4486 
     70 C         -45.1700  -25.0655    8.4566 C.2       3 UNK         0.4961 
     71 O         -44.1368  -25.1941    9.1154 O.2       3 UNK        -0.5105 
     72 CA        -45.2884  -23.8726    7.4884 C.3       3 UNK         0.0299 
     73 CB        -44.3360  -24.0578    6.2950 C.3       3 UNK        -0.1972 
     74 N         -46.6433  -23.6599    6.9727 N.am      3 UNK        -0.4305 
     75 C         -47.6231  -23.0111    7.6109 C.2       2 UNK         0.5006 
     76 O         -47.4926  -22.5155    8.7297 O.2       2 UNK        -0.5106 
     77 CA        -48.9827  -22.8874    6.8934 C.3       2 UNK         0.0296 
     78 CB        -49.0155  -21.6334    5.9971 C.3       2 UNK        -0.2002 
     79 N         -49.4278  -24.0859    6.1595 N.am      2 UNK        -0.4032 
     80 C         -48.8993  -24.6391    5.0583 C.2       1 UNK         0.5000 
     81 O         -47.8665  -24.2365    4.5122 O.2       1 UNK        -0.5238 
     82 H82       -48.6501  -25.8547    0.5958 H         1 UNK         0.0889 
     83 H83       -50.3309  -25.9214    0.0616 H         1 UNK         0.0889 
     84 H84       -49.4105  -27.4138    0.2717 H         1 UNK         0.0889 
     85 H85       -48.4895  -25.3896    2.8041 H         1 UNK         0.3028 
     86 H86       -50.6993  -25.7015    4.5833 H         1 UNK         0.0864 
     87 H87       -49.3627  -28.0248    4.5392 H         1 UNK         0.0720 
     88 H88       -48.1590  -27.1871    5.4649 H         1 UNK         0.0720 
     89 H89       -49.8854  -29.7812    6.0696 H         1 UNK         0.0814 
     90 H90       -51.4875  -29.2210    5.6528 H         1 UNK         0.0814 
     91 H91       -49.2951  -30.2644    8.4732 H         1 UNK         0.1469 
     92 H92       -52.5644  -31.5218   10.9504 H         1 UNK         0.1381 
     93 H93       -53.3288  -29.5244    7.2329 H         1 UNK         0.1206 
     94 H94       -55.1390  -30.6979    8.4307 H         1 UNK         0.0813 
     95 H95       -54.8210  -31.5616    9.9169 H         1 UNK         0.0813 
     96 H96       -57.5554  -28.8216   10.1028 H         1 UNK         0.0638 
     97 H97       -57.1956  -30.4911    9.8194 H         1 UNK         0.0638 
     98 H98       -58.4817  -30.3131   11.8382 H         1 UNK         0.0568 
     99 H99       -56.4339  -33.2080   12.4094 H         1 UNK         0.3450 
    100 H100      -57.5504  -32.5328   11.2531 H         1 UNK         0.3450 
    101 H101      -56.7591  -28.0943   12.5889 H         1 UNK         0.2987 
    102 H102      -58.1011  -26.5544   13.9923 H         1 UNK         0.0766 
    103 H103      -59.0050  -26.2369   16.2751 H         1 UNK         0.0798 
    104 H104      -59.0777  -27.9810   16.5248 H         1 UNK         0.0798 
    105 H105      -60.1027  -27.2164   15.3181 H         1 UNK         0.0798 
    106 H106      -56.6723  -27.6280   16.3113 H         1 UNK         0.3198 
    107 H107      -54.5816  -27.0137   16.6645 H         1 UNK         0.0843 
    108 H108      -53.1778  -28.2840   14.2516 H         1 UNK         0.0831 
    109 H109      -54.0405  -29.1564   15.5075 H         1 UNK         0.0831 
    110 H110      -52.5626  -28.2890   15.9043 H         1 UNK         0.0831 
    111 H111      -52.6202  -25.9369   14.8510 H         1 UNK         0.3133 
    112 H112      -52.8671  -23.3519   14.2929 H         1 UNK         0.0566 
    113 H113      -52.4669  -21.3047   15.6680 H         1 UNK         0.0814 
    114 H114      -54.1658  -21.7490   15.6496 H         1 UNK         0.0814 
    115 H115      -53.1907  -22.0934   17.0695 H         1 UNK         0.0814 
    116 H116      -50.8274  -23.9102   14.8792 H         1 UNK         0.3091 
    117 H117      -48.9287  -24.0291   17.7167 H         1 UNK         0.0702 
    118 H118      -49.8805  -26.2852   18.2036 H         1 UNK         0.0785 
    119 H119      -49.8725  -26.6775   16.4891 H         1 UNK         0.0785 
    120 H120      -48.3533  -26.4267   17.3480 H         1 UNK         0.0785 
    121 H121      -48.5242  -25.1701   15.0971 H         1 UNK         0.2998 
    122 H122      -47.6727  -22.0695   13.4973 H         1 UNK         0.0697 
    123 H123      -46.0709  -24.5850   14.2083 H         1 UNK         0.0825 
    124 H124      -45.5791  -22.9264   14.5136 H         1 UNK         0.0825 
    125 H125      -45.7265  -23.5036   12.8598 H         1 UNK         0.0825 
    126 H126      -47.8962  -24.6725   12.4091 H         1 UNK         0.3029 
    127 H127      -51.4153  -24.6301   11.7268 H         1 UNK         0.0897 
    128 H128      -50.5468  -25.1381    9.4647 H         1 UNK         0.0792 
    129 H129      -48.9448  -24.5553    9.9168 H         1 UNK         0.0792 
    130 H130      -50.3020  -23.4390    9.8458 H         1 UNK         0.0792 
    131 H131      -49.2562  -26.5232   11.3538 H         1 UNK         0.3086 
    132 H132      -49.9981  -28.4317   14.2876 H         1 UNK         0.0583 
    133 H133      -51.7103  -29.0417   12.5577 H         1 UNK         0.1020 
    134 H134      -50.5233  -28.8456   11.3052 H         1 UNK         0.1020 
    135 H135      -48.8113  -31.0927   10.6289 H         1 UNK         0.0694 
    136 H136      -49.7865  -32.5242   10.8548 H         1 UNK         0.0694 
    137 H137      -48.1012  -28.8547   12.2377 H         1 UNK         0.2989 
    138 H138      -45.4637  -26.8042   13.4529 H         1 UNK         0.1055 
    139 H139      -45.3543  -28.8849   14.8404 H         1 UNK         0.0806 
    140 H140      -44.2633  -28.9717   13.4690 H         1 UNK         0.0806 
    141 H141      -45.7899  -29.8557   13.4409 H         1 UNK         0.0806 
    142 H142      -45.4639  -28.5825   11.2836 H         1 UNK         0.3061 
    143 H143      -45.2896  -27.6831    9.1766 H         1 UNK         0.0734 
    144 H144      -47.3193  -28.2750    7.8180 H         1 UNK         0.0832 
    145 H145      -47.4028  -28.9719    9.4247 H         1 UNK         0.0832 
    146 H146      -48.3554  -27.5449    9.0460 H         1 UNK         0.0832 
    147 H147      -47.0106  -25.7307    7.9527 H         1 UNK         0.3156 
    148 H148      -44.9775  -22.9793    8.0343 H         1 UNK         0.0589 
    149 H149      -44.5974  -24.9360    5.7030 H         1 UNK         0.0808 
    150 H150      -44.3544  -23.1906    5.6346 H         1 UNK         0.0808 
    151 H151      -43.3058  -24.1850    6.6308 H         1 UNK         0.0808 
    152 H152      -46.8431  -23.9856    6.0289 H         1 UNK         0.3098 
    153 H153      -49.7287  -22.7351    7.6735 H         1 UNK         0.0720 
    154 H154      -49.9990  -21.4917    5.5491 H         1 UNK         0.0791 
    155 H155      -48.2836  -21.6857    5.1905 H         1 UNK         0.0791 
    156 H156      -48.7920  -20.7365    6.5765 H         1 UNK         0.0791 
    157 H157      -50.2437  -24.5383    6.5501 H         1 UNK         0.3028 
@<TRIPOS>BOND
     1    1    2 1    
     2    1   82 1    
     3    1   83 1    
     4    1   84 1    
     5    2    3 2    
     6    2    4 am   BACKBONE|DICT|INTERRES
     7    4    5 1    
     8    4   85 1    
     9    5    6 1    
    10    5   80 1    
    11    5   86 1    
    12    6    7 1    
    13    6   87 1    
    14    6   88 1    
    15    7    8 1    
    16    8    9 1    
    17    8   89 1    
    18    8   90 1    
    19    9   10 ar   
    20    9   14 ar   
    21   10   11 ar   
    22   10   91 1    
    23   11   12 ar   
    24   11   58 1    
    25   12   13 ar   
    26   12   92 1    
    27   13   14 ar   
    28   13   15 1    
    29   14   93 1    
    30   15   16 1    
    31   15   94 1    
    32   15   95 1    
    33   16   17 1    
    34   17   18 1    
    35   17   96 1    
    36   17   97 1    
    37   18   19 1    
    38   18   22 1    
    39   18   98 1    
    40   19   20 am   BACKBONE|DICT|INTERRES
    41   19   21 2    
    42   20   99 1    
    43   20  100 1    
    44   22   23 am   BACKBONE|DICT|INTERRES
    45   22  101 1    
    46   23   24 2    
    47   23   25 1    
    48   25   26 1    
    49   25   27 1    
    50   25  102 1    
    51   26  103 1    
    52   26  104 1    
    53   26  105 1    
    54   27   28 am   BACKBONE|DICT|INTERRES
    55   27  106 1    
    56   28   29 2    
    57   28   30 1    
    58   30   31 1    
    59   30   32 1    
    60   30  107 1    
    61   31  108 1    
    62   31  109 1    
    63   31  110 1    
    64   32   33 am   BACKBONE|DICT|INTERRES
    65   32  111 1    
    66   33   34 2    
    67   33   35 1    
    68   35   36 1    
    69   35   37 1    
    70   35  112 1    
    71   36  113 1    
    72   36  114 1    
    73   36  115 1    
    74   37   38 am   BACKBONE|DICT|INTERRES
    75   37  116 1    
    76   38   39 2    
    77   38   40 1    
    78   40   41 1    
    79   40   42 1    
    80   40  117 1    
    81   41  118 1    
    82   41  119 1    
    83   41  120 1    
    84   42   43 am   BACKBONE|DICT|INTERRES
    85   42  121 1    
    86   43   44 2    
    87   43   45 1    
    88   45   46 1    
    89   45   47 1    
    90   45  122 1    
    91   46  123 1    
    92   46  124 1    
    93   46  125 1    
    94   47   48 am   BACKBONE|DICT|INTERRES
    95   47  126 1    
    96   48   49 2    
    97   48   50 1    
    98   50   51 1    
    99   50   52 1    
   100   50  127 1    
   101   51  128 1    
   102   51  129 1    
   103   51  130 1    
   104   52   53 am   BACKBONE|DICT|INTERRES
   105   52  131 1    
   106   53   54 2    
   107   53   55 1    
   108   55   56 1    
   109   55   59 1    
   110   55  132 1    
   111   56   57 1    
   112   56  133 1    
   113   56  134 1    
   114   57   58 1    
   115   58  135 1    
   116   58  136 1    
   117   59   60 am   BACKBONE|DICT|INTERRES
   118   59  137 1    
   119   60   61 2    
   120   60   62 1    
   121   62   63 1    
   122   62   64 1    
   123   62  138 1    
   124   63  139 1    
   125   63  140 1    
   126   63  141 1    
   127   64   65 am   BACKBONE|DICT|INTERRES
   128   64  142 1    
   129   65   66 2    
   130   65   67 1    
   131   67   68 1    
   132   67   69 1    
   133   67  143 1    
   134   68  144 1    
   135   68  145 1    
   136   68  146 1    
   137   69   70 am   BACKBONE|DICT|INTERRES
   138   69  147 1    
   139   70   71 2    
   140   70   72 1    
   141   72   73 1    
   142   72   74 1    
   143   72  148 1    
   144   73  149 1    
   145   73  150 1    
   146   73  151 1    
   147   74   75 am   BACKBONE|DICT|INTERRES
   148   74  152 1    
   149   75   76 2    
   150   75   77 1    
   151   77   78 1    
   152   77   79 1    
   153   77  153 1    
   154   78  154 1    
   155   78  155 1    
   156   78  156 1    
   157   79   80 am   BACKBONE|DICT|INTERRES
   158   79  157 1    
   159   80   81 2    
@<TRIPOS>SUBSTRUCTURE
     1 UNK         1 GROUP             0       ****    0 ROOT    
