@<TRIPOS>MOLECULE
3R207
157   159    1
SMALL
USER_CHARGES


@<TRIPOS>ATOM
      1 CA        -44.5359  -31.9157    7.6483 C.3       0 UNK        -0.1975 
      2 C         -45.6460  -30.8774    7.7089 C.2       0 UNK         0.4852 
      3 O         -45.3917  -29.7352    8.0933 O.2       0 UNK        -0.5216 
      4 N         -46.8707  -31.2619    7.3196 N.am      1 UNK        -0.4461 
      5 CA        -48.1039  -30.4592    7.2962 C.3       1 UNK         0.0864 
      6 C6        -48.4755  -29.8674    8.6863 C.3       14 UNK        -0.0898 
      7 S7        -50.2608  -29.5636    8.9055 S.3       14 UNK        -0.2598 
      8 C8        -50.3688  -27.7927    8.4658 C.3       14 UNK         0.0286 
      9 C9        -51.7620  -27.1775    8.5747 C.ar      14 UNK        -0.0844 
     10 C10       -51.8766  -25.7998    8.7893 C.ar      14 UNK        -0.0881 
     11 C11       -53.1315  -25.1936    8.9015 C.ar      14 UNK        -0.0643 
     12 C12       -54.2840  -25.9736    8.7680 C.ar      14 UNK        -0.0930 
     13 C13       -54.1870  -27.3446    8.5171 C.ar      14 UNK        -0.0827 
     14 C14       -52.9266  -27.9391    8.4200 C.ar      14 UNK        -0.1249 
     15 C15       -55.4430  -28.1842    8.3346 C.3       14 UNK         0.0141 
     16 S16       -56.2313  -28.5892    9.9224 S.3       14 UNK        -0.2313 
     17 C17       -54.9654  -29.6558   10.6914 C.3       14 UNK        -0.0915 
     18 CA        -55.3948  -30.1714   12.0884 C.3       13 UNK         0.0968 
     19 C         -54.3457  -31.1595   12.6747 C.2       13 UNK         0.5732 
     20 N         -53.6608  -30.8410   13.7675 N.am      13 UNK        -0.7310 
     21 O         -54.1620  -32.2468   12.1330 O.2       13 UNK        -0.5035 
     22 N         -55.7508  -29.0633   12.9862 N.am      13 UNK        -0.4233 
     23 C         -56.5646  -29.1687   14.0427 C.2       13 UNK         0.4989 
     24 O         -57.1170  -30.2192   14.3743 O.2       13 UNK        -0.4996 
     25 CA        -56.8180  -27.8929   14.8625 C.3       12 UNK         0.0216 
     26 CB        -56.8024  -28.1795   16.3758 C.3       12 UNK        -0.1964 
     27 N         -55.8250  -26.8553   14.5773 N.am      12 UNK        -0.4276 
     28 C         -56.0907  -25.5869   14.2338 C.2       12 UNK         0.5020 
     29 O         -57.2255  -25.1731   13.9883 O.2       12 UNK        -0.5489 
     30 CA        -54.8913  -24.6110   14.1668 C.3       11 UNK         0.0294 
     31 CB        -55.2906  -23.1543   14.4785 C.3       11 UNK        -0.2019 
     32 N         -53.7511  -25.0197   14.9984 N.am      11 UNK        -0.4493 
     33 C         -53.7534  -25.3013   16.3117 C.2       11 UNK         0.4932 
     34 O         -54.7047  -25.0714   17.0599 O.2       11 UNK        -0.5029 
     35 CA        -52.5037  -26.0103   16.8732 C.3       10 UNK         0.0280 
     36 CB        -52.8488  -26.9634   18.0364 C.3       10 UNK        -0.1976 
     37 N         -51.7093  -26.7207   15.8612 N.am      10 UNK        -0.4242 
     38 C         -52.0934  -27.7057   15.0302 C.2       10 UNK         0.5072 
     39 O         -53.2406  -28.1593   14.9920 O.2       10 UNK        -0.5224 
     40 CA        -51.0470  -28.2499   14.0319 C.3       9 UNK         0.0343 
     41 CB        -51.5176  -28.0317   12.5836 C.3       9 UNK        -0.2003 
     42 N         -49.7177  -27.6522   14.1881 N.am      9 UNK        -0.4272 
     43 C         -48.8519  -27.9355   15.1719 C.2       9 UNK         0.4988 
     44 O         -49.0236  -28.8263   16.0036 O.2       9 UNK        -0.5108 
     45 CA        -47.6179  -27.0241   15.2826 C.3       8 UNK         0.0248 
     46 CB        -46.4612  -27.5585   14.4227 C.3       8 UNK        -0.2001 
     47 N         -47.9261  -25.6379   14.9101 N.am      8 UNK        -0.4140 
     48 C         -48.6615  -24.8020   15.6597 C.2       8 UNK         0.5028 
     49 O         -49.1088  -25.0985   16.7669 O.2       8 UNK        -0.5428 
     50 CA        -48.9956  -23.4220   15.0650 C.3       7 UNK         0.0264 
     51 CB        -47.8588  -22.4250   15.3397 C.3       7 UNK        -0.1988 
     52 N         -49.2723  -23.4657   13.6272 N.am      7 UNK        -0.4454 
     53 C         -50.3288  -24.0794   13.0710 C.2       7 UNK         0.5027 
     54 O         -51.2181  -24.6270   13.7219 O.2       7 UNK        -0.5083 
     55 CA        -50.3699  -24.1439   11.5282 C.3       6 UNK         0.0844 
     56 C56       -51.1702  -22.9605   10.9283 C.3       14 UNK        -0.0967 
     57 S57       -52.9708  -23.2600   10.8915 S.3       14 UNK        -0.2604 
     58 C58       -53.2494  -23.6951    9.1427 C.3       14 UNK         0.0134 
     59 N         -49.0381  -24.2586   10.9185 N.am      6 UNK        -0.4116 
     60 C         -48.1444  -25.2260   11.1724 C.2       5 UNK         0.5034 
     61 O         -48.3675  -26.1571   11.9472 O.2       5 UNK        -0.5045 
     62 CA        -46.7666  -25.1204   10.4906 C.3       5 UNK         0.0224 
     63 CB        -46.1605  -26.5029   10.1915 C.3       5 UNK        -0.1978 
     64 N         -46.8088  -24.3372    9.2524 N.am      5 UNK        -0.4737 
     65 C         -46.5900  -23.0173    9.1647 C.2       4 UNK         0.5027 
     66 O         -46.3464  -22.3095   10.1414 O.2       4 UNK        -0.5211 
     67 CA        -46.6711  -22.3638    7.7707 C.3       4 UNK         0.0297 
     68 CB        -45.2591  -22.1315    7.2093 C.3       4 UNK        -0.1993 
     69 N         -47.4499  -23.1351    6.7987 N.am      4 UNK        -0.4486 
     70 C         -48.7738  -23.3347    6.8583 C.2       3 UNK         0.4961 
     71 O         -49.5026  -22.8258    7.7091 O.2       3 UNK        -0.5105 
     72 CA        -49.3851  -24.2955    5.8193 C.3       3 UNK         0.0299 
     73 CB        -49.9598  -23.5045    4.6339 C.3       3 UNK        -0.1972 
     74 N         -48.4737  -25.3359    5.3167 N.am      3 UNK        -0.4305 
     75 C         -47.8339  -26.2295    6.0836 C.2       2 UNK         0.5006 
     76 O         -47.8484  -26.2025    7.3150 O.2       2 UNK        -0.5106 
     77 CA        -47.0077  -27.3096    5.3703 C.3       2 UNK         0.0296 
     78 CB        -45.5437  -26.8612    5.2376 C.3       2 UNK        -0.2002 
     79 N         -47.0581  -28.5508    6.1422 N.am      2 UNK        -0.4032 
     80 C         -48.1083  -29.3794    6.1906 C.2       1 UNK         0.5000 
     81 O         -49.0621  -29.3117    5.4127 O.2       1 UNK        -0.5238 
     82 H82       -44.8969  -32.8802    7.2920 H         1 UNK         0.0889 
     83 H83       -44.1045  -32.0599    8.6384 H         1 UNK         0.0889 
     84 H84       -43.7453  -31.5800    6.9777 H         1 UNK         0.0889 
     85 H85       -46.9880  -32.2097    6.9876 H         1 UNK         0.3028 
     86 H86       -48.8836  -31.1738    7.0267 H         1 UNK         0.0864 
     87 H87       -48.1906  -30.5712    9.4698 H         1 UNK         0.0720 
     88 H88       -47.9140  -28.9576    8.8980 H         1 UNK         0.0720 
     89 H89       -49.6710  -27.2378    9.0957 H         1 UNK         0.0814 
     90 H90       -50.0409  -27.6650    7.4362 H         1 UNK         0.0814 
     91 H91       -50.9844  -25.1943    8.8718 H         1 UNK         0.1469 
     92 H92       -55.2594  -25.5138    8.8496 H         1 UNK         0.1381 
     93 H93       -52.8606  -28.9995    8.2220 H         1 UNK         0.1206 
     94 H94       -55.2181  -29.1068    7.7973 H         1 UNK         0.0813 
     95 H95       -56.1571  -27.6393    7.7154 H         1 UNK         0.0813 
     96 H96       -54.0340  -29.0942   10.7666 H         1 UNK         0.0638 
     97 H97       -54.7705  -30.4909   10.0161 H         1 UNK         0.0638 
     98 H98       -56.2979  -30.7663   11.9389 H         1 UNK         0.0568 
     99 H99       -52.9999  -31.5036   14.1384 H         1 UNK         0.3450 
    100 H100      -53.7751  -29.9376   14.2122 H         1 UNK         0.3450 
    101 H101      -55.3483  -28.1649   12.7692 H         1 UNK         0.2987 
    102 H102      -57.8164  -27.5467   14.5887 H         1 UNK         0.0766 
    103 H103      -56.9866  -27.2722   16.9518 H         1 UNK         0.0798 
    104 H104      -55.8422  -28.5873   16.6952 H         1 UNK         0.0798 
    105 H105      -57.5742  -28.8993   16.6514 H         1 UNK         0.0798 
    106 H106      -54.8582  -27.1217   14.7549 H         1 UNK         0.3198 
    107 H107      -54.5376  -24.6443   13.1354 H         1 UNK         0.0843 
    108 H108      -54.4340  -22.4849   14.3993 H         1 UNK         0.0831 
    109 H109      -55.7051  -23.0554   15.4821 H         1 UNK         0.0831 
    110 H110      -56.0447  -22.7956   13.7769 H         1 UNK         0.0831 
    111 H111      -52.8727  -25.1479   14.4988 H         1 UNK         0.3133 
    112 H112      -51.8605  -25.2220   17.2661 H         1 UNK         0.0566 
    113 H113      -51.9545  -27.4440   18.4330 H         1 UNK         0.0814 
    114 H114      -53.3177  -26.4259   18.8615 H         1 UNK         0.0814 
    115 H115      -53.5400  -27.7468   17.7234 H         1 UNK         0.0814 
    116 H116      -50.7562  -26.3933   15.7758 H         1 UNK         0.3091 
    117 H117      -50.9626  -29.3245   14.2045 H         1 UNK         0.0702 
    118 H118      -52.4458  -28.5678   12.3924 H         1 UNK         0.0785 
    119 H119      -50.7832  -28.3934   11.8635 H         1 UNK         0.0785 
    120 H120      -51.7049  -26.9797   12.3717 H         1 UNK         0.0785 
    121 H121      -49.4514  -26.9500   13.5054 H         1 UNK         0.2998 
    122 H122      -47.2922  -27.0296   16.3252 H         1 UNK         0.0697 
    123 H123      -46.7363  -27.6360   13.3713 H         1 UNK         0.0825 
    124 H124      -46.1651  -28.5555   14.7513 H         1 UNK         0.0825 
    125 H125      -45.5811  -26.9195   14.4954 H         1 UNK         0.0825 
    126 H126      -47.6497  -25.3478   13.9827 H         1 UNK         0.3029 
    127 H127      -49.8959  -23.0595   15.5666 H         1 UNK         0.0897 
    128 H128      -48.1204  -21.4219   15.0022 H         1 UNK         0.0792 
    129 H129      -47.6480  -22.3598   16.4083 H         1 UNK         0.0792 
    130 H130      -46.9327  -22.7165   14.8425 H         1 UNK         0.0792 
    131 H131      -48.5942  -23.0301   13.0186 H         1 UNK         0.3086 
    132 H132      -50.8835  -25.0722   11.2765 H         1 UNK         0.0583 
    133 H133      -50.9798  -22.0329   11.4723 H         1 UNK         0.1020 
    134 H134      -50.8416  -22.7552    9.9104 H         1 UNK         0.1020 
    135 H135      -54.2467  -23.3521    8.8631 H         1 UNK         0.0694 
    136 H136      -52.5596  -23.1549    8.4925 H         1 UNK         0.0694 
    137 H137      -48.7758  -23.5388   10.2598 H         1 UNK         0.2989 
    138 H138      -46.1063  -24.6255   11.2060 H         1 UNK         0.1055 
    139 H139      -46.0156  -27.0797   11.1052 H         1 UNK         0.0806 
    140 H140      -45.1868  -26.4153    9.7097 H         1 UNK         0.0806 
    141 H141      -46.8028  -27.0889    9.5370 H         1 UNK         0.0806 
    142 H142      -47.0773  -24.8545    8.4177 H         1 UNK         0.3061 
    143 H143      -47.1551  -21.3925    7.8943 H         1 UNK         0.0734 
    144 H144      -45.2909  -21.5968    6.2598 H         1 UNK         0.0832 
    145 H145      -44.6604  -21.5312    7.8960 H         1 UNK         0.0832 
    146 H146      -44.7276  -23.0707    7.0507 H         1 UNK         0.0832 
    147 H147      -46.9341  -23.5991    6.0655 H         1 UNK         0.3156 
    148 H148      -50.2121  -24.8099    6.3135 H         1 UNK         0.0589 
    149 H149      -49.1767  -22.9973    4.0688 H         1 UNK         0.0808 
    150 H150      -50.5044  -24.1540    3.9482 H         1 UNK         0.0808 
    151 H151      -50.6604  -22.7415    4.9767 H         1 UNK         0.0808 
    152 H152      -48.3914  -25.4138    4.3128 H         1 UNK         0.3098 
    153 H153      -47.4209  -27.4881    4.3754 H         1 UNK         0.0720 
    154 H154      -44.9410  -27.6214    4.7401 H         1 UNK         0.0791 
    155 H155      -45.0930  -26.6623    6.2113 H         1 UNK         0.0791 
    156 H156      -45.4642  -25.9477    4.6470 H         1 UNK         0.0791 
    157 H157      -46.3361  -28.6885    6.8455 H         1 UNK         0.3028 
@<TRIPOS>BOND
     1    1    2 1    
     2    1   82 1    
     3    1   83 1    
     4    1   84 1    
     5    2    3 2    
     6    2    4 am   BACKBONE|DICT|INTERRES
     7    4    5 1    
     8    4   85 1    
     9    5    6 1    
    10    5   80 1    
    11    5   86 1    
    12    6    7 1    
    13    6   87 1    
    14    6   88 1    
    15    7    8 1    
    16    8    9 1    
    17    8   89 1    
    18    8   90 1    
    19    9   10 ar   
    20    9   14 ar   
    21   10   11 ar   
    22   10   91 1    
    23   11   12 ar   
    24   11   58 1    
    25   12   13 ar   
    26   12   92 1    
    27   13   14 ar   
    28   13   15 1    
    29   14   93 1    
    30   15   16 1    
    31   15   94 1    
    32   15   95 1    
    33   16   17 1    
    34   17   18 1    
    35   17   96 1    
    36   17   97 1    
    37   18   19 1    
    38   18   22 1    
    39   18   98 1    
    40   19   20 am   BACKBONE|DICT|INTERRES
    41   19   21 2    
    42   20   99 1    
    43   20  100 1    
    44   22   23 am   BACKBONE|DICT|INTERRES
    45   22  101 1    
    46   23   24 2    
    47   23   25 1    
    48   25   26 1    
    49   25   27 1    
    50   25  102 1    
    51   26  103 1    
    52   26  104 1    
    53   26  105 1    
    54   27   28 am   BACKBONE|DICT|INTERRES
    55   27  106 1    
    56   28   29 2    
    57   28   30 1    
    58   30   31 1    
    59   30   32 1    
    60   30  107 1    
    61   31  108 1    
    62   31  109 1    
    63   31  110 1    
    64   32   33 am   BACKBONE|DICT|INTERRES
    65   32  111 1    
    66   33   34 2    
    67   33   35 1    
    68   35   36 1    
    69   35   37 1    
    70   35  112 1    
    71   36  113 1    
    72   36  114 1    
    73   36  115 1    
    74   37   38 am   BACKBONE|DICT|INTERRES
    75   37  116 1    
    76   38   39 2    
    77   38   40 1    
    78   40   41 1    
    79   40   42 1    
    80   40  117 1    
    81   41  118 1    
    82   41  119 1    
    83   41  120 1    
    84   42   43 am   BACKBONE|DICT|INTERRES
    85   42  121 1    
    86   43   44 2    
    87   43   45 1    
    88   45   46 1    
    89   45   47 1    
    90   45  122 1    
    91   46  123 1    
    92   46  124 1    
    93   46  125 1    
    94   47   48 am   BACKBONE|DICT|INTERRES
    95   47  126 1    
    96   48   49 2    
    97   48   50 1    
    98   50   51 1    
    99   50   52 1    
   100   50  127 1    
   101   51  128 1    
   102   51  129 1    
   103   51  130 1    
   104   52   53 am   BACKBONE|DICT|INTERRES
   105   52  131 1    
   106   53   54 2    
   107   53   55 1    
   108   55   56 1    
   109   55   59 1    
   110   55  132 1    
   111   56   57 1    
   112   56  133 1    
   113   56  134 1    
   114   57   58 1    
   115   58  135 1    
   116   58  136 1    
   117   59   60 am   BACKBONE|DICT|INTERRES
   118   59  137 1    
   119   60   61 2    
   120   60   62 1    
   121   62   63 1    
   122   62   64 1    
   123   62  138 1    
   124   63  139 1    
   125   63  140 1    
   126   63  141 1    
   127   64   65 am   BACKBONE|DICT|INTERRES
   128   64  142 1    
   129   65   66 2    
   130   65   67 1    
   131   67   68 1    
   132   67   69 1    
   133   67  143 1    
   134   68  144 1    
   135   68  145 1    
   136   68  146 1    
   137   69   70 am   BACKBONE|DICT|INTERRES
   138   69  147 1    
   139   70   71 2    
   140   70   72 1    
   141   72   73 1    
   142   72   74 1    
   143   72  148 1    
   144   73  149 1    
   145   73  150 1    
   146   73  151 1    
   147   74   75 am   BACKBONE|DICT|INTERRES
   148   74  152 1    
   149   75   76 2    
   150   75   77 1    
   151   77   78 1    
   152   77   79 1    
   153   77  153 1    
   154   78  154 1    
   155   78  155 1    
   156   78  156 1    
   157   79   80 am   BACKBONE|DICT|INTERRES
   158   79  157 1    
   159   80   81 2    
@<TRIPOS>SUBSTRUCTURE
     1 UNK         1 GROUP             0       ****    0 ROOT    
