@<TRIPOS>MOLECULE
3R207
157   159    1
SMALL
USER_CHARGES


@<TRIPOS>ATOM
      1 CA        -52.7628  -27.8180    5.8937 C.3       0 UNK        -0.1975 
      2 C         -52.3890  -29.0787    5.1169 C.2       0 UNK         0.4852 
      3 O         -53.1770  -29.5304    4.2875 O.2       0 UNK        -0.5216 
      4 N         -51.2161  -29.6860    5.3456 N.am      1 UNK        -0.4461 
      5 CA        -50.1437  -29.2200    6.2292 C.3       1 UNK         0.0864 
      6 C6        -49.2608  -30.4060    6.6965 C.3       14 UNK        -0.0898 
      7 S7        -48.3243  -30.0245    8.2162 S.3       14 UNK        -0.2598 
      8 C8        -49.3413  -30.8035    9.5153 C.3       14 UNK         0.0286 
      9 C9        -50.7644  -30.2612    9.5440 C.ar      14 UNK        -0.0844 
     10 C10       -50.9994  -28.9115    9.8211 C.ar      14 UNK        -0.0881 
     11 C11       -52.2999  -28.3970    9.7931 C.ar      14 UNK        -0.0643 
     12 C12       -53.3690  -29.2566    9.5368 C.ar      14 UNK        -0.0930 
     13 C13       -53.1578  -30.6220    9.3135 C.ar      14 UNK        -0.0827 
     14 C14       -51.8479  -31.1111    9.3009 C.ar      14 UNK        -0.1249 
     15 C15       -54.3196  -31.6034    9.1683 C.3       14 UNK         0.0141 
     16 S16       -55.8408  -30.8837    8.4576 S.3       14 UNK        -0.2313 
     17 C17       -57.1309  -31.6774    9.4750 C.3       14 UNK        -0.0915 
     18 CA        -57.7211  -30.7281   10.5550 C.3       13 UNK         0.0968 
     19 C         -58.9822  -31.3574   11.2001 C.2       13 UNK         0.5732 
     20 N         -60.1430  -31.1956   10.5804 N.am      13 UNK        -0.7310 
     21 O         -58.9159  -32.0139   12.2391 O.2       13 UNK        -0.5035 
     22 N         -56.7438  -30.3923   11.6025 N.am      13 UNK        -0.4233 
     23 C         -56.2122  -29.1833   11.8082 C.2       13 UNK         0.4989 
     24 O         -56.4096  -28.2075   11.0768 O.2       13 UNK        -0.4996 
     25 CA        -55.3132  -29.0237   13.0460 C.3       12 UNK         0.0216 
     26 CB        -54.0704  -29.9394   12.9959 C.3       12 UNK        -0.1964 
     27 N         -54.9215  -27.6182   13.1333 N.am      12 UNK        -0.4276 
     28 C         -54.3342  -26.9999   14.1622 C.2       12 UNK         0.5020 
     29 O         -54.0152  -27.5679   15.2083 O.2       12 UNK        -0.5489 
     30 CA        -54.0676  -25.4953   13.9553 C.3       11 UNK         0.0294 
     31 CB        -55.3767  -24.6780   13.9514 C.3       11 UNK        -0.2019 
     32 N         -53.0840  -24.9332   14.8899 N.am      11 UNK        -0.4493 
     33 C         -53.1953  -24.6930   16.2058 C.2       11 UNK         0.4932 
     34 O         -54.2249  -24.8442   16.8666 O.2       11 UNK        -0.5029 
     35 CA        -51.9081  -24.1777   16.8812 C.3       10 UNK         0.0280 
     36 CB        -52.0356  -23.9925   18.4088 C.3       10 UNK        -0.1976 
     37 N         -50.7532  -25.0097   16.5248 N.am      10 UNK        -0.4242 
     38 C         -50.5440  -26.2977   16.8387 C.2       10 UNK         0.5072 
     39 O         -51.2292  -26.9398   17.6356 O.2       10 UNK        -0.5224 
     40 CA        -49.3825  -27.0119   16.1231 C.3       9 UNK         0.0343 
     41 CB        -49.9300  -27.8650   14.9655 C.3       9 UNK        -0.2003 
     42 N         -48.3547  -26.1052   15.6027 N.am      9 UNK        -0.4272 
     43 C         -47.4753  -25.4300   16.3562 C.2       9 UNK         0.4988 
     44 O         -47.4136  -25.5195   17.5830 O.2       9 UNK        -0.5108 
     45 CA        -46.5086  -24.4847   15.6200 C.3       8 UNK         0.0248 
     46 CB        -45.3260  -25.2676   15.0271 C.3       8 UNK        -0.2001 
     47 N         -47.1604  -23.6987   14.5676 N.am      8 UNK        -0.4140 
     48 C         -48.1041  -22.7709   14.7893 C.2       8 UNK         0.5028 
     49 O         -48.5002  -22.4481   15.9094 O.2       8 UNK        -0.5428 
     50 CA        -48.7475  -22.1178   13.5543 C.3       7 UNK         0.0264 
     51 CB        -47.8435  -21.0147   12.9814 C.3       7 UNK        -0.1988 
     52 N         -49.0784  -23.0874   12.5074 N.am      7 UNK        -0.4454 
     53 C         -49.9599  -24.0874   12.6562 C.2       7 UNK         0.5027 
     54 O         -50.6333  -24.2595   13.6725 O.2       7 UNK        -0.5083 
     55 CA        -50.0908  -25.0965   11.5017 C.3       6 UNK         0.0844 
     56 C56       -51.0809  -24.5768   10.4298 C.3       14 UNK        -0.0967 
     57 S57       -51.4592  -25.8228    9.1558 S.3       14 UNK        -0.2604 
     58 C58       -52.5716  -26.9281   10.0829 C.3       14 UNK         0.0134 
     59 N         -48.7860  -25.4786   10.9566 N.am      6 UNK        -0.4116 
     60 C         -47.8227  -26.0988   11.6534 C.2       5 UNK         0.5034 
     61 O         -47.9491  -26.4689   12.8190 O.2       5 UNK        -0.5045 
     62 CA        -46.4663  -26.2819   10.9601 C.3       5 UNK         0.0224 
     63 CB        -46.4722  -27.5104   10.0388 C.3       5 UNK        -0.1978 
     64 N         -46.0789  -25.0886   10.2075 N.am      5 UNK        -0.4737 
     65 C         -45.7218  -23.9280   10.7740 C.2       4 UNK         0.5027 
     66 O         -45.6364  -23.7593   11.9905 O.2       4 UNK        -0.5211 
     67 CA        -45.4514  -22.7500    9.8232 C.3       4 UNK         0.0297 
     68 CB        -44.0074  -22.7989    9.2999 C.3       4 UNK        -0.1993 
     69 N         -46.3846  -22.7054    8.6932 N.am      4 UNK        -0.4486 
     70 C         -47.6968  -22.4592    8.8109 C.2       3 UNK         0.4961 
     71 O         -48.2574  -22.2252    9.8814 O.2       3 UNK        -0.5105 
     72 CA        -48.5359  -22.5308    7.5229 C.3       3 UNK         0.0299 
     73 CB        -48.4270  -21.2159    6.7346 C.3       3 UNK        -0.1972 
     74 N         -48.2202  -23.6645    6.6423 N.am      3 UNK        -0.4305 
     75 C         -48.2258  -24.9506    7.0175 C.2       2 UNK         0.5006 
     76 O         -48.3552  -25.3265    8.1833 O.2       2 UNK        -0.5106 
     77 CA        -48.0399  -26.0048    5.9247 C.3       2 UNK         0.0296 
     78 CB        -46.5530  -26.3594    5.7493 C.3       2 UNK        -0.2002 
     79 N         -48.7904  -27.1845    6.3414 N.am      2 UNK        -0.4032 
     80 C         -49.3157  -28.1143    5.5390 C.2       1 UNK         0.5000 
     81 O         -49.1719  -28.1243    4.3130 O.2       1 UNK        -0.5238 
     82 H82       -52.8397  -28.0301    6.9588 H         1 UNK         0.0889 
     83 H83       -53.7299  -27.4389    5.5641 H         1 UNK         0.0889 
     84 H84       -52.0303  -27.0257    5.7445 H         1 UNK         0.0889 
     85 H85       -50.9862  -30.4975    4.7907 H         1 UNK         0.3028 
     86 H86       -50.6128  -28.7840    7.1111 H         1 UNK         0.0864 
     87 H87       -48.5619  -30.7110    5.9151 H         1 UNK         0.0720 
     88 H88       -49.8803  -31.2822    6.8954 H         1 UNK         0.0720 
     89 H89       -48.8730  -30.6255   10.4843 H         1 UNK         0.0814 
     90 H90       -49.3378  -31.8845    9.3669 H         1 UNK         0.0814 
     91 H91       -50.1651  -28.2560   10.0314 H         1 UNK         0.1469 
     92 H92       -54.3727  -28.8588    9.5488 H         1 UNK         0.1381 
     93 H93       -51.6726  -32.1630    9.1206 H         1 UNK         0.1206 
     94 H94       -54.0236  -32.4519    8.5498 H         1 UNK         0.0813 
     95 H95       -54.5290  -32.0016   10.1615 H         1 UNK         0.0813 
     96 H96       -56.7467  -32.5932    9.9273 H         1 UNK         0.0638 
     97 H97       -57.9146  -31.9952    8.7846 H         1 UNK         0.0638 
     98 H98       -58.0498  -29.8129   10.0584 H         1 UNK         0.0568 
     99 H99       -60.9720  -31.6077   10.9794 H         1 UNK         0.3450 
    100 H100      -60.2084  -30.6698    9.7226 H         1 UNK         0.3450 
    101 H101      -56.5876  -31.1237   12.2819 H         1 UNK         0.2987 
    102 H102      -55.9126  -29.2733   13.9237 H         1 UNK         0.0766 
    103 H103      -54.3363  -30.9779   12.7976 H         1 UNK         0.0798 
    104 H104      -53.5343  -29.9281   13.9448 H         1 UNK         0.0798 
    105 H105      -53.3679  -29.6282   12.2249 H         1 UNK         0.0798 
    106 H106      -55.2135  -27.0868   12.3202 H         1 UNK         0.3198 
    107 H107      -53.6099  -25.3901   12.9704 H         1 UNK         0.0843 
    108 H108      -55.9404  -24.8075   14.8757 H         1 UNK         0.0831 
    109 H109      -56.0302  -24.9830   13.1335 H         1 UNK         0.0831 
    110 H110      -55.1800  -23.6134   13.8249 H         1 UNK         0.0831 
    111 H111      -52.1691  -24.7520   14.4778 H         1 UNK         0.3133 
    112 H112      -51.7097  -23.1945   16.4514 H         1 UNK         0.0566 
    113 H113      -51.1027  -23.6335   18.8434 H         1 UNK         0.0814 
    114 H114      -52.8078  -23.2599   18.6460 H         1 UNK         0.0814 
    115 H115      -52.3072  -24.9200   18.9133 H         1 UNK         0.0814 
    116 H116      -50.1384  -24.6057   15.8286 H         1 UNK         0.3091 
    117 H117      -48.9110  -27.6796   16.8472 H         1 UNK         0.0702 
    118 H118      -50.6841  -28.5698   15.3192 H         1 UNK         0.0785 
    119 H119      -50.3986  -27.2470   14.1985 H         1 UNK         0.0785 
    120 H120      -49.1392  -28.4461   14.4907 H         1 UNK         0.0785 
    121 H121      -48.2827  -26.0382   14.5892 H         1 UNK         0.2998 
    122 H122      -46.1113  -23.7822   16.3557 H         1 UNK         0.0697 
    123 H123      -45.6511  -25.9774   14.2661 H         1 UNK         0.0825 
    124 H124      -44.8054  -25.8337   15.8006 H         1 UNK         0.0825 
    125 H125      -44.5976  -24.5984   14.5689 H         1 UNK         0.0825 
    126 H126      -46.8508  -23.8635   13.6141 H         1 UNK         0.3029 
    127 H127      -49.6818  -21.6539   13.8784 H         1 UNK         0.0897 
    128 H128      -48.3304  -20.4923   12.1577 H         1 UNK         0.0792 
    129 H129      -46.9000  -21.4154   12.6103 H         1 UNK         0.0792 
    130 H130      -47.6058  -20.2703   13.7424 H         1 UNK         0.0792 
    131 H131      -48.6165  -22.9662   11.6087 H         1 UNK         0.3086 
    132 H132      -50.5106  -26.0022   11.9417 H         1 UNK         0.0583 
    133 H133      -52.0208  -24.2584   10.8858 H         1 UNK         0.1020 
    134 H134      -50.6736  -23.6953    9.9314 H         1 UNK         0.1020 
    135 H135      -52.4746  -26.7741   11.1567 H         1 UNK         0.0694 
    136 H136      -53.5998  -26.6647    9.8295 H         1 UNK         0.0694 
    137 H137      -48.6176  -25.2615    9.9757 H         1 UNK         0.2989 
    138 H138      -45.7192  -26.4487   11.7393 H         1 UNK         0.1055 
    139 H139      -46.7406  -28.4109   10.5930 H         1 UNK         0.0806 
    140 H140      -45.4899  -27.6824    9.5989 H         1 UNK         0.0806 
    141 H141      -47.1886  -27.4068    9.2248 H         1 UNK         0.0806 
    142 H142      -46.2068  -25.1195    9.2059 H         1 UNK         0.3061 
    143 H143      -45.5744  -21.8287   10.3968 H         1 UNK         0.0734 
    144 H144      -43.2953  -22.8139   10.1263 H         1 UNK         0.0832 
    145 H145      -43.7755  -21.9247    8.6913 H         1 UNK         0.0832 
    146 H146      -43.8236  -23.6885    8.6961 H         1 UNK         0.0832 
    147 H147      -46.0112  -22.8955    7.7746 H         1 UNK         0.3156 
    148 H148      -49.5773  -22.6514    7.8284 H         1 UNK         0.0589 
    149 H149      -47.4198  -21.0569    6.3474 H         1 UNK         0.0808 
    150 H150      -49.1180  -21.1992    5.8916 H         1 UNK         0.0808 
    151 H151      -48.6718  -20.3607    7.3665 H         1 UNK         0.0808 
    152 H152      -48.0814  -23.4484    5.6653 H         1 UNK         0.3098 
    153 H153      -48.4482  -25.6230    4.9866 H         1 UNK         0.0720 
    154 H154      -46.4151  -27.1136    4.9743 H         1 UNK         0.0791 
    155 H155      -46.1208  -26.7481    6.6726 H         1 UNK         0.0791 
    156 H156      -45.9718  -25.4843    5.4564 H         1 UNK         0.0791 
    157 H157      -48.9672  -27.2170    7.3389 H         1 UNK         0.3028 
@<TRIPOS>BOND
     1    1    2 1    
     2    1   82 1    
     3    1   83 1    
     4    1   84 1    
     5    2    3 2    
     6    2    4 am   BACKBONE|DICT|INTERRES
     7    4    5 1    
     8    4   85 1    
     9    5    6 1    
    10    5   80 1    
    11    5   86 1    
    12    6    7 1    
    13    6   87 1    
    14    6   88 1    
    15    7    8 1    
    16    8    9 1    
    17    8   89 1    
    18    8   90 1    
    19    9   10 ar   
    20    9   14 ar   
    21   10   11 ar   
    22   10   91 1    
    23   11   12 ar   
    24   11   58 1    
    25   12   13 ar   
    26   12   92 1    
    27   13   14 ar   
    28   13   15 1    
    29   14   93 1    
    30   15   16 1    
    31   15   94 1    
    32   15   95 1    
    33   16   17 1    
    34   17   18 1    
    35   17   96 1    
    36   17   97 1    
    37   18   19 1    
    38   18   22 1    
    39   18   98 1    
    40   19   20 am   BACKBONE|DICT|INTERRES
    41   19   21 2    
    42   20   99 1    
    43   20  100 1    
    44   22   23 am   BACKBONE|DICT|INTERRES
    45   22  101 1    
    46   23   24 2    
    47   23   25 1    
    48   25   26 1    
    49   25   27 1    
    50   25  102 1    
    51   26  103 1    
    52   26  104 1    
    53   26  105 1    
    54   27   28 am   BACKBONE|DICT|INTERRES
    55   27  106 1    
    56   28   29 2    
    57   28   30 1    
    58   30   31 1    
    59   30   32 1    
    60   30  107 1    
    61   31  108 1    
    62   31  109 1    
    63   31  110 1    
    64   32   33 am   BACKBONE|DICT|INTERRES
    65   32  111 1    
    66   33   34 2    
    67   33   35 1    
    68   35   36 1    
    69   35   37 1    
    70   35  112 1    
    71   36  113 1    
    72   36  114 1    
    73   36  115 1    
    74   37   38 am   BACKBONE|DICT|INTERRES
    75   37  116 1    
    76   38   39 2    
    77   38   40 1    
    78   40   41 1    
    79   40   42 1    
    80   40  117 1    
    81   41  118 1    
    82   41  119 1    
    83   41  120 1    
    84   42   43 am   BACKBONE|DICT|INTERRES
    85   42  121 1    
    86   43   44 2    
    87   43   45 1    
    88   45   46 1    
    89   45   47 1    
    90   45  122 1    
    91   46  123 1    
    92   46  124 1    
    93   46  125 1    
    94   47   48 am   BACKBONE|DICT|INTERRES
    95   47  126 1    
    96   48   49 2    
    97   48   50 1    
    98   50   51 1    
    99   50   52 1    
   100   50  127 1    
   101   51  128 1    
   102   51  129 1    
   103   51  130 1    
   104   52   53 am   BACKBONE|DICT|INTERRES
   105   52  131 1    
   106   53   54 2    
   107   53   55 1    
   108   55   56 1    
   109   55   59 1    
   110   55  132 1    
   111   56   57 1    
   112   56  133 1    
   113   56  134 1    
   114   57   58 1    
   115   58  135 1    
   116   58  136 1    
   117   59   60 am   BACKBONE|DICT|INTERRES
   118   59  137 1    
   119   60   61 2    
   120   60   62 1    
   121   62   63 1    
   122   62   64 1    
   123   62  138 1    
   124   63  139 1    
   125   63  140 1    
   126   63  141 1    
   127   64   65 am   BACKBONE|DICT|INTERRES
   128   64  142 1    
   129   65   66 2    
   130   65   67 1    
   131   67   68 1    
   132   67   69 1    
   133   67  143 1    
   134   68  144 1    
   135   68  145 1    
   136   68  146 1    
   137   69   70 am   BACKBONE|DICT|INTERRES
   138   69  147 1    
   139   70   71 2    
   140   70   72 1    
   141   72   73 1    
   142   72   74 1    
   143   72  148 1    
   144   73  149 1    
   145   73  150 1    
   146   73  151 1    
   147   74   75 am   BACKBONE|DICT|INTERRES
   148   74  152 1    
   149   75   76 2    
   150   75   77 1    
   151   77   78 1    
   152   77   79 1    
   153   77  153 1    
   154   78  154 1    
   155   78  155 1    
   156   78  156 1    
   157   79   80 am   BACKBONE|DICT|INTERRES
   158   79  157 1    
   159   80   81 2    
@<TRIPOS>SUBSTRUCTURE
     1 UNK         1 GROUP             0       ****    0 ROOT    
