@<TRIPOS>MOLECULE
3R207
157   159    1
SMALL
USER_CHARGES


@<TRIPOS>ATOM
      1 CA        -49.7277  -28.4723    1.4557 C.3       0 UNK        -0.1975 
      2 C         -50.2019  -27.6047    2.6124 C.2       0 UNK         0.4852 
      3 O         -50.9045  -26.6177    2.3884 O.2       0 UNK        -0.5216 
      4 N         -49.8313  -27.9705    3.8461 N.am      1 UNK        -0.4461 
      5 CA        -50.1492  -27.2344    5.0737 C.3       1 UNK         0.0864 
      6 C6        -49.8688  -28.0832    6.3379 C.3       14 UNK        -0.0898 
      7 S7        -50.9706  -29.5355    6.4255 S.3       14 UNK        -0.2598 
      8 C8        -52.0153  -29.1313    7.8706 C.3       14 UNK         0.0286 
      9 C9        -51.4861  -29.6100    9.2258 C.ar      14 UNK        -0.0844 
     10 C10       -50.1479  -29.9689    9.4423 C.ar      14 UNK        -0.0881 
     11 C11       -49.7229  -30.4309   10.6922 C.ar      14 UNK        -0.0643 
     12 C12       -50.6423  -30.5264   11.7400 C.ar      14 UNK        -0.0930 
     13 C13       -51.9771  -30.1603   11.5460 C.ar      14 UNK        -0.0827 
     14 C14       -52.3862  -29.6945   10.2926 C.ar      14 UNK        -0.1249 
     15 C15       -52.9693  -30.2384   12.6971 C.3       14 UNK         0.0141 
     16 S16       -54.3949  -31.3059   12.3232 S.3       14 UNK        -0.2313 
     17 C17       -55.5113  -30.8774   13.7032 C.3       14 UNK        -0.0915 
     18 CA        -56.5908  -29.8415   13.2855 C.3       13 UNK         0.0968 
     19 C         -57.6948  -29.6674   14.3692 C.2       13 UNK         0.5732 
     20 N         -58.0813  -28.4547   14.7524 N.am      13 UNK        -0.7310 
     21 O         -58.2389  -30.6559   14.8564 O.2       13 UNK        -0.5035 
     22 N         -55.9778  -28.5646   12.8971 N.am      13 UNK        -0.4233 
     23 C         -56.1749  -27.9261   11.7379 C.2       13 UNK         0.4989 
     24 O         -56.8590  -28.3779   10.8179 O.2       13 UNK        -0.4996 
     25 CA        -55.4837  -26.5566   11.5589 C.3       12 UNK         0.0216 
     26 CB        -56.3220  -25.5853   10.7015 C.3       12 UNK        -0.1964 
     27 N         -55.0710  -25.9060   12.8099 N.am      12 UNK        -0.4276 
     28 C         -55.8428  -25.5558   13.8471 C.2       12 UNK         0.5020 
     29 O         -57.0575  -25.7644   13.8978 O.2       12 UNK        -0.5489 
     30 CA        -55.1122  -24.9245   15.0500 C.3       11 UNK         0.0294 
     31 CB        -56.0645  -24.6354   16.2288 C.3       11 UNK        -0.2019 
     32 N         -53.9591  -25.7016   15.5310 N.am      11 UNK        -0.4493 
     33 C         -53.9183  -27.0108   15.8318 C.2       11 UNK         0.4932 
     34 O         -54.8414  -27.7927   15.6017 O.2       11 UNK        -0.5029 
     35 CA        -52.6452  -27.5493   16.5143 C.3       10 UNK         0.0280 
     36 CB        -52.2559  -28.9434   15.9990 C.3       10 UNK        -0.1976 
     37 N         -51.4949  -26.6567   16.3633 N.am      10 UNK        -0.4242 
     38 C         -51.0741  -25.7822   17.2859 C.2       10 UNK         0.5072 
     39 O         -51.6126  -25.6233   18.3820 O.2       10 UNK        -0.5224 
     40 CA        -49.8568  -24.9182   16.9147 C.3       9 UNK         0.0343 
     41 CB        -48.5515  -25.6944   17.1510 C.3       9 UNK        -0.2003 
     42 N         -49.8841  -24.4190   15.5370 N.am      9 UNK        -0.4272 
     43 C         -50.8350  -23.6241   15.0231 C.2       9 UNK         0.4988 
     44 O         -51.8321  -23.2511   15.6419 O.2       9 UNK        -0.5108 
     45 CA        -50.6555  -23.1979   13.5588 C.3       8 UNK         0.0248 
     46 CB        -49.5553  -22.1326   13.4184 C.3       8 UNK        -0.2001 
     47 N         -50.3551  -24.3435   12.7013 N.am      8 UNK        -0.4140 
     48 C         -51.2564  -25.2718   12.3538 C.2       8 UNK         0.5028 
     49 O         -52.4425  -25.2266   12.6734 O.2       8 UNK        -0.5428 
     50 CA        -50.7476  -26.4673   11.5352 C.3       7 UNK         0.0264 
     51 CB        -50.6997  -26.1137   10.0416 C.3       7 UNK        -0.1988 
     52 N         -49.4315  -26.9406   11.9640 N.am      7 UNK        -0.4454 
     53 C         -49.1443  -27.4180   13.1838 C.2       7 UNK         0.5027 
     54 O         -49.9652  -27.5179   14.0950 O.2       7 UNK        -0.5083 
     55 CA        -47.6690  -27.7729   13.4532 C.3       6 UNK         0.0844 
     56 C56       -47.3315  -29.2224   13.0209 C.3       14 UNK        -0.0967 
     57 S57       -47.1709  -29.4567   11.2129 S.3       14 UNK        -0.2604 
     58 C58       -48.2778  -30.8646   10.8902 C.3       14 UNK         0.0134 
     59 N         -46.7452  -26.7818   12.8889 N.am      6 UNK        -0.4116 
     60 C         -46.7307  -25.4740   13.1798 C.2       5 UNK         0.5034 
     61 O         -47.4711  -24.9522   14.0139 O.2       5 UNK        -0.5045 
     62 CA        -45.7893  -24.5769   12.3599 C.3       5 UNK         0.0224 
     63 CB        -44.3419  -24.6457   12.8848 C.3       5 UNK        -0.1978 
     64 N         -45.8711  -24.8094   10.9085 N.am      5 UNK        -0.4737 
     65 C         -45.4580  -25.8684   10.1948 C.2       4 UNK         0.5027 
     66 O         -44.8872  -26.8397   10.6895 O.2       4 UNK        -0.5211 
     67 CA        -45.7745  -25.8743    8.6875 C.3       4 UNK         0.0297 
     68 CB        -46.7625  -27.0031    8.3468 C.3       4 UNK        -0.1993 
     69 N         -46.3386  -24.6077    8.2162 N.am      4 UNK        -0.4486 
     70 C         -45.6407  -23.5285    7.8474 C.2       3 UNK         0.4961 
     71 O         -44.4095  -23.4866    7.8397 O.2       3 UNK        -0.5105 
     72 CA        -46.4660  -22.2909    7.4290 C.3       3 UNK         0.0299 
     73 CB        -45.5833  -21.1386    6.9133 C.3       3 UNK        -0.1972 
     74 N         -47.4922  -22.5867    6.4218 N.am      3 UNK        -0.4305 
     75 C         -48.6403  -23.2472    6.6272 C.2       2 UNK         0.5006 
     76 O         -48.9653  -23.7148    7.7214 O.2       2 UNK        -0.5106 
     77 CA        -49.5940  -23.4200    5.4288 C.3       2 UNK         0.0296 
     78 CB        -49.0184  -22.9429    4.0741 C.3       2 UNK        -0.2002 
     79 N         -50.0945  -24.7963    5.3308 N.am      2 UNK        -0.4032 
     80 C         -49.3695  -25.9050    5.1160 C.2       1 UNK         0.5000 
     81 O         -48.1458  -25.9181    4.9568 O.2       1 UNK        -0.5238 
     82 H82       -49.1268  -29.3149    1.7976 H         1 UNK         0.0889 
     83 H83       -49.1234  -27.8818    0.7676 H         1 UNK         0.0889 
     84 H84       -50.5829  -28.8664    0.9072 H         1 UNK         0.0889 
     85 H85       -49.2476  -28.7851    3.9692 H         1 UNK         0.3028 
     86 H86       -51.2169  -27.0037    5.0523 H         1 UNK         0.0864 
     87 H87       -49.9888  -27.4828    7.2399 H         1 UNK         0.0720 
     88 H88       -48.8353  -28.4341    6.3464 H         1 UNK         0.0720 
     89 H89       -52.9889  -29.5929    7.6983 H         1 UNK         0.0814 
     90 H90       -52.1964  -28.0566    7.9104 H         1 UNK         0.0814 
     91 H91       -49.4255  -29.9040    8.6417 H         1 UNK         0.1469 
     92 H92       -50.3171  -30.8857   12.7064 H         1 UNK         0.1381 
     93 H93       -53.4197  -29.4102   10.1459 H         1 UNK         0.1206 
     94 H94       -53.3077  -29.2294   12.9339 H         1 UNK         0.0813 
     95 H95       -52.4869  -30.6332   13.5912 H         1 UNK         0.0813 
     96 H96       -54.9322  -30.5119   14.5529 H         1 UNK         0.0638 
     97 H97       -55.9785  -31.8071   14.0323 H         1 UNK         0.0638 
     98 H98       -57.1197  -30.2627   12.4292 H         1 UNK         0.0568 
     99 H99       -58.8030  -28.3701   15.4493 H         1 UNK         0.3450 
    100 H100      -57.6560  -27.6177   14.3666 H         1 UNK         0.3450 
    101 H101      -55.4600  -28.1018   13.6359 H         1 UNK         0.2987 
    102 H102      -54.5600  -26.7621   11.0157 H         1 UNK         0.0766 
    103 H103      -55.8050  -24.6363   10.5587 H         1 UNK         0.0798 
    104 H104      -57.2889  -25.3754   11.1601 H         1 UNK         0.0798 
    105 H105      -56.5142  -25.9982    9.7104 H         1 UNK         0.0798 
    106 H106      -54.0727  -25.6821   12.8676 H         1 UNK         0.3198 
    107 H107      -54.7155  -23.9700   14.6998 H         1 UNK         0.0843 
    108 H108      -56.5011  -25.5527   16.6261 H         1 UNK         0.0831 
    109 H109      -56.8872  -23.9895   15.9195 H         1 UNK         0.0831 
    110 H110      -55.5458  -24.1301   17.0434 H         1 UNK         0.0831 
    111 H111      -53.1251  -25.1561   15.7119 H         1 UNK         0.3133 
    112 H112      -52.8922  -27.6562   17.5722 H         1 UNK         0.0566 
    113 H113      -51.4088  -29.3464   16.5539 H         1 UNK         0.0814 
    114 H114      -53.0758  -29.6554   16.1001 H         1 UNK         0.0814 
    115 H115      -51.9736  -28.9031   14.9497 H         1 UNK         0.0814 
    116 H116      -50.9657  -26.7534   15.4981 H         1 UNK         0.3091 
    117 H117      -49.8584  -24.0480   17.5743 H         1 UNK         0.0702 
    118 H118      -47.6783  -25.0682   16.9663 H         1 UNK         0.0785 
    119 H119      -48.4797  -26.5672   16.5013 H         1 UNK         0.0785 
    120 H120      -48.4867  -26.0468   18.1813 H         1 UNK         0.0785 
    121 H121      -49.0876  -24.6634   14.9533 H         1 UNK         0.2998 
    122 H122      -51.5955  -22.7547   13.2219 H         1 UNK         0.0697 
    123 H123      -48.5795  -22.5049   13.7315 H         1 UNK         0.0825 
    124 H124      -49.7810  -21.2597   14.0324 H         1 UNK         0.0825 
    125 H125      -49.4674  -21.7878   12.3880 H         1 UNK         0.0825 
    126 H126      -49.3916  -24.4795   12.4352 H         1 UNK         0.3029 
    127 H127      -51.4539  -27.2875   11.6761 H         1 UNK         0.0897 
    128 H128      -50.0247  -25.2811    9.8393 H         1 UNK         0.0792 
    129 H129      -51.6877  -25.8312    9.6756 H         1 UNK         0.0792 
    130 H130      -50.3658  -26.9644    9.4512 H         1 UNK         0.0792 
    131 H131      -48.6924  -26.9303   11.2776 H         1 UNK         0.3086 
    132 H132      -47.5386  -27.7266   14.5361 H         1 UNK         0.0583 
    133 H133      -46.3802  -29.5135   13.4687 H         1 UNK         0.1020 
    134 H134      -48.0638  -29.9212   13.4296 H         1 UNK         0.1020 
    135 H135      -47.9314  -31.3741    9.9897 H         1 UNK         0.0694 
    136 H136      -48.1965  -31.5965   11.6953 H         1 UNK         0.0694 
    137 H137      -46.1066  -27.1097   12.1687 H         1 UNK         0.2989 
    138 H138      -46.1347  -23.5526   12.5118 H         1 UNK         0.1055 
    139 H139      -44.2970  -24.3494   13.9337 H         1 UNK         0.0806 
    140 H140      -43.6876  -23.9731   12.3303 H         1 UNK         0.0806 
    141 H141      -43.9241  -25.6504   12.8176 H         1 UNK         0.0806 
    142 H142      -46.3428  -24.0833   10.3878 H         1 UNK         0.3061 
    143 H143      -44.8389  -26.0675    8.1585 H         1 UNK         0.0734 
    144 H144      -46.9571  -27.0436    7.2751 H         1 UNK         0.0832 
    145 H145      -46.3615  -27.9754    8.6359 H         1 UNK         0.0832 
    146 H146      -47.7177  -26.8780    8.8577 H         1 UNK         0.0832 
    147 H147      -47.3531  -24.5363    8.1670 H         1 UNK         0.3156 
    148 H148      -46.9724  -21.9357    8.3289 H         1 UNK         0.0589 
    149 H149      -45.0363  -21.4210    6.0129 H         1 UNK         0.0808 
    150 H150      -46.1778  -20.2544    6.6825 H         1 UNK         0.0808 
    151 H151      -44.8477  -20.8420    7.6624 H         1 UNK         0.0808 
    152 H152      -47.2927  -22.2780    5.4813 H         1 UNK         0.3098 
    153 H153      -50.4623  -22.7981    5.6506 H         1 UNK         0.0720 
    154 H154      -49.7391  -23.0960    3.2706 H         1 UNK         0.0791 
    155 H155      -48.1075  -23.4769    3.8002 H         1 UNK         0.0791 
    156 H156      -48.7899  -21.8765    4.0916 H         1 UNK         0.0791 
    157 H157      -51.0891  -24.8997    5.4753 H         1 UNK         0.3028 
@<TRIPOS>BOND
     1    1    2 1    
     2    1   82 1    
     3    1   83 1    
     4    1   84 1    
     5    2    3 2    
     6    2    4 am   BACKBONE|DICT|INTERRES
     7    4    5 1    
     8    4   85 1    
     9    5    6 1    
    10    5   80 1    
    11    5   86 1    
    12    6    7 1    
    13    6   87 1    
    14    6   88 1    
    15    7    8 1    
    16    8    9 1    
    17    8   89 1    
    18    8   90 1    
    19    9   10 ar   
    20    9   14 ar   
    21   10   11 ar   
    22   10   91 1    
    23   11   12 ar   
    24   11   58 1    
    25   12   13 ar   
    26   12   92 1    
    27   13   14 ar   
    28   13   15 1    
    29   14   93 1    
    30   15   16 1    
    31   15   94 1    
    32   15   95 1    
    33   16   17 1    
    34   17   18 1    
    35   17   96 1    
    36   17   97 1    
    37   18   19 1    
    38   18   22 1    
    39   18   98 1    
    40   19   20 am   BACKBONE|DICT|INTERRES
    41   19   21 2    
    42   20   99 1    
    43   20  100 1    
    44   22   23 am   BACKBONE|DICT|INTERRES
    45   22  101 1    
    46   23   24 2    
    47   23   25 1    
    48   25   26 1    
    49   25   27 1    
    50   25  102 1    
    51   26  103 1    
    52   26  104 1    
    53   26  105 1    
    54   27   28 am   BACKBONE|DICT|INTERRES
    55   27  106 1    
    56   28   29 2    
    57   28   30 1    
    58   30   31 1    
    59   30   32 1    
    60   30  107 1    
    61   31  108 1    
    62   31  109 1    
    63   31  110 1    
    64   32   33 am   BACKBONE|DICT|INTERRES
    65   32  111 1    
    66   33   34 2    
    67   33   35 1    
    68   35   36 1    
    69   35   37 1    
    70   35  112 1    
    71   36  113 1    
    72   36  114 1    
    73   36  115 1    
    74   37   38 am   BACKBONE|DICT|INTERRES
    75   37  116 1    
    76   38   39 2    
    77   38   40 1    
    78   40   41 1    
    79   40   42 1    
    80   40  117 1    
    81   41  118 1    
    82   41  119 1    
    83   41  120 1    
    84   42   43 am   BACKBONE|DICT|INTERRES
    85   42  121 1    
    86   43   44 2    
    87   43   45 1    
    88   45   46 1    
    89   45   47 1    
    90   45  122 1    
    91   46  123 1    
    92   46  124 1    
    93   46  125 1    
    94   47   48 am   BACKBONE|DICT|INTERRES
    95   47  126 1    
    96   48   49 2    
    97   48   50 1    
    98   50   51 1    
    99   50   52 1    
   100   50  127 1    
   101   51  128 1    
   102   51  129 1    
   103   51  130 1    
   104   52   53 am   BACKBONE|DICT|INTERRES
   105   52  131 1    
   106   53   54 2    
   107   53   55 1    
   108   55   56 1    
   109   55   59 1    
   110   55  132 1    
   111   56   57 1    
   112   56  133 1    
   113   56  134 1    
   114   57   58 1    
   115   58  135 1    
   116   58  136 1    
   117   59   60 am   BACKBONE|DICT|INTERRES
   118   59  137 1    
   119   60   61 2    
   120   60   62 1    
   121   62   63 1    
   122   62   64 1    
   123   62  138 1    
   124   63  139 1    
   125   63  140 1    
   126   63  141 1    
   127   64   65 am   BACKBONE|DICT|INTERRES
   128   64  142 1    
   129   65   66 2    
   130   65   67 1    
   131   67   68 1    
   132   67   69 1    
   133   67  143 1    
   134   68  144 1    
   135   68  145 1    
   136   68  146 1    
   137   69   70 am   BACKBONE|DICT|INTERRES
   138   69  147 1    
   139   70   71 2    
   140   70   72 1    
   141   72   73 1    
   142   72   74 1    
   143   72  148 1    
   144   73  149 1    
   145   73  150 1    
   146   73  151 1    
   147   74   75 am   BACKBONE|DICT|INTERRES
   148   74  152 1    
   149   75   76 2    
   150   75   77 1    
   151   77   78 1    
   152   77   79 1    
   153   77  153 1    
   154   78  154 1    
   155   78  155 1    
   156   78  156 1    
   157   79   80 am   BACKBONE|DICT|INTERRES
   158   79  157 1    
   159   80   81 2    
@<TRIPOS>SUBSTRUCTURE
     1 UNK         1 GROUP             0       ****    0 ROOT    
