@<TRIPOS>MOLECULE
3R207
157   159    1
SMALL
USER_CHARGES


@<TRIPOS>ATOM
      1 CA        -48.9156  -27.6120    4.1289 C.3       0 UNK        -0.1975 
      2 C         -49.7356  -26.6144    4.9320 C.2       0 UNK         0.4852 
      3 O         -49.7858  -25.4359    4.5756 O.2       0 UNK        -0.5216 
      4 N         -50.3709  -27.0702    6.0207 N.am      1 UNK        -0.4461 
      5 CA        -51.1596  -26.2429    6.9397 C.3       1 UNK         0.0864 
      6 C6        -51.8786  -27.0822    8.0221 C.3       14 UNK        -0.0898 
      7 S7        -53.0918  -28.2647    7.3469 S.3       14 UNK        -0.2598 
      8 C8        -52.2282  -29.8663    7.4789 C.3       14 UNK         0.0286 
      9 C9        -51.8146  -30.2079    8.9051 C.ar      14 UNK        -0.0844 
     10 C10       -50.4609  -30.2724    9.2462 C.ar      14 UNK        -0.0881 
     11 C11       -50.0694  -30.5826   10.5515 C.ar      14 UNK        -0.0643 
     12 C12       -51.0448  -30.8529   11.5151 C.ar      14 UNK        -0.0930 
     13 C13       -52.4045  -30.8095   11.1876 C.ar      14 UNK        -0.0827 
     14 C14       -52.7805  -30.4721    9.8803 C.ar      14 UNK        -0.1249 
     15 C15       -53.4386  -31.0768   12.2785 C.3       14 UNK         0.0141 
     16 S16       -54.9714  -31.8744   11.6919 S.3       14 UNK        -0.2313 
     17 C17       -56.1863  -31.1828   12.8660 C.3       14 UNK        -0.0915 
     18 CA        -56.8772  -29.9077   12.3075 C.3       13 UNK         0.0968 
     19 C         -58.0825  -29.4593   13.1856 C.2       13 UNK         0.5732 
     20 N         -58.2281  -28.1855   13.5356 N.am      13 UNK        -0.7310 
     21 O         -58.9232  -30.2819   13.5427 O.2       13 UNK        -0.5035 
     22 N         -55.9014  -28.8310   12.0887 N.am      13 UNK        -0.4233 
     23 C         -55.7779  -28.1026   10.9722 C.2       13 UNK         0.4989 
     24 O         -56.4502  -28.2888    9.9565 O.2       13 UNK        -0.4996 
     25 CA        -54.7256  -26.9696   10.9978 C.3       12 UNK         0.0216 
     26 CB        -55.0661  -25.8256   10.0195 C.3       12 UNK        -0.1964 
     27 N         -54.4610  -26.4330   12.3421 N.am      12 UNK        -0.4276 
     28 C         -55.3533  -25.9283   13.2088 C.2       12 UNK         0.5020 
     29 O         -56.5529  -25.8016   12.9559 O.2       12 UNK        -0.5489 
     30 CA        -54.8271  -25.5597   14.6113 C.3       11 UNK         0.0294 
     31 CB        -55.9291  -25.6486   15.6886 C.3       11 UNK        -0.2019 
     32 N         -53.6422  -26.3235   15.0355 N.am      11 UNK        -0.4493 
     33 C         -53.5337  -27.6552   15.1691 C.2       11 UNK         0.4932 
     34 O         -54.4207  -28.4435   14.8364 O.2       11 UNK        -0.5029 
     35 CA        -52.2125  -28.2200   15.7269 C.3       10 UNK         0.0280 
     36 CB        -51.5226  -29.1258   14.6950 C.3       10 UNK        -0.1976 
     37 N         -51.2501  -27.2062   16.1670 N.am      10 UNK        -0.4242 
     38 C         -51.2615  -26.6053   17.3657 C.2       10 UNK         0.5072 
     39 O         -52.1602  -26.7495   18.1947 O.2       10 UNK        -0.5224 
     40 CA        -50.0630  -25.7053   17.7057 C.3       9 UNK         0.0343 
     41 CB        -48.8594  -26.5588   18.1390 C.3       9 UNK        -0.2003 
     42 N         -49.6783  -24.8784   16.5620 N.am      9 UNK        -0.4272 
     43 C         -49.9007  -23.5601   16.4587 C.2       9 UNK         0.4988 
     44 O         -50.3786  -22.8693   17.3594 O.2       9 UNK        -0.5108 
     45 CA        -49.5463  -22.8916   15.1149 C.3       8 UNK         0.0248 
     46 CB        -48.1328  -22.2913   15.1709 C.3       8 UNK        -0.2001 
     47 N         -49.6464  -23.7992   13.9671 N.am      8 UNK        -0.4140 
     48 C         -50.7841  -24.3958   13.5772 C.2       8 UNK         0.5028 
     49 O         -51.8798  -24.1645   14.0854 O.2       8 UNK        -0.5428 
     50 CA        -50.7047  -25.4726   12.4810 C.3       7 UNK         0.0264 
     51 CB        -51.1697  -24.8935   11.1414 C.3       7 UNK        -0.1988 
     52 N         -49.3873  -26.0871   12.3068 N.am      7 UNK        -0.4454 
     53 C         -48.6843  -26.7198   13.2578 C.2       7 UNK         0.5027 
     54 O         -49.0952  -26.8865   14.4082 O.2       7 UNK        -0.5083 
     55 CA        -47.2576  -27.1793   12.8915 C.3       6 UNK         0.0844 
     56 C56       -47.2324  -28.6782   12.4945 C.3       14 UNK        -0.0967 
     57 S57       -47.8271  -28.9871   10.7928 S.3       14 UNK        -0.2604 
     58 C58       -48.5910  -30.6357   10.9074 C.3       14 UNK         0.0134 
     59 N         -46.5936  -26.3315   11.8904 N.am      6 UNK        -0.4116 
     60 C         -46.4379  -25.0016   11.9213 C.2       5 UNK         0.5034 
     61 O         -46.8424  -24.2917   12.8431 O.2       5 UNK        -0.5045 
     62 CA        -45.7639  -24.3290   10.7102 C.3       5 UNK         0.0224 
     63 CB        -44.2625  -24.1042   10.9720 C.3       5 UNK        -0.1978 
     64 N         -45.9899  -24.9833    9.4096 N.am      5 UNK        -0.4737 
     65 C         -45.5601  -26.1768    8.9679 C.2       4 UNK         0.5027 
     66 O         -44.9116  -26.9611    9.6598 O.2       4 UNK        -0.5211 
     67 CA        -45.9233  -26.5821    7.5261 C.3       4 UNK         0.0297 
     68 CB        -46.8277  -27.8260    7.5096 C.3       4 UNK        -0.1993 
     69 N         -46.5825  -25.5012    6.7897 N.am      4 UNK        -0.4486 
     70 C         -45.9372  -24.5615    6.0826 C.2       3 UNK         0.4961 
     71 O         -44.7170  -24.5497    5.9200 O.2       3 UNK        -0.5105 
     72 CA        -46.7793  -23.4340    5.4566 C.3       3 UNK         0.0299 
     73 CB        -46.9335  -23.6519    3.9426 C.3       3 UNK        -0.1972 
     74 N         -48.1029  -23.2864    6.0700 N.am      3 UNK        -0.4305 
     75 C         -48.3133  -22.7592    7.2869 C.2       2 UNK         0.5006 
     76 O         -47.4124  -22.3276    8.0065 O.2       2 UNK        -0.5106 
     77 CA        -49.7588  -22.7565    7.8202 C.3       2 UNK         0.0296 
     78 CB        -50.4689  -21.4455    7.4476 C.3       2 UNK        -0.2002 
     79 N         -50.5620  -23.8955    7.3631 N.am      2 UNK        -0.4032 
     80 C         -50.2565  -25.1795    7.5950 C.2       1 UNK         0.5000 
     81 O         -49.2795  -25.5388    8.2568 O.2       1 UNK        -0.5238 
     82 H82       -49.2833  -27.6599    3.1044 H         1 UNK         0.0889 
     83 H83       -48.9619  -28.6145    4.5538 H         1 UNK         0.0889 
     84 H84       -47.8713  -27.3016    4.1024 H         1 UNK         0.0889 
     85 H85       -50.2866  -28.0416    6.2763 H         1 UNK         0.3028 
     86 H86       -51.9222  -25.7345    6.3457 H         1 UNK         0.0864 
     87 H87       -51.1575  -27.5952    8.6598 H         1 UNK         0.0720 
     88 H88       -52.4464  -26.4225    8.6781 H         1 UNK         0.0720 
     89 H89       -51.3646  -29.8636    6.8130 H         1 UNK         0.0814 
     90 H90       -52.8906  -30.6495    7.1077 H         1 UNK         0.0814 
     91 H91       -49.7037  -30.0680    8.5016 H         1 UNK         0.1469 
     92 H92       -50.7428  -31.0949   12.5248 H         1 UNK         0.1381 
     93 H93       -53.8265  -30.4080    9.6135 H         1 UNK         0.1206 
     94 H94       -53.6717  -30.1232   12.7484 H         1 UNK         0.0813 
     95 H95       -53.0138  -31.7110   13.0578 H         1 UNK         0.0813 
     96 H96       -55.7046  -30.9782   13.8243 H         1 UNK         0.0638 
     97 H97       -56.9221  -31.9658   13.0574 H         1 UNK         0.0638 
     98 H98       -57.3248  -30.1828   11.3509 H         1 UNK         0.0568 
     99 H99       -59.0229  -27.9244   14.0967 H         1 UNK         0.3450 
    100 H100      -57.5749  -27.4709   13.2300 H         1 UNK         0.3450 
    101 H101      -55.3475  -28.5847   12.9007 H         1 UNK         0.2987 
    102 H102      -53.7930  -27.4262   10.6617 H         1 UNK         0.0766 
    103 H103      -54.3037  -25.0473   10.0342 H         1 UNK         0.0798 
    104 H104      -56.0232  -25.3619   10.2608 H         1 UNK         0.0798 
    105 H105      -55.1309  -26.1926    8.9943 H         1 UNK         0.0798 
    106 H106      -53.5114  -26.5146   12.6715 H         1 UNK         0.3198 
    107 H107      -54.5134  -24.5168   14.5471 H         1 UNK         0.0843 
    108 H108      -56.3407  -26.6559   15.7623 H         1 UNK         0.0831 
    109 H109      -56.7568  -24.9754   15.4617 H         1 UNK         0.0831 
    110 H110      -55.5475  -25.3693   16.6707 H         1 UNK         0.0831 
    111 H111      -52.8334  -25.7541   15.2568 H         1 UNK         0.3133 
    112 H112      -52.4708  -28.8394   16.5884 H         1 UNK         0.0566 
    113 H113      -51.3834  -28.6256   13.7359 H         1 UNK         0.0814 
    114 H114      -50.5445  -29.4582   15.0435 H         1 UNK         0.0814 
    115 H115      -52.1150  -30.0225   14.5234 H         1 UNK         0.0814 
    116 H116      -50.4520  -27.0568   15.5519 H         1 UNK         0.3091 
    117 H117      -50.3507  -25.0775   18.5517 H         1 UNK         0.0702 
    118 H118      -48.0223  -25.9317   18.4462 H         1 UNK         0.0785 
    119 H119      -48.5116  -27.2097   17.3354 H         1 UNK         0.0785 
    120 H120      -49.1163  -27.1945   18.9875 H         1 UNK         0.0785 
    121 H121      -49.2907  -25.3668   15.7626 H         1 UNK         0.2998 
    122 H122      -50.2576  -22.0785   14.9558 H         1 UNK         0.0697 
    123 H123      -47.3741  -23.0601   15.3230 H         1 UNK         0.0825 
    124 H124      -48.0434  -21.5772   15.9907 H         1 UNK         0.0825 
    125 H125      -47.8897  -21.7602   14.2504 H         1 UNK         0.0825 
    126 H126      -48.7768  -24.0383   13.5005 H         1 UNK         0.3029 
    127 H127      -51.3897  -26.2714   12.7677 H         1 UNK         0.0897 
    128 H128      -50.5005  -24.1086   10.7883 H         1 UNK         0.0792 
    129 H129      -52.1695  -24.4641   11.2188 H         1 UNK         0.0792 
    130 H130      -51.2041  -25.6718   10.3843 H         1 UNK         0.0792 
    131 H131      -48.9701  -26.0118   11.3893 H         1 UNK         0.3086 
    132 H132      -46.6706  -27.0761   13.8062 H         1 UNK         0.0583 
    133 H133      -46.2085  -29.0505   12.5567 H         1 UNK         0.1020 
    134 H134      -47.8032  -29.2740   13.2103 H         1 UNK         0.1020 
    135 H135      -48.0819  -31.3047   10.2115 H         1 UNK         0.0694 
    136 H136      -48.4425  -31.0634   11.9001 H         1 UNK         0.0694 
    137 H137      -46.1901  -26.8187   11.0954 H         1 UNK         0.2989 
    138 H138      -46.2278  -23.3449   10.6192 H         1 UNK         0.1055 
    139 H139      -44.1099  -23.5211   11.8812 H         1 UNK         0.0806 
    140 H140      -43.7957  -23.5556   10.1539 H         1 UNK         0.0806 
    141 H141      -43.7234  -25.0436   11.0975 H         1 UNK         0.0806 
    142 H142      -46.5416  -24.4363    8.7608 H         1 UNK         0.3061 
    143 H143      -44.9898  -26.8461    7.0248 H         1 UNK         0.0734 
    144 H144      -46.3466  -28.6639    8.0158 H         1 UNK         0.0832 
    145 H145      -47.0421  -28.1479    6.4913 H         1 UNK         0.0832 
    146 H146      -47.7769  -27.6475    8.0144 H         1 UNK         0.0832 
    147 H147      -47.5831  -25.4173    6.9269 H         1 UNK         0.3156 
    148 H148      -46.2327  -22.5001    5.6047 H         1 UNK         0.0589 
    149 H149      -47.4288  -24.5959    3.7154 H         1 UNK         0.0808 
    150 H150      -47.5090  -22.8497    3.4806 H         1 UNK         0.0808 
    151 H151      -45.9591  -23.6735    3.4526 H         1 UNK         0.0808 
    152 H152      -48.8862  -23.6721    5.5541 H         1 UNK         0.3098 
    153 H153      -49.6996  -22.8123    8.9087 H         1 UNK         0.0720 
    154 H154      -51.4583  -21.3865    7.9016 H         1 UNK         0.0791 
    155 H155      -50.5864  -21.3414    6.3681 H         1 UNK         0.0791 
    156 H156      -49.9021  -20.5817    7.7985 H         1 UNK         0.0791 
    157 H157      -51.3659  -23.6800    6.7904 H         1 UNK         0.3028 
@<TRIPOS>BOND
     1    1    2 1    
     2    1   82 1    
     3    1   83 1    
     4    1   84 1    
     5    2    3 2    
     6    2    4 am   BACKBONE|DICT|INTERRES
     7    4    5 1    
     8    4   85 1    
     9    5    6 1    
    10    5   80 1    
    11    5   86 1    
    12    6    7 1    
    13    6   87 1    
    14    6   88 1    
    15    7    8 1    
    16    8    9 1    
    17    8   89 1    
    18    8   90 1    
    19    9   10 ar   
    20    9   14 ar   
    21   10   11 ar   
    22   10   91 1    
    23   11   12 ar   
    24   11   58 1    
    25   12   13 ar   
    26   12   92 1    
    27   13   14 ar   
    28   13   15 1    
    29   14   93 1    
    30   15   16 1    
    31   15   94 1    
    32   15   95 1    
    33   16   17 1    
    34   17   18 1    
    35   17   96 1    
    36   17   97 1    
    37   18   19 1    
    38   18   22 1    
    39   18   98 1    
    40   19   20 am   BACKBONE|DICT|INTERRES
    41   19   21 2    
    42   20   99 1    
    43   20  100 1    
    44   22   23 am   BACKBONE|DICT|INTERRES
    45   22  101 1    
    46   23   24 2    
    47   23   25 1    
    48   25   26 1    
    49   25   27 1    
    50   25  102 1    
    51   26  103 1    
    52   26  104 1    
    53   26  105 1    
    54   27   28 am   BACKBONE|DICT|INTERRES
    55   27  106 1    
    56   28   29 2    
    57   28   30 1    
    58   30   31 1    
    59   30   32 1    
    60   30  107 1    
    61   31  108 1    
    62   31  109 1    
    63   31  110 1    
    64   32   33 am   BACKBONE|DICT|INTERRES
    65   32  111 1    
    66   33   34 2    
    67   33   35 1    
    68   35   36 1    
    69   35   37 1    
    70   35  112 1    
    71   36  113 1    
    72   36  114 1    
    73   36  115 1    
    74   37   38 am   BACKBONE|DICT|INTERRES
    75   37  116 1    
    76   38   39 2    
    77   38   40 1    
    78   40   41 1    
    79   40   42 1    
    80   40  117 1    
    81   41  118 1    
    82   41  119 1    
    83   41  120 1    
    84   42   43 am   BACKBONE|DICT|INTERRES
    85   42  121 1    
    86   43   44 2    
    87   43   45 1    
    88   45   46 1    
    89   45   47 1    
    90   45  122 1    
    91   46  123 1    
    92   46  124 1    
    93   46  125 1    
    94   47   48 am   BACKBONE|DICT|INTERRES
    95   47  126 1    
    96   48   49 2    
    97   48   50 1    
    98   50   51 1    
    99   50   52 1    
   100   50  127 1    
   101   51  128 1    
   102   51  129 1    
   103   51  130 1    
   104   52   53 am   BACKBONE|DICT|INTERRES
   105   52  131 1    
   106   53   54 2    
   107   53   55 1    
   108   55   56 1    
   109   55   59 1    
   110   55  132 1    
   111   56   57 1    
   112   56  133 1    
   113   56  134 1    
   114   57   58 1    
   115   58  135 1    
   116   58  136 1    
   117   59   60 am   BACKBONE|DICT|INTERRES
   118   59  137 1    
   119   60   61 2    
   120   60   62 1    
   121   62   63 1    
   122   62   64 1    
   123   62  138 1    
   124   63  139 1    
   125   63  140 1    
   126   63  141 1    
   127   64   65 am   BACKBONE|DICT|INTERRES
   128   64  142 1    
   129   65   66 2    
   130   65   67 1    
   131   67   68 1    
   132   67   69 1    
   133   67  143 1    
   134   68  144 1    
   135   68  145 1    
   136   68  146 1    
   137   69   70 am   BACKBONE|DICT|INTERRES
   138   69  147 1    
   139   70   71 2    
   140   70   72 1    
   141   72   73 1    
   142   72   74 1    
   143   72  148 1    
   144   73  149 1    
   145   73  150 1    
   146   73  151 1    
   147   74   75 am   BACKBONE|DICT|INTERRES
   148   74  152 1    
   149   75   76 2    
   150   75   77 1    
   151   77   78 1    
   152   77   79 1    
   153   77  153 1    
   154   78  154 1    
   155   78  155 1    
   156   78  156 1    
   157   79   80 am   BACKBONE|DICT|INTERRES
   158   79  157 1    
   159   80   81 2    
@<TRIPOS>SUBSTRUCTURE
     1 UNK         1 GROUP             0       ****    0 ROOT    
