@<TRIPOS>MOLECULE
3R207
157   159    1
SMALL
USER_CHARGES


@<TRIPOS>ATOM
      1 CA        -51.7003  -26.5023    0.7690 C.3       0 UNK        -0.1975 
      2 C         -50.9332  -26.7003    2.0678 C.2       0 UNK         0.4852 
      3 O         -49.9197  -27.4014    2.0762 O.2       0 UNK        -0.5216 
      4 N         -51.4041  -26.0818    3.1610 N.am      1 UNK        -0.4461 
      5 CA        -50.8468  -26.1128    4.5213 C.3       1 UNK         0.0864 
      6 C6        -50.7459  -27.5475    5.1099 C.3       14 UNK        -0.0898 
      7 S7        -50.5318  -27.5624    6.9194 S.3       14 UNK        -0.2598 
      8 C8        -51.2491  -29.1812    7.3344 C.3       14 UNK         0.0286 
      9 C9        -50.9977  -29.5475    8.7898 C.ar      14 UNK        -0.0844 
     10 C10       -49.7305  -29.9786    9.1893 C.ar      14 UNK        -0.0881 
     11 C11       -49.4816  -30.3357   10.5166 C.ar      14 UNK        -0.0643 
     12 C12       -50.5228  -30.2829   11.4478 C.ar      14 UNK        -0.0930 
     13 C13       -51.8022  -29.8672   11.0599 C.ar      14 UNK        -0.0827 
     14 C14       -52.0280  -29.4831    9.7327 C.ar      14 UNK        -0.1249 
     15 C15       -52.9263  -29.8047   12.0858 C.3       14 UNK         0.0141 
     16 S16       -54.3911  -30.7632   11.5894 S.3       14 UNK        -0.2313 
     17 C17       -55.4812  -30.5335   13.0357 C.3       14 UNK        -0.0915 
     18 CA        -56.5343  -29.4169   12.8123 C.3       13 UNK         0.0968 
     19 C         -57.6770  -29.5023   13.8595 C.2       13 UNK         0.5732 
     20 N         -58.7107  -30.2861   13.5831 N.am      13 UNK        -0.7310 
     21 O         -57.6199  -28.9049   14.9316 O.2       13 UNK        -0.5035 
     22 N         -55.9076  -28.0882   12.7821 N.am      13 UNK        -0.4233 
     23 C         -56.4550  -27.0044   12.2218 C.2       13 UNK         0.4989 
     24 O         -57.5518  -27.0042   11.6585 O.2       13 UNK        -0.4996 
     25 CA        -55.6059  -25.7198   12.2658 C.3       12 UNK         0.0216 
     26 CB        -56.3335  -24.4881   11.6846 C.3       12 UNK        -0.1964 
     27 N         -55.0572  -25.4246   13.5947 N.am      12 UNK        -0.4276 
     28 C         -55.7313  -25.1387   14.7186 C.2       12 UNK         0.5020 
     29 O         -56.9608  -25.1374   14.8064 O.2       12 UNK        -0.5489 
     30 CA        -54.8690  -24.7523   15.9380 C.3       11 UNK         0.0294 
     31 CB        -55.6895  -24.5494   17.2304 C.3       11 UNK        -0.2019 
     32 N         -53.7474  -25.6723   16.1588 N.am      11 UNK        -0.4493 
     33 C         -53.8083  -26.9730   16.4818 C.2       11 UNK         0.4932 
     34 O         -54.8590  -27.5801   16.6846 O.2       11 UNK        -0.5029 
     35 CA        -52.4826  -27.7527   16.5822 C.3       10 UNK         0.0280 
     36 CB        -52.4162  -28.8213   15.4843 C.3       10 UNK        -0.1976 
     37 N         -51.2888  -26.9110   16.4797 N.am      10 UNK        -0.4242 
     38 C         -50.7745  -26.1862   17.4818 C.2       10 UNK         0.5072 
     39 O         -51.2267  -26.1792   18.6274 O.2       10 UNK        -0.5224 
     40 CA        -49.5671  -25.2939   17.1410 C.3       9 UNK         0.0343 
     41 CB        -48.2627  -26.1029   17.2067 C.3       9 UNK        -0.2003 
     42 N         -49.6786  -24.6361   15.8337 N.am      9 UNK        -0.4272 
     43 C         -50.6468  -23.7666   15.5037 C.2       9 UNK         0.4988 
     44 O         -51.5494  -23.4218   16.2663 O.2       9 UNK        -0.5108 
     45 CA        -50.6360  -23.2150   14.0707 C.3       8 UNK         0.0248 
     46 CB        -49.5860  -22.1023   13.9252 C.3       8 UNK        -0.2001 
     47 N         -50.4095  -24.2562   13.0669 N.am      8 UNK        -0.4140 
     48 C         -51.2450  -25.2789   12.8337 C.2       8 UNK         0.5028 
     49 O         -52.3200  -25.4314   13.4139 O.2       8 UNK        -0.5428 
     50 CA        -50.7876  -26.3417   11.8233 C.3       7 UNK         0.0264 
     51 CB        -50.9500  -25.8448   10.3816 C.3       7 UNK        -0.1988 
     52 N         -49.4117  -26.7840   12.0561 N.am      7 UNK        -0.4454 
     53 C         -49.0043  -27.3857   13.1849 C.2       7 UNK         0.5027 
     54 O         -49.7576  -27.6732   14.1155 O.2       7 UNK        -0.5083 
     55 CA        -47.4981  -27.6523   13.3515 C.3       6 UNK         0.0844 
     56 C56       -47.0911  -29.0959   12.9676 C.3       14 UNK        -0.0967 
     57 S57       -46.9464  -29.4125   11.1768 S.3       14 UNK        -0.2604 
     58 C58       -48.0922  -30.8060   10.9203 C.3       14 UNK         0.0134 
     59 N         -46.6798  -26.6112   12.7233 N.am      6 UNK        -0.4116 
     60 C         -46.5828  -25.3616   13.2009 C.2       5 UNK         0.5034 
     61 O         -47.1552  -24.9696   14.2197 O.2       5 UNK        -0.5045 
     62 CA        -45.7338  -24.3727   12.3871 C.3       5 UNK         0.0224 
     63 CB        -44.2415  -24.7391   12.4471 C.3       5 UNK        -0.1978 
     64 N         -46.1619  -24.2604   10.9902 N.am      5 UNK        -0.4737 
     65 C         -47.3704  -23.8368   10.5935 C.2       4 UNK         0.5027 
     66 O         -48.2708  -23.5186   11.3667 O.2       4 UNK        -0.5211 
     67 CA        -47.6304  -23.7531    9.0813 C.3       4 UNK         0.0297 
     68 CB        -47.3174  -22.3418    8.5610 C.3       4 UNK        -0.1993 
     69 N         -46.8978  -24.7350    8.2815 N.am      4 UNK        -0.4486 
     70 C         -47.0099  -26.0652    8.3817 C.2       3 UNK         0.4961 
     71 O         -47.6681  -26.6306    9.2563 O.2       3 UNK        -0.5105 
     72 CA        -46.2722  -26.8774    7.2974 C.3       3 UNK         0.0299 
     73 CB        -46.4107  -28.3963    7.4892 C.3       3 UNK        -0.1972 
     74 N         -46.7558  -26.5313    5.9584 N.am      3 UNK        -0.4305 
     75 C         -46.4130  -25.4415    5.2566 C.2       2 UNK         0.5006 
     76 O         -45.5866  -24.6151    5.6467 O.2       2 UNK        -0.5106 
     77 CA        -47.1364  -25.2122    3.9170 C.3       2 UNK         0.0296 
     78 CB        -46.3250  -25.8089    2.7562 C.3       2 UNK        -0.2002 
     79 N         -48.4950  -25.7618    3.8916 N.am      2 UNK        -0.4032 
     80 C         -49.5214  -25.3283    4.6368 C.2       1 UNK         0.5000 
     81 O         -49.4560  -24.3518    5.3858 O.2       1 UNK        -0.5238 
     82 H82       -52.5740  -25.8649    0.9032 H         1 UNK         0.0889 
     83 H83       -52.0383  -27.4639    0.3839 H         1 UNK         0.0889 
     84 H84       -51.0563  -26.0424    0.0200 H         1 UNK         0.0889 
     85 H85       -52.2262  -25.5013    3.0628 H         1 UNK         0.3028 
     86 H86       -51.5743  -25.5696    5.1274 H         1 UNK         0.0864 
     87 H87       -51.6593  -28.0960    4.8743 H         1 UNK         0.0720 
     88 H88       -49.9312  -28.1143    4.6565 H         1 UNK         0.0720 
     89 H89       -50.8142  -29.9466    6.6898 H         1 UNK         0.0814 
     90 H90       -52.3189  -29.1670    7.1204 H         1 UNK         0.0814 
     91 H91       -48.9319  -30.0341    8.4646 H         1 UNK         0.1469 
     92 H92       -50.3342  -30.5635   12.4749 H         1 UNK         0.1381 
     93 H93       -53.0118  -29.1492    9.4325 H         1 UNK         0.1206 
     94 H94       -53.2090  -28.7637   12.2380 H         1 UNK         0.0813 
     95 H95       -52.5789  -30.1910   13.0440 H         1 UNK         0.0813 
     96 H96       -54.8886  -30.3403   13.9310 H         1 UNK         0.0638 
     97 H97       -55.9741  -31.4927   13.2053 H         1 UNK         0.0638 
     98 H98       -56.9884  -29.5849   11.8331 H         1 UNK         0.0568 
     99 H99       -59.4559  -30.3678   14.2569 H         1 UNK         0.3450 
    100 H100      -58.7642  -30.7930   12.7133 H         1 UNK         0.3450 
    101 H101      -55.0455  -27.9869   13.2931 H         1 UNK         0.2987 
    102 H102      -54.7429  -25.9129   11.6263 H         1 UNK         0.0766 
    103 H103      -55.6898  -23.6085   11.6900 H         1 UNK         0.0798 
    104 H104      -57.2363  -24.2471   12.2468 H         1 UNK         0.0798 
    105 H105      -56.6326  -24.6628   10.6504 H         1 UNK         0.0798 
    106 H106      -54.0344  -25.4081   13.6384 H         1 UNK         0.3198 
    107 H107      -54.4174  -23.7903   15.6896 H         1 UNK         0.0843 
    108 H108      -56.2255  -25.4539   17.5190 H         1 UNK         0.0831 
    109 H109      -56.4329  -23.7623   17.0988 H         1 UNK         0.0831 
    110 H110      -55.0509  -24.2556   18.0634 H         1 UNK         0.0831 
    111 H111      -52.8302  -25.2726   16.0004 H         1 UNK         0.3133 
    112 H112      -52.4735  -28.2589   17.5497 H         1 UNK         0.0566 
    113 H113      -52.4191  -28.3572   14.4985 H         1 UNK         0.0814 
    114 H114      -51.5122  -29.4248   15.5686 H         1 UNK         0.0814 
    115 H115      -53.2672  -29.5007   15.5403 H         1 UNK         0.0814 
    116 H116      -50.8138  -26.9113   15.5802 H         1 UNK         0.3091 
    117 H117      -49.5158  -24.5072   17.8966 H         1 UNK         0.0702 
    118 H118      -47.3934  -25.4737   17.0148 H         1 UNK         0.0785 
    119 H119      -48.2571  -26.9152   16.4803 H         1 UNK         0.0785 
    120 H120      -48.1299  -26.5481   18.1937 H         1 UNK         0.0785 
    121 H121      -48.9488  -24.8367   15.1562 H         1 UNK         0.2998 
    122 H122      -51.6185  -22.7796   13.8765 H         1 UNK         0.0697 
    123 H123      -48.5722  -22.4835   14.0553 H         1 UNK         0.0825 
    124 H124      -49.7399  -21.3178   14.6674 H         1 UNK         0.0825 
    125 H125      -49.6410  -21.6338   12.9424 H         1 UNK         0.0825 
    126 H126      -49.5600  -24.1713   12.5107 H         1 UNK         0.3029 
    127 H127      -51.4307  -27.2118   11.9522 H         1 UNK         0.0897 
    128 H128      -51.9940  -25.6190   10.1617 H         1 UNK         0.0792 
    129 H129      -50.6234  -26.6029    9.6708 H         1 UNK         0.0792 
    130 H130      -50.3722  -24.9408   10.1959 H         1 UNK         0.0792 
    131 H131      -48.7411  -26.6215   11.3136 H         1 UNK         0.3086 
    132 H132      -47.3103  -27.5784   14.4246 H         1 UNK         0.0583 
    133 H133      -46.1163  -29.3140   13.4065 H         1 UNK         0.1020 
    134 H134      -47.7735  -29.8141   13.4261 H         1 UNK         0.1020 
    135 H135      -47.6879  -31.4387   10.1287 H         1 UNK         0.0694 
    136 H136      -48.1350  -31.4366   11.8093 H         1 UNK         0.0694 
    137 H137      -46.2291  -26.8529   11.8522 H         1 UNK         0.2989 
    138 H138      -45.8588  -23.3898   12.8473 H         1 UNK         0.1055 
    139 H139      -43.9040  -24.8316   13.4806 H         1 UNK         0.0806 
    140 H140      -43.6268  -23.9713   11.9768 H         1 UNK         0.0806 
    141 H141      -44.0317  -25.6867   11.9496 H         1 UNK         0.0806 
    142 H142      -45.4900  -24.5075   10.2783 H         1 UNK         0.3061 
    143 H143      -48.6933  -23.9414    8.9212 H         1 UNK         0.0734 
    144 H144      -47.8718  -21.5876    9.1216 H         1 UNK         0.0832 
    145 H145      -47.5981  -22.2349    7.5128 H         1 UNK         0.0832 
    146 H146      -46.2571  -22.1030    8.6525 H         1 UNK         0.0832 
    147 H147      -46.3469  -24.3786    7.5068 H         1 UNK         0.3156 
    148 H148      -45.2113  -26.6288    7.3679 H         1 UNK         0.0589 
    149 H149      -47.4512  -28.7106    7.4194 H         1 UNK         0.0808 
    150 H150      -45.8419  -28.9462    6.7395 H         1 UNK         0.0808 
    151 H151      -46.0365  -28.7024    8.4659 H         1 UNK         0.0808 
    152 H152      -47.4758  -27.1279    5.5786 H         1 UNK         0.3098 
    153 H153      -47.2101  -24.1333    3.7651 H         1 UNK         0.0720 
    154 H154      -46.7859  -25.5845    1.7940 H         1 UNK         0.0791 
    155 H155      -46.2356  -26.8928    2.8407 H         1 UNK         0.0791 
    156 H156      -45.3145  -25.3981    2.7343 H         1 UNK         0.0791 
    157 H157      -48.6841  -26.5244    3.2455 H         1 UNK         0.3028 
@<TRIPOS>BOND
     1    1    2 1    
     2    1   82 1    
     3    1   83 1    
     4    1   84 1    
     5    2    3 2    
     6    2    4 am   BACKBONE|DICT|INTERRES
     7    4    5 1    
     8    4   85 1    
     9    5    6 1    
    10    5   80 1    
    11    5   86 1    
    12    6    7 1    
    13    6   87 1    
    14    6   88 1    
    15    7    8 1    
    16    8    9 1    
    17    8   89 1    
    18    8   90 1    
    19    9   10 ar   
    20    9   14 ar   
    21   10   11 ar   
    22   10   91 1    
    23   11   12 ar   
    24   11   58 1    
    25   12   13 ar   
    26   12   92 1    
    27   13   14 ar   
    28   13   15 1    
    29   14   93 1    
    30   15   16 1    
    31   15   94 1    
    32   15   95 1    
    33   16   17 1    
    34   17   18 1    
    35   17   96 1    
    36   17   97 1    
    37   18   19 1    
    38   18   22 1    
    39   18   98 1    
    40   19   20 am   BACKBONE|DICT|INTERRES
    41   19   21 2    
    42   20   99 1    
    43   20  100 1    
    44   22   23 am   BACKBONE|DICT|INTERRES
    45   22  101 1    
    46   23   24 2    
    47   23   25 1    
    48   25   26 1    
    49   25   27 1    
    50   25  102 1    
    51   26  103 1    
    52   26  104 1    
    53   26  105 1    
    54   27   28 am   BACKBONE|DICT|INTERRES
    55   27  106 1    
    56   28   29 2    
    57   28   30 1    
    58   30   31 1    
    59   30   32 1    
    60   30  107 1    
    61   31  108 1    
    62   31  109 1    
    63   31  110 1    
    64   32   33 am   BACKBONE|DICT|INTERRES
    65   32  111 1    
    66   33   34 2    
    67   33   35 1    
    68   35   36 1    
    69   35   37 1    
    70   35  112 1    
    71   36  113 1    
    72   36  114 1    
    73   36  115 1    
    74   37   38 am   BACKBONE|DICT|INTERRES
    75   37  116 1    
    76   38   39 2    
    77   38   40 1    
    78   40   41 1    
    79   40   42 1    
    80   40  117 1    
    81   41  118 1    
    82   41  119 1    
    83   41  120 1    
    84   42   43 am   BACKBONE|DICT|INTERRES
    85   42  121 1    
    86   43   44 2    
    87   43   45 1    
    88   45   46 1    
    89   45   47 1    
    90   45  122 1    
    91   46  123 1    
    92   46  124 1    
    93   46  125 1    
    94   47   48 am   BACKBONE|DICT|INTERRES
    95   47  126 1    
    96   48   49 2    
    97   48   50 1    
    98   50   51 1    
    99   50   52 1    
   100   50  127 1    
   101   51  128 1    
   102   51  129 1    
   103   51  130 1    
   104   52   53 am   BACKBONE|DICT|INTERRES
   105   52  131 1    
   106   53   54 2    
   107   53   55 1    
   108   55   56 1    
   109   55   59 1    
   110   55  132 1    
   111   56   57 1    
   112   56  133 1    
   113   56  134 1    
   114   57   58 1    
   115   58  135 1    
   116   58  136 1    
   117   59   60 am   BACKBONE|DICT|INTERRES
   118   59  137 1    
   119   60   61 2    
   120   60   62 1    
   121   62   63 1    
   122   62   64 1    
   123   62  138 1    
   124   63  139 1    
   125   63  140 1    
   126   63  141 1    
   127   64   65 am   BACKBONE|DICT|INTERRES
   128   64  142 1    
   129   65   66 2    
   130   65   67 1    
   131   67   68 1    
   132   67   69 1    
   133   67  143 1    
   134   68  144 1    
   135   68  145 1    
   136   68  146 1    
   137   69   70 am   BACKBONE|DICT|INTERRES
   138   69  147 1    
   139   70   71 2    
   140   70   72 1    
   141   72   73 1    
   142   72   74 1    
   143   72  148 1    
   144   73  149 1    
   145   73  150 1    
   146   73  151 1    
   147   74   75 am   BACKBONE|DICT|INTERRES
   148   74  152 1    
   149   75   76 2    
   150   75   77 1    
   151   77   78 1    
   152   77   79 1    
   153   77  153 1    
   154   78  154 1    
   155   78  155 1    
   156   78  156 1    
   157   79   80 am   BACKBONE|DICT|INTERRES
   158   79  157 1    
   159   80   81 2    
@<TRIPOS>SUBSTRUCTURE
     1 UNK         1 GROUP             0       ****    0 ROOT    
