@<TRIPOS>MOLECULE
3R207
157   159    1
SMALL
USER_CHARGES


@<TRIPOS>ATOM
      1 CA        -50.2503  -28.7910    0.4231 C.3       0 UNK        -0.1975 
      2 C         -49.9729  -28.3481    1.8523 C.2       0 UNK         0.4852 
      3 O         -50.1577  -27.1735    2.1750 O.2       0 UNK        -0.5216 
      4 N         -49.5392  -29.2799    2.7113 N.am      1 UNK        -0.4461 
      5 CA        -49.1556  -29.0186    4.1018 C.3       1 UNK         0.0864 
      6 C6        -49.1755  -30.3253    4.9362 C.3       14 UNK        -0.0898 
      7 S7        -49.4196  -30.0016    6.7128 S.3       14 UNK        -0.2598 
      8 C8        -51.2342  -29.9024    6.8054 C.3       14 UNK         0.0286 
      9 C9        -51.6717  -28.7793    7.7316 C.ar      14 UNK        -0.0844 
     10 C10       -51.7632  -27.4692    7.2484 C.ar      14 UNK        -0.0881 
     11 C11       -52.1809  -26.4289    8.0841 C.ar      14 UNK        -0.0643 
     12 C12       -52.5231  -26.7157    9.4080 C.ar      14 UNK        -0.0930 
     13 C13       -52.4112  -28.0147    9.9108 C.ar      14 UNK        -0.0827 
     14 C14       -51.9902  -29.0462    9.0670 C.ar      14 UNK        -0.1249 
     15 C15       -52.7232  -28.2818   11.3746 C.3       14 UNK         0.0141 
     16 S16       -54.5084  -28.1713   11.7043 S.3       14 UNK        -0.2313 
     17 C17       -55.0275  -29.9147   11.5201 C.3       14 UNK        -0.0915 
     18 CA        -55.3469  -30.5947   12.8793 C.3       13 UNK         0.0968 
     19 C         -54.0509  -30.9024   13.6872 C.2       13 UNK         0.5732 
     20 N         -53.7664  -30.2070   14.7822 N.am      13 UNK        -0.7310 
     21 O         -53.2944  -31.7944   13.3110 O.2       13 UNK        -0.5035 
     22 N         -56.3704  -29.8381   13.6131 N.am      13 UNK        -0.4233 
     23 C         -57.0580  -30.2760   14.6720 C.2       13 UNK         0.4989 
     24 O         -57.0002  -31.4249   15.1150 O.2       13 UNK        -0.4996 
     25 CA        -57.9465  -29.2287   15.3679 C.3       12 UNK         0.0216 
     26 CB        -59.3547  -29.7852   15.6434 C.3       12 UNK        -0.1964 
     27 N         -57.3651  -28.7406   16.6230 N.am      12 UNK        -0.4276 
     28 C         -56.1582  -28.1757   16.7642 C.2       12 UNK         0.5020 
     29 O         -55.3503  -28.0183   15.8421 O.2       12 UNK        -0.5489 
     30 CA        -55.7839  -27.7126   18.1772 C.3       11 UNK         0.0294 
     31 CB        -55.3957  -28.9030   19.0714 C.3       11 UNK        -0.2019 
     32 N         -54.6483  -26.8068   18.0572 N.am      11 UNK        -0.4493 
     33 C         -54.4282  -25.6993   18.7717 C.2       11 UNK         0.4932 
     34 O         -55.1385  -25.3400   19.7114 O.2       11 UNK        -0.5029 
     35 CA        -53.2067  -24.8448   18.3806 C.3       10 UNK         0.0280 
     36 CB        -52.0964  -24.9787   19.4359 C.3       10 UNK        -0.1976 
     37 N         -52.6537  -25.1949   17.0687 N.am      10 UNK        -0.4242 
     38 C         -53.1558  -24.8312   15.8827 C.2       10 UNK         0.5072 
     39 O         -54.1356  -24.0930   15.7632 O.2       10 UNK        -0.5224 
     40 CA        -52.4435  -25.3921   14.6301 C.3       9 UNK         0.0343 
     41 CB        -53.0917  -24.9003   13.3228 C.3       9 UNK        -0.2003 
     42 N         -51.0049  -25.0952   14.5879 N.am      9 UNK        -0.4272 
     43 C         -50.0612  -25.6555   15.3608 C.2       9 UNK         0.4988 
     44 O         -50.3218  -26.4772   16.2423 O.2       9 UNK        -0.5108 
     45 CA        -48.5862  -25.2611   15.1427 C.3       8 UNK         0.0248 
     46 CB        -47.7213  -26.5108   14.9031 C.3       8 UNK        -0.2001 
     47 N         -48.3653  -24.3168   14.0446 N.am      8 UNK        -0.4140 
     48 C         -48.5365  -22.9900   14.1171 C.2       8 UNK         0.5028 
     49 O         -48.9029  -22.4024   15.1351 O.2       8 UNK        -0.5428 
     50 CA        -48.2781  -22.1836   12.8303 C.3       7 UNK         0.0264 
     51 CB        -46.7936  -21.8016   12.7191 C.3       7 UNK        -0.1988 
     52 N         -48.6931  -22.8933   11.6162 N.am      7 UNK        -0.4454 
     53 C         -49.9637  -23.2005   11.3174 C.2       7 UNK         0.5027 
     54 O         -50.9225  -22.8393   11.9992 O.2       7 UNK        -0.5083 
     55 CA        -50.2102  -24.0998   10.0891 C.3       6 UNK         0.0844 
     56 C56       -50.3669  -23.2686    8.7940 C.3       14 UNK        -0.0967 
     57 S57       -50.6323  -24.2629    7.2825 S.3       14 UNK        -0.2604 
     58 C58       -52.2774  -25.0058    7.5461 C.3       14 UNK         0.0134 
     59 N         -49.2168  -25.1708    9.9780 N.am      6 UNK        -0.4116 
     60 C         -49.0760  -26.1670   10.8647 C.2       5 UNK         0.5034 
     61 O         -49.7883  -26.3153   11.8562 O.2       5 UNK        -0.5045 
     62 CA        -47.8997  -27.1265   10.6425 C.3       5 UNK         0.0224 
     63 CB        -48.2725  -28.2264    9.6378 C.3       5 UNK        -0.1978 
     64 N         -46.7027  -26.4108   10.1948 N.am      5 UNK        -0.4737 
     65 C         -45.9789  -25.6057   10.9868 C.2       4 UNK         0.5027 
     66 O         -46.2172  -25.4339   12.1811 O.2       4 UNK        -0.5211 
     67 CA        -44.8229  -24.8288   10.3341 C.3       4 UNK         0.0297 
     68 CB        -43.5451  -25.6820   10.3128 C.3       4 UNK        -0.1993 
     69 N         -45.1334  -24.3763    8.9766 N.am      4 UNK        -0.4486 
     70 C         -46.0976  -23.4976    8.6673 C.2       3 UNK         0.4961 
     71 O         -46.7938  -22.9224    9.5025 O.2       3 UNK        -0.5105 
     72 CA        -46.3662  -23.2576    7.1714 C.3       3 UNK         0.0299 
     73 CB        -45.5235  -22.0806    6.6561 C.3       3 UNK        -0.1972 
     74 N         -46.1323  -24.4384    6.3305 N.am      3 UNK        -0.4305 
     75 C         -46.7799  -25.6039    6.4618 C.2       2 UNK         0.5006 
     76 O         -47.6151  -25.8325    7.3395 O.2       2 UNK        -0.5106 
     77 CA        -46.3925  -26.7208    5.4920 C.3       2 UNK         0.0296 
     78 CB        -45.2711  -27.5920    6.0881 C.3       2 UNK        -0.2002 
     79 N         -47.5804  -27.5289    5.2445 N.am      2 UNK        -0.4032 
     80 C         -47.7889  -28.3017    4.1739 C.2       1 UNK         0.5000 
     81 O         -46.9547  -28.4715    3.2788 O.2       1 UNK        -0.5238 
     82 H82       -51.2907  -28.5954    0.1649 H         1 UNK         0.0889 
     83 H83       -50.0602  -29.8547    0.2813 H         1 UNK         0.0889 
     84 H84       -49.6169  -28.2381   -0.2700 H         1 UNK         0.0889 
     85 H85       -49.3694  -30.2182    2.3785 H         1 UNK         0.3028 
     86 H86       -49.9062  -28.3377    4.5097 H         1 UNK         0.0864 
     87 H87       -49.9810  -30.9829    4.6042 H         1 UNK         0.0720 
     88 H88       -48.2557  -30.8979    4.8005 H         1 UNK         0.0720 
     89 H89       -51.6286  -30.8603    7.1477 H         1 UNK         0.0814 
     90 H90       -51.6599  -29.7353    5.8148 H         1 UNK         0.0814 
     91 H91       -51.5064  -27.2545    6.2203 H         1 UNK         0.1469 
     92 H92       -52.8749  -25.9288   10.0592 H         1 UNK         0.1381 
     93 H93       -51.9062  -30.0544    9.4489 H         1 UNK         0.1206 
     94 H94       -52.3367  -29.2521   11.6894 H         1 UNK         0.0813 
     95 H95       -52.2054  -27.5461   11.9899 H         1 UNK         0.0813 
     96 H96       -54.2757  -30.4773   10.9635 H         1 UNK         0.0638 
     97 H97       -55.9196  -29.9251   10.8923 H         1 UNK         0.0638 
     98 H98       -55.7851  -31.5683   12.6528 H         1 UNK         0.0568 
     99 H99       -52.9277  -30.4188   15.2968 H         1 UNK         0.3450 
    100 H100      -54.3718  -29.4479   15.0837 H         1 UNK         0.3450 
    101 H101      -56.4323  -28.8610   13.3660 H         1 UNK         0.2987 
    102 H102      -58.0546  -28.3689   14.7032 H         1 UNK         0.0766 
    103 H103      -60.0153  -29.0164   16.0447 H         1 UNK         0.0798 
    104 H104      -59.3320  -30.6130   16.3535 H         1 UNK         0.0798 
    105 H105      -59.8132  -30.1566   14.7258 H         1 UNK         0.0798 
    106 H106      -57.9379  -28.8514   17.4474 H         1 UNK         0.3198 
    107 H107      -56.6386  -27.1852   18.6069 H         1 UNK         0.0843 
    108 H108      -54.5616  -29.4666   18.6510 H         1 UNK         0.0831 
    109 H109      -56.2296  -29.5952   19.1927 H         1 UNK         0.0831 
    110 H110      -55.1051  -28.5702   20.0680 H         1 UNK         0.0831 
    111 H111      -54.0736  -26.9840   17.2427 H         1 UNK         0.3133 
    112 H112      -53.5298  -23.8021   18.3547 H         1 UNK         0.0566 
    113 H113      -51.2498  -24.3317   19.2053 H         1 UNK         0.0814 
    114 H114      -52.4596  -24.6948   20.4246 H         1 UNK         0.0814 
    115 H115      -51.7274  -26.0029   19.5052 H         1 UNK         0.0814 
    116 H116      -51.8239  -25.7855   17.0537 H         1 UNK         0.3091 
    117 H117      -52.5581  -26.4780   14.6600 H         1 UNK         0.0702 
    118 H118      -52.5628  -25.2761   12.4479 H         1 UNK         0.0785 
    119 H119      -53.0993  -23.8115   13.2623 H         1 UNK         0.0785 
    120 H120      -54.1257  -25.2400   13.2491 H         1 UNK         0.0785 
    121 H121      -50.7102  -24.4267   13.8892 H         1 UNK         0.2998 
    122 H122      -48.2460  -24.7949   16.0696 H         1 UNK         0.0697 
    123 H123      -48.0237  -27.0387   13.9984 H         1 UNK         0.0825 
    124 H124      -46.6672  -26.2513   14.8035 H         1 UNK         0.0825 
    125 H125      -47.8014  -27.2137   15.7333 H         1 UNK         0.0825 
    126 H126      -48.0160  -24.7120   13.1788 H         1 UNK         0.3029 
    127 H127      -48.8629  -21.2635   12.8955 H         1 UNK         0.0897 
    128 H128      -46.6098  -21.1746   11.8463 H         1 UNK         0.0792 
    129 H129      -46.4677  -21.2412   13.5964 H         1 UNK         0.0792 
    130 H130      -46.1553  -22.6819   12.6379 H         1 UNK         0.0792 
    131 H131      -47.9604  -23.1415   10.9541 H         1 UNK         0.3086 
    132 H132      -51.1672  -24.5790   10.2781 H         1 UNK         0.0583 
    133 H133      -51.1965  -22.5658    8.8925 H         1 UNK         0.1020 
    134 H134      -49.4768  -22.6582    8.6302 H         1 UNK         0.1020 
    135 H135      -52.8710  -24.3742    8.2086 H         1 UNK         0.0694 
    136 H136      -52.8061  -25.0250    6.5921 H         1 UNK         0.0694 
    137 H137      -48.6215  -25.1598    9.1578 H         1 UNK         0.2989 
    138 H138      -47.6732  -27.6053   11.5977 H         1 UNK         0.1055 
    139 H139      -49.1007  -28.8280   10.0146 H         1 UNK         0.0806 
    140 H140      -47.4382  -28.9024    9.4516 H         1 UNK         0.0806 
    141 H141      -48.5925  -27.8135    8.6813 H         1 UNK         0.0806 
    142 H142      -46.5035  -26.4349    9.2034 H         1 UNK         0.3061 
    143 H143      -44.6333  -23.9437   10.9452 H         1 UNK         0.0734 
    144 H144      -42.6954  -25.1164    9.9300 H         1 UNK         0.0832 
    145 H145      -43.2835  -26.0145   11.3184 H         1 UNK         0.0832 
    146 H146      -43.6624  -26.5738    9.6957 H         1 UNK         0.0832 
    147 H147      -44.6089  -24.7932    8.2219 H         1 UNK         0.3156 
    148 H148      -47.4205  -22.9910    7.0707 H         1 UNK         0.0589 
    149 H149      -44.4553  -22.2971    6.6988 H         1 UNK         0.0808 
    150 H150      -45.7763  -21.8319    5.6252 H         1 UNK         0.0808 
    151 H151      -45.6985  -21.1852    7.2546 H         1 UNK         0.0808 
    152 H152      -45.4504  -24.3402    5.5914 H         1 UNK         0.3098 
    153 H153      -46.0574  -26.2750    4.5530 H         1 UNK         0.0720 
    154 H154      -44.9747  -28.3836    5.3997 H         1 UNK         0.0791 
    155 H155      -45.5819  -28.0627    7.0221 H         1 UNK         0.0791 
    156 H156      -44.3806  -26.9986    6.2988 H         1 UNK         0.0791 
    157 H157      -48.3010  -27.4291    5.9501 H         1 UNK         0.3028 
@<TRIPOS>BOND
     1    1    2 1    
     2    1   82 1    
     3    1   83 1    
     4    1   84 1    
     5    2    3 2    
     6    2    4 am   BACKBONE|DICT|INTERRES
     7    4    5 1    
     8    4   85 1    
     9    5    6 1    
    10    5   80 1    
    11    5   86 1    
    12    6    7 1    
    13    6   87 1    
    14    6   88 1    
    15    7    8 1    
    16    8    9 1    
    17    8   89 1    
    18    8   90 1    
    19    9   10 ar   
    20    9   14 ar   
    21   10   11 ar   
    22   10   91 1    
    23   11   12 ar   
    24   11   58 1    
    25   12   13 ar   
    26   12   92 1    
    27   13   14 ar   
    28   13   15 1    
    29   14   93 1    
    30   15   16 1    
    31   15   94 1    
    32   15   95 1    
    33   16   17 1    
    34   17   18 1    
    35   17   96 1    
    36   17   97 1    
    37   18   19 1    
    38   18   22 1    
    39   18   98 1    
    40   19   20 am   BACKBONE|DICT|INTERRES
    41   19   21 2    
    42   20   99 1    
    43   20  100 1    
    44   22   23 am   BACKBONE|DICT|INTERRES
    45   22  101 1    
    46   23   24 2    
    47   23   25 1    
    48   25   26 1    
    49   25   27 1    
    50   25  102 1    
    51   26  103 1    
    52   26  104 1    
    53   26  105 1    
    54   27   28 am   BACKBONE|DICT|INTERRES
    55   27  106 1    
    56   28   29 2    
    57   28   30 1    
    58   30   31 1    
    59   30   32 1    
    60   30  107 1    
    61   31  108 1    
    62   31  109 1    
    63   31  110 1    
    64   32   33 am   BACKBONE|DICT|INTERRES
    65   32  111 1    
    66   33   34 2    
    67   33   35 1    
    68   35   36 1    
    69   35   37 1    
    70   35  112 1    
    71   36  113 1    
    72   36  114 1    
    73   36  115 1    
    74   37   38 am   BACKBONE|DICT|INTERRES
    75   37  116 1    
    76   38   39 2    
    77   38   40 1    
    78   40   41 1    
    79   40   42 1    
    80   40  117 1    
    81   41  118 1    
    82   41  119 1    
    83   41  120 1    
    84   42   43 am   BACKBONE|DICT|INTERRES
    85   42  121 1    
    86   43   44 2    
    87   43   45 1    
    88   45   46 1    
    89   45   47 1    
    90   45  122 1    
    91   46  123 1    
    92   46  124 1    
    93   46  125 1    
    94   47   48 am   BACKBONE|DICT|INTERRES
    95   47  126 1    
    96   48   49 2    
    97   48   50 1    
    98   50   51 1    
    99   50   52 1    
   100   50  127 1    
   101   51  128 1    
   102   51  129 1    
   103   51  130 1    
   104   52   53 am   BACKBONE|DICT|INTERRES
   105   52  131 1    
   106   53   54 2    
   107   53   55 1    
   108   55   56 1    
   109   55   59 1    
   110   55  132 1    
   111   56   57 1    
   112   56  133 1    
   113   56  134 1    
   114   57   58 1    
   115   58  135 1    
   116   58  136 1    
   117   59   60 am   BACKBONE|DICT|INTERRES
   118   59  137 1    
   119   60   61 2    
   120   60   62 1    
   121   62   63 1    
   122   62   64 1    
   123   62  138 1    
   124   63  139 1    
   125   63  140 1    
   126   63  141 1    
   127   64   65 am   BACKBONE|DICT|INTERRES
   128   64  142 1    
   129   65   66 2    
   130   65   67 1    
   131   67   68 1    
   132   67   69 1    
   133   67  143 1    
   134   68  144 1    
   135   68  145 1    
   136   68  146 1    
   137   69   70 am   BACKBONE|DICT|INTERRES
   138   69  147 1    
   139   70   71 2    
   140   70   72 1    
   141   72   73 1    
   142   72   74 1    
   143   72  148 1    
   144   73  149 1    
   145   73  150 1    
   146   73  151 1    
   147   74   75 am   BACKBONE|DICT|INTERRES
   148   74  152 1    
   149   75   76 2    
   150   75   77 1    
   151   77   78 1    
   152   77   79 1    
   153   77  153 1    
   154   78  154 1    
   155   78  155 1    
   156   78  156 1    
   157   79   80 am   BACKBONE|DICT|INTERRES
   158   79  157 1    
   159   80   81 2    
@<TRIPOS>SUBSTRUCTURE
     1 UNK         1 GROUP             0       ****    0 ROOT    
