@<TRIPOS>MOLECULE
3R207
157   159    1
SMALL
USER_CHARGES


@<TRIPOS>ATOM
      1 CA        -45.1196  -29.8963    8.5117 C.3       0 UNK        -0.1975 
      2 C         -46.4136  -30.4681    7.9518 C.2       0 UNK         0.4852 
      3 O         -46.4258  -30.9643    6.8249 O.2       0 UNK        -0.5216 
      4 N         -47.4992  -30.4071    8.7345 N.am      1 UNK        -0.4461 
      5 CA        -48.8410  -30.8807    8.3696 C.3       1 UNK         0.0864 
      6 C6        -49.7716  -30.9899    9.6034 C.3       14 UNK        -0.0898 
      7 S7        -49.7752  -29.5075   10.6755 S.3       14 UNK        -0.2598 
      8 C8        -51.5510  -29.1933   10.8940 C.3       14 UNK         0.0286 
      9 C9        -52.0751  -28.1558    9.9148 C.ar      14 UNK        -0.0844 
     10 C10       -52.1425  -26.8142   10.2968 C.ar      14 UNK        -0.0881 
     11 C11       -52.7344  -25.8618    9.4629 C.ar      14 UNK        -0.0643 
     12 C12       -53.2259  -26.2574    8.2156 C.ar      14 UNK        -0.0930 
     13 C13       -53.1454  -27.5944    7.8130 C.ar      14 UNK        -0.0827 
     14 C14       -52.5594  -28.5381    8.6625 C.ar      14 UNK        -0.1249 
     15 C15       -53.7253  -28.0217    6.4741 C.3       14 UNK         0.0141 
     16 S16       -55.5256  -28.2957    6.5793 S.3       14 UNK        -0.2313 
     17 C17       -55.6190  -29.8356    7.5589 C.3       14 UNK        -0.0915 
     18 CA        -56.3179  -29.6780    8.9388 C.3       13 UNK         0.0968 
     19 C         -56.3242  -31.0433    9.6883 C.2       13 UNK         0.5732 
     20 N         -55.5768  -31.2114   10.7730 N.am      13 UNK        -0.7310 
     21 O         -57.0221  -31.9661    9.2744 O.2       13 UNK        -0.5035 
     22 N         -55.7913  -28.5375    9.7097 N.am      13 UNK        -0.4233 
     23 C         -56.3453  -28.0361   10.8214 C.2       13 UNK         0.4989 
     24 O         -57.3598  -28.4841   11.3606 O.2       13 UNK        -0.4996 
     25 CA        -55.6661  -26.8041   11.4217 C.3       12 UNK         0.0216 
     26 CB        -56.3826  -25.5108   10.9984 C.3       12 UNK        -0.1964 
     27 N         -55.6470  -26.9132   12.8781 N.am      12 UNK        -0.4276 
     28 C         -54.5884  -26.6271   13.6443 C.2       12 UNK         0.5020 
     29 O         -53.5218  -26.1783   13.2118 O.2       12 UNK        -0.5489 
     30 CA        -54.7285  -26.9040   15.1470 C.3       11 UNK         0.0294 
     31 CB        -54.8196  -28.4179   15.4267 C.3       11 UNK        -0.2019 
     32 N         -53.5509  -26.3451   15.8010 N.am      11 UNK        -0.4493 
     33 C         -53.3722  -26.1165   17.1056 C.2       11 UNK         0.4932 
     34 O         -54.2378  -26.3154   17.9600 O.2       11 UNK        -0.5029 
     35 CA        -51.9834  -25.5778   17.5109 C.3       10 UNK         0.0280 
     36 CB        -51.6906  -25.7229   19.0194 C.3       10 UNK        -0.1976 
     37 N         -50.8974  -26.1516   16.7036 N.am      10 UNK        -0.4242 
     38 C         -50.5534  -27.4469   16.6103 C.2       10 UNK         0.5072 
     39 O         -51.0712  -28.3527   17.2650 O.2       10 UNK        -0.5224 
     40 CA        -49.4533  -27.8013   15.5956 C.3       9 UNK         0.0343 
     41 CB        -50.0602  -27.9914   14.1969 C.3       9 UNK        -0.2003 
     42 N         -48.3765  -26.8127   15.5250 N.am      9 UNK        -0.4272 
     43 C         -47.4980  -26.5634   16.5073 C.2       9 UNK         0.4988 
     44 O         -47.4962  -27.1418   17.5943 O.2       9 UNK        -0.5108 
     45 CA        -46.4382  -25.4880   16.2269 C.3       8 UNK         0.0248 
     46 CB        -45.2681  -26.0736   15.4186 C.3       8 UNK        -0.2001 
     47 N         -47.0156  -24.3531   15.5063 N.am      8 UNK        -0.4140 
     48 C         -47.6207  -23.3141   16.0978 C.2       8 UNK         0.5028 
     49 O         -47.6810  -23.1592   17.3182 O.2       8 UNK        -0.5428 
     50 CA        -48.2758  -22.2657   15.1801 C.3       7 UNK         0.0264 
     51 CB        -47.2925  -21.1221   14.8826 C.3       7 UNK        -0.1988 
     52 N         -48.7757  -22.8135   13.9159 N.am      7 UNK        -0.4454 
     53 C         -49.7964  -23.6770   13.8097 C.2       7 UNK         0.5027 
     54 O         -50.4229  -24.1189   14.7731 O.2       7 UNK        -0.5083 
     55 CA        -50.1558  -24.1537   12.3889 C.3       6 UNK         0.0844 
     56 C56       -51.1108  -23.1383   11.7103 C.3       14 UNK        -0.0967 
     57 S57       -51.4012  -23.4689    9.9353 S.3       14 UNK        -0.2604 
     58 C58       -52.9397  -24.4358    9.9557 C.3       14 UNK         0.0134 
     59 N         -48.9966  -24.4597   11.5447 N.am      6 UNK        -0.4116 
     60 C         -47.9293  -25.2137   11.8364 C.2       5 UNK         0.5034 
     61 O         -47.7133  -25.6939   12.9495 O.2       5 UNK        -0.5045 
     62 CA        -46.9325  -25.4871   10.6937 C.3       5 UNK         0.0224 
     63 CB        -46.8477  -26.9944   10.4049 C.3       5 UNK        -0.1978 
     64 N         -47.2683  -24.7954    9.4428 N.am      5 UNK        -0.4737 
     65 C         -46.9968  -23.5067    9.1786 C.2       4 UNK         0.5027 
     66 O         -46.4182  -22.7623    9.9691 O.2       4 UNK        -0.5211 
     67 CA        -47.4738  -22.9433    7.8304 C.3       4 UNK         0.0297 
     68 CB        -46.3679  -23.0701    6.7665 C.3       4 UNK        -0.1993 
     69 N         -48.6906  -23.6231    7.3944 N.am      4 UNK        -0.4486 
     70 C         -49.5645  -23.2398    6.4648 C.2       3 UNK         0.4961 
     71 O         -49.4460  -22.2152    5.7907 O.2       3 UNK        -0.5105 
     72 CA        -50.7770  -24.1788    6.2684 C.3       3 UNK         0.0299 
     73 CB        -51.7677  -23.6533    5.2135 C.3       3 UNK        -0.1972 
     74 N         -50.4255  -25.5657    5.9357 N.am      3 UNK        -0.4305 
     75 C         -49.7949  -26.4607    6.7112 C.2       2 UNK         0.5006 
     76 O         -49.3329  -26.2193    7.8326 O.2       2 UNK        -0.5106 
     77 CA        -49.6243  -27.8562    6.1054 C.3       2 UNK         0.0296 
     78 CB        -48.5929  -27.8466    4.9619 C.3       2 UNK        -0.2002 
     79 N         -49.1783  -28.7756    7.1451 N.am      2 UNK        -0.4032 
     80 C         -49.4881  -30.0738    7.2234 C.2       1 UNK         0.5000 
     81 O         -50.2278  -30.6513    6.4236 O.2       1 UNK        -0.5238 
     82 H82       -44.3153  -30.6255    8.4176 H         1 UNK         0.0889 
     83 H83       -45.2125  -29.6333    9.5653 H         1 UNK         0.0889 
     84 H84       -44.8351  -29.0014    7.9590 H         1 UNK         0.0889 
     85 H85       -47.4326  -29.9973    9.6558 H         1 UNK         0.3028 
     86 H86       -48.7157  -31.8931    7.9787 H         1 UNK         0.0864 
     87 H87       -50.7876  -31.2434    9.2956 H         1 UNK         0.0720 
     88 H88       -49.4433  -31.8267   10.2217 H         1 UNK         0.0720 
     89 H89       -51.7168  -28.8439   11.9137 H         1 UNK         0.0814 
     90 H90       -52.1193  -30.1204   10.8089 H         1 UNK         0.0814 
     91 H91       -51.7928  -26.5227   11.2748 H         1 UNK         0.1469 
     92 H92       -53.7001  -25.5319    7.5689 H         1 UNK         0.1381 
     93 H93       -52.5031  -29.5751    8.3625 H         1 UNK         0.1206 
     94 H94       -53.5289  -27.2492    5.7291 H         1 UNK         0.0813 
     95 H95       -53.2337  -28.9257    6.1103 H         1 UNK         0.0813 
     96 H96       -54.6176  -30.2482    7.6831 H         1 UNK         0.0638 
     97 H97       -56.1597  -30.5648    6.9529 H         1 UNK         0.0638 
     98 H98       -57.3662  -29.4467    8.7409 H         1 UNK         0.0568 
     99 H99       -55.5935  -32.0991   11.2492 H         1 UNK         0.3450 
    100 H100      -55.0100  -30.4583   11.1247 H         1 UNK         0.3450 
    101 H101      -54.9596  -28.1056    9.3290 H         1 UNK         0.2987 
    102 H102      -54.6473  -26.7781   11.0491 H         1 UNK         0.0766 
    103 H103      -55.8878  -24.6316   11.4110 H         1 UNK         0.0798 
    104 H104      -57.4212  -25.4977   11.3314 H         1 UNK         0.0798 
    105 H105      -56.3834  -25.4033    9.9128 H         1 UNK         0.0798 
    106 H106      -56.4716  -27.3314   13.2897 H         1 UNK         0.3198 
    107 H107      -55.6211  -26.3954   15.5170 H         1 UNK         0.0843 
    108 H108      -53.9371  -28.9454   15.0619 H         1 UNK         0.0831 
    109 H109      -55.6903  -28.8616   14.9427 H         1 UNK         0.0831 
    110 H110      -54.9102  -28.6225   16.4935 H         1 UNK         0.0831 
    111 H111      -52.8214  -26.0928   15.1424 H         1 UNK         0.3133 
    112 H112      -51.9948  -24.5116   17.2806 H         1 UNK         0.0566 
    113 H113      -50.7068  -25.3268   19.2714 H         1 UNK         0.0814 
    114 H114      -52.4224  -25.1745   19.6137 H         1 UNK         0.0814 
    115 H115      -51.7262  -26.7639   19.3415 H         1 UNK         0.0814 
    116 H116      -50.4517  -25.4935   16.0677 H         1 UNK         0.3091 
    117 H117      -49.0103  -28.7503   15.9048 H         1 UNK         0.0702 
    118 H118      -49.3013  -28.2859   13.4717 H         1 UNK         0.0785 
    119 H119      -50.5348  -27.0801   13.8326 H         1 UNK         0.0785 
    120 H120      -50.8209  -28.7729   14.2083 H         1 UNK         0.0785 
    121 H121      -48.2566  -26.3313   14.6375 H         1 UNK         0.2998 
    122 H122      -46.0434  -25.1452   17.1859 H         1 UNK         0.0697 
    123 H123      -45.5892  -26.4492   14.4464 H         1 UNK         0.0825 
    124 H124      -44.8063  -26.9057   15.9517 H         1 UNK         0.0825 
    125 H125      -44.4917  -25.3274   15.2492 H         1 UNK         0.0825 
    126 H126      -47.0635  -24.4367   14.4979 H         1 UNK         0.3029 
    127 H127      -49.1284  -21.8503   15.7222 H         1 UNK         0.0897 
    128 H128      -47.7701  -20.3254   14.3119 H         1 UNK         0.0792 
    129 H129      -46.9207  -20.6772   15.8068 H         1 UNK         0.0792 
    130 H130      -46.4267  -21.4695   14.3172 H         1 UNK         0.0792 
    131 H131      -48.3077  -22.5158   13.0715 H         1 UNK         0.3086 
    132 H132      -50.6970  -25.0908   12.5100 H         1 UNK         0.0583 
    133 H133      -52.0633  -23.0972   12.2424 H         1 UNK         0.1020 
    134 H134      -50.6984  -22.1290   11.7719 H         1 UNK         0.1020 
    135 H135      -53.3622  -24.4648   10.9605 H         1 UNK         0.0694 
    136 H136      -53.6772  -23.9229    9.3367 H         1 UNK         0.0694 
    137 H137      -49.0784  -24.1356   10.5924 H         1 UNK         0.2989 
    138 H138      -45.9530  -25.1469   11.0370 H         1 UNK         0.1055 
    139 H139      -46.5875  -27.5563   11.3032 H         1 UNK         0.0806 
    140 H140      -46.0858  -27.2088    9.6559 H         1 UNK         0.0806 
    141 H141      -47.7987  -27.3822   10.0395 H         1 UNK         0.0806 
    142 H142      -47.7536  -25.3592    8.7537 H         1 UNK         0.3061 
    143 H143      -47.7068  -21.8867    7.9777 H         1 UNK         0.0734 
    144 H144      -46.6563  -22.5918    5.8305 H         1 UNK         0.0832 
    145 H145      -45.4471  -22.5909    7.1020 H         1 UNK         0.0832 
    146 H146      -46.1349  -24.1137    6.5517 H         1 UNK         0.0832 
    147 H147      -48.9122  -24.5062    7.8500 H         1 UNK         0.3156 
    148 H148      -51.3099  -24.2063    7.2175 H         1 UNK         0.0589 
    149 H149      -51.3174  -23.6147    4.2208 H         1 UNK         0.0808 
    150 H150      -52.6581  -24.2799    5.1568 H         1 UNK         0.0808 
    151 H151      -52.1023  -22.6446    5.4599 H         1 UNK         0.0808 
    152 H152      -50.7116  -25.8693    5.0165 H         1 UNK         0.3098 
    153 H153      -50.5967  -28.1763    5.7251 H         1 UNK         0.0720 
    154 H154      -48.4655  -28.8428    4.5374 H         1 UNK         0.0791 
    155 H155      -47.6156  -27.5054    5.3062 H         1 UNK         0.0791 
    156 H156      -48.9025  -27.1889    4.1491 H         1 UNK         0.0791 
    157 H157      -48.6570  -28.3450    7.8969 H         1 UNK         0.3028 
@<TRIPOS>BOND
     1    1    2 1    
     2    1   82 1    
     3    1   83 1    
     4    1   84 1    
     5    2    3 2    
     6    2    4 am   BACKBONE|DICT|INTERRES
     7    4    5 1    
     8    4   85 1    
     9    5    6 1    
    10    5   80 1    
    11    5   86 1    
    12    6    7 1    
    13    6   87 1    
    14    6   88 1    
    15    7    8 1    
    16    8    9 1    
    17    8   89 1    
    18    8   90 1    
    19    9   10 ar   
    20    9   14 ar   
    21   10   11 ar   
    22   10   91 1    
    23   11   12 ar   
    24   11   58 1    
    25   12   13 ar   
    26   12   92 1    
    27   13   14 ar   
    28   13   15 1    
    29   14   93 1    
    30   15   16 1    
    31   15   94 1    
    32   15   95 1    
    33   16   17 1    
    34   17   18 1    
    35   17   96 1    
    36   17   97 1    
    37   18   19 1    
    38   18   22 1    
    39   18   98 1    
    40   19   20 am   BACKBONE|DICT|INTERRES
    41   19   21 2    
    42   20   99 1    
    43   20  100 1    
    44   22   23 am   BACKBONE|DICT|INTERRES
    45   22  101 1    
    46   23   24 2    
    47   23   25 1    
    48   25   26 1    
    49   25   27 1    
    50   25  102 1    
    51   26  103 1    
    52   26  104 1    
    53   26  105 1    
    54   27   28 am   BACKBONE|DICT|INTERRES
    55   27  106 1    
    56   28   29 2    
    57   28   30 1    
    58   30   31 1    
    59   30   32 1    
    60   30  107 1    
    61   31  108 1    
    62   31  109 1    
    63   31  110 1    
    64   32   33 am   BACKBONE|DICT|INTERRES
    65   32  111 1    
    66   33   34 2    
    67   33   35 1    
    68   35   36 1    
    69   35   37 1    
    70   35  112 1    
    71   36  113 1    
    72   36  114 1    
    73   36  115 1    
    74   37   38 am   BACKBONE|DICT|INTERRES
    75   37  116 1    
    76   38   39 2    
    77   38   40 1    
    78   40   41 1    
    79   40   42 1    
    80   40  117 1    
    81   41  118 1    
    82   41  119 1    
    83   41  120 1    
    84   42   43 am   BACKBONE|DICT|INTERRES
    85   42  121 1    
    86   43   44 2    
    87   43   45 1    
    88   45   46 1    
    89   45   47 1    
    90   45  122 1    
    91   46  123 1    
    92   46  124 1    
    93   46  125 1    
    94   47   48 am   BACKBONE|DICT|INTERRES
    95   47  126 1    
    96   48   49 2    
    97   48   50 1    
    98   50   51 1    
    99   50   52 1    
   100   50  127 1    
   101   51  128 1    
   102   51  129 1    
   103   51  130 1    
   104   52   53 am   BACKBONE|DICT|INTERRES
   105   52  131 1    
   106   53   54 2    
   107   53   55 1    
   108   55   56 1    
   109   55   59 1    
   110   55  132 1    
   111   56   57 1    
   112   56  133 1    
   113   56  134 1    
   114   57   58 1    
   115   58  135 1    
   116   58  136 1    
   117   59   60 am   BACKBONE|DICT|INTERRES
   118   59  137 1    
   119   60   61 2    
   120   60   62 1    
   121   62   63 1    
   122   62   64 1    
   123   62  138 1    
   124   63  139 1    
   125   63  140 1    
   126   63  141 1    
   127   64   65 am   BACKBONE|DICT|INTERRES
   128   64  142 1    
   129   65   66 2    
   130   65   67 1    
   131   67   68 1    
   132   67   69 1    
   133   67  143 1    
   134   68  144 1    
   135   68  145 1    
   136   68  146 1    
   137   69   70 am   BACKBONE|DICT|INTERRES
   138   69  147 1    
   139   70   71 2    
   140   70   72 1    
   141   72   73 1    
   142   72   74 1    
   143   72  148 1    
   144   73  149 1    
   145   73  150 1    
   146   73  151 1    
   147   74   75 am   BACKBONE|DICT|INTERRES
   148   74  152 1    
   149   75   76 2    
   150   75   77 1    
   151   77   78 1    
   152   77   79 1    
   153   77  153 1    
   154   78  154 1    
   155   78  155 1    
   156   78  156 1    
   157   79   80 am   BACKBONE|DICT|INTERRES
   158   79  157 1    
   159   80   81 2    
@<TRIPOS>SUBSTRUCTURE
     1 UNK         1 GROUP             0       ****    0 ROOT    
