@<TRIPOS>MOLECULE
3R207
157   159    1
SMALL
USER_CHARGES


@<TRIPOS>ATOM
      1 CA        -45.3483  -31.2475    4.3987 C.3       0 UNK        -0.1975 
      2 C         -46.3206  -30.2473    3.7913 C.2       0 UNK         0.4852 
      3 O         -46.0214  -29.6545    2.7542 O.2       0 UNK        -0.5216 
      4 N         -47.4804  -30.0509    4.4326 N.am      1 UNK        -0.4461 
      5 CA        -48.5391  -29.1236    4.0083 C.3       1 UNK         0.0864 
      6 C6        -49.9288  -29.5521    4.5476 C.3       14 UNK        -0.0898 
      7 S7        -49.9821  -29.8451    6.3509 S.3       14 UNK        -0.2598 
      8 C8        -51.7403  -30.2733    6.6017 C.3       14 UNK         0.0286 
      9 C9        -52.5905  -29.1094    7.1072 C.ar      14 UNK        -0.0844 
     10 C10       -52.4668  -27.8304    6.5562 C.ar      14 UNK        -0.0881 
     11 C11       -53.2451  -26.7698    7.0229 C.ar      14 UNK        -0.0643 
     12 C12       -54.1837  -26.9961    8.0315 C.ar      14 UNK        -0.0930 
     13 C13       -54.3215  -28.2678    8.5953 C.ar      14 UNK        -0.0827 
     14 C14       -53.5249  -29.3195    8.1281 C.ar      14 UNK        -0.1249 
     15 C15       -55.3371  -28.4963    9.7058 C.3       14 UNK         0.0141 
     16 S16       -54.8360  -27.6901   11.2600 S.3       14 UNK        -0.2313 
     17 C17       -53.5290  -28.8119   11.8604 C.3       14 UNK        -0.0915 
     18 CA        -54.0100  -29.6671   13.0600 C.3       13 UNK         0.0968 
     19 C         -52.9901  -30.7866   13.4053 C.2       13 UNK         0.5732 
     20 N         -52.9654  -31.8599   12.6246 N.am      13 UNK        -0.7310 
     21 O         -52.2096  -30.6881   14.3519 O.2       13 UNK        -0.5035 
     22 N         -54.3245  -28.8176   14.2155 N.am      13 UNK        -0.4233 
     23 C         -55.0900  -29.1727   15.2535 C.2       13 UNK         0.4989 
     24 O         -55.6717  -30.2564   15.3295 O.2       13 UNK        -0.4996 
     25 CA        -55.2422  -28.1618   16.4100 C.3       12 UNK         0.0216 
     26 CB        -54.6441  -28.7359   17.7054 C.3       12 UNK        -0.1964 
     27 N         -54.6465  -26.8440   16.1468 N.am      12 UNK        -0.4276 
     28 C         -55.1583  -25.9283   15.3082 C.2       12 UNK         0.5020 
     29 O         -56.2131  -26.0962   14.6938 O.2       12 UNK        -0.5489 
     30 CA        -54.3521  -24.6287   15.0978 C.3       11 UNK         0.0294 
     31 CB        -55.2180  -23.4563   14.5892 C.3       11 UNK        -0.2019 
     32 N         -53.5534  -24.2289   16.2634 N.am      11 UNK        -0.4493 
     33 C         -54.0094  -23.9075   17.4845 C.2       11 UNK         0.4932 
     34 O         -55.2071  -23.8537   17.7697 O.2       11 UNK        -0.5029 
     35 CA        -52.9568  -23.6035   18.5764 C.3       10 UNK         0.0280 
     36 CB        -53.5284  -23.7811   19.9994 C.3       10 UNK        -0.1976 
     37 N         -51.6929  -24.3478   18.4592 N.am      10 UNK        -0.4242 
     38 C         -51.5421  -25.6755   18.3549 C.2       10 UNK         0.5072 
     39 O         -52.4725  -26.4710   18.2103 O.2       10 UNK        -0.5224 
     40 CA        -50.1071  -26.2113   18.3611 C.3       9 UNK         0.0343 
     41 CB        -49.9106  -27.2811   19.4489 C.3       9 UNK        -0.2003 
     42 N         -49.9058  -26.8048   17.0488 N.am      9 UNK        -0.4272 
     43 C         -49.0025  -26.3984   16.1526 C.2       9 UNK         0.4988 
     44 O         -48.0378  -25.6793   16.4208 O.2       9 UNK        -0.5108 
     45 CA        -49.2479  -26.8154   14.6887 C.3       8 UNK         0.0248 
     46 CB        -50.4304  -27.7943   14.4988 C.3       8 UNK        -0.2001 
     47 N         -49.4305  -25.6449   13.8221 N.am      8 UNK        -0.4140 
     48 C         -50.2795  -24.6194   14.0075 C.2       8 UNK         0.5028 
     49 O         -51.0340  -24.5029   14.9754 O.2       8 UNK        -0.5428 
     50 CA        -50.3098  -23.5433   12.9109 C.3       7 UNK         0.0264 
     51 CB        -49.0824  -22.6231   13.0055 C.3       7 UNK        -0.1988 
     52 N         -50.3991  -24.1137   11.5659 N.am      7 UNK        -0.4454 
     53 C         -51.4544  -24.7970   11.0945 C.2       7 UNK         0.5027 
     54 O         -52.4961  -24.9703   11.7271 O.2       7 UNK        -0.5083 
     55 CA        -51.3196  -25.3724    9.6695 C.3       6 UNK         0.0844 
     56 C56       -51.6266  -24.2576    8.6322 C.3       14 UNK        -0.0967 
     57 S57       -51.3969  -24.7310    6.8870 S.3       14 UNK        -0.2604 
     58 C58       -53.0393  -25.3793    6.4469 C.3       14 UNK         0.0134 
     59 N         -50.0180  -26.0294    9.4915 N.am      6 UNK        -0.4116 
     60 C         -49.6406  -27.1377   10.1512 C.2       5 UNK         0.5034 
     61 O         -50.3967  -27.8092   10.8500 O.2       5 UNK        -0.5045 
     62 CA        -48.1606  -27.5491   10.0815 C.3       5 UNK         0.0224 
     63 CB        -47.9178  -28.6112    8.9991 C.3       5 UNK        -0.1978 
     64 N         -47.2781  -26.4034    9.8616 N.am      5 UNK        -0.4737 
     65 C         -46.9054  -25.5474   10.8225 C.2       4 UNK         0.5027 
     66 O         -47.2243  -25.6704   12.0042 O.2       4 UNK        -0.5211 
     67 CA        -46.0685  -24.3298   10.3911 C.3       4 UNK         0.0297 
     68 CB        -44.5708  -24.6720   10.4145 C.3       4 UNK        -0.1993 
     69 N         -46.4348  -23.8268    9.0649 N.am      4 UNK        -0.4486 
     70 C         -47.6259  -23.2923    8.7606 C.2       3 UNK         0.4961 
     71 O         -48.5158  -23.0983    9.5886 O.2       3 UNK        -0.5105 
     72 CA        -47.8889  -22.9741    7.2766 C.3       3 UNK         0.0299 
     73 CB        -47.4557  -21.5359    6.9534 C.3       3 UNK        -0.1972 
     74 N         -47.2472  -23.9047    6.3362 N.am      3 UNK        -0.4305 
     75 C         -47.4287  -25.2338    6.3173 C.2       2 UNK         0.5006 
     76 O         -48.1386  -25.8363    7.1218 O.2       2 UNK        -0.5106 
     77 CA        -46.5994  -26.0203    5.2910 C.3       2 UNK         0.0296 
     78 CB        -45.1516  -26.1736    5.7893 C.3       2 UNK        -0.2002 
     79 N         -47.1406  -27.3565    5.0314 N.am      2 UNK        -0.4032 
     80 C         -48.2130  -27.6319    4.2744 C.2       1 UNK         0.5000 
     81 O         -48.9064  -26.7633    3.7403 O.2       1 UNK        -0.5238 
     82 H82       -44.4045  -30.7571    4.6358 H         1 UNK         0.0889 
     83 H83       -45.1465  -32.0511    3.6909 H         1 UNK         0.0889 
     84 H84       -45.7389  -31.6923    5.3140 H         1 UNK         0.0889 
     85 H85       -47.6816  -30.5657    5.2794 H         1 UNK         0.3028 
     86 H86       -48.6034  -29.1986    2.9202 H         1 UNK         0.0864 
     87 H87       -50.2188  -30.4851    4.0616 H         1 UNK         0.0720 
     88 H88       -50.6939  -28.8308    4.2593 H         1 UNK         0.0720 
     89 H89       -52.1704  -30.6552    5.6750 H         1 UNK         0.0814 
     90 H90       -51.7782  -31.0972    7.3158 H         1 UNK         0.0814 
     91 H91       -51.7409  -27.6374    5.7811 H         1 UNK         0.1469 
     92 H92       -54.7888  -26.1791    8.4000 H         1 UNK         0.1381 
     93 H93       -53.6328  -30.3041    8.5621 H         1 UNK         0.1206 
     94 H94       -56.3009  -28.0901    9.3956 H         1 UNK         0.0813 
     95 H95       -55.4978  -29.5611    9.8813 H         1 UNK         0.0813 
     96 H96       -53.1902  -29.4417   11.0365 H         1 UNK         0.0638 
     97 H97       -52.6697  -28.2045   12.1473 H         1 UNK         0.0638 
     98 H98       -54.9343  -30.1677   12.7641 H         1 UNK         0.0568 
     99 H99       -52.3049  -32.5935   12.8274 H         1 UNK         0.3450 
    100 H100      -53.5948  -31.9549   11.8423 H         1 UNK         0.3450 
    101 H101      -53.8850  -27.9115   14.2302 H         1 UNK         0.2987 
    102 H102      -56.3132  -28.0201   16.5689 H         1 UNK         0.0766 
    103 H103      -55.1170  -29.6820   17.9721 H         1 UNK         0.0798 
    104 H104      -54.7882  -28.0558   18.5453 H         1 UNK         0.0798 
    105 H105      -53.5742  -28.9235   17.6053 H         1 UNK         0.0798 
    106 H106      -53.8125  -26.6117   16.6796 H         1 UNK         0.3198 
    107 H107      -53.6334  -24.8594   14.3099 H         1 UNK         0.0843 
    108 H108      -56.0172  -23.2082   15.2880 H         1 UNK         0.0831 
    109 H109      -55.6857  -23.7033   13.6354 H         1 UNK         0.0831 
    110 H110      -54.6177  -22.5607   14.4299 H         1 UNK         0.0831 
    111 H111      -52.5467  -24.2562   16.1051 H         1 UNK         0.3133 
    112 H112      -52.6993  -22.5507   18.4539 H         1 UNK         0.0566 
    113 H113      -53.8512  -24.8079   20.1757 H         1 UNK         0.0814 
    114 H114      -54.3916  -23.1346   20.1633 H         1 UNK         0.0814 
    115 H115      -52.7899  -23.5269   20.7596 H         1 UNK         0.0814 
    116 H116      -50.8559  -23.7826   18.4994 H         1 UNK         0.3091 
    117 H117      -49.4094  -25.3901   18.5398 H         1 UNK         0.0702 
    118 H118      -48.8938  -27.6739   19.4351 H         1 UNK         0.0785 
    119 H119      -50.5945  -28.1216   19.3224 H         1 UNK         0.0785 
    120 H120      -50.0855  -26.8632   20.4410 H         1 UNK         0.0785 
    121 H121      -50.6798  -27.3648   16.7191 H         1 UNK         0.2998 
    122 H122      -48.3389  -27.3153   14.3514 H         1 UNK         0.0697 
    123 H123      -50.4999  -28.1213   13.4623 H         1 UNK         0.0825 
    124 H124      -51.3884  -27.3436   14.7605 H         1 UNK         0.0825 
    125 H125      -50.3045  -28.6961   15.0996 H         1 UNK         0.0825 
    126 H126      -48.7847  -25.5942   13.0369 H         1 UNK         0.3029 
    127 H127      -51.2025  -22.9350   13.0726 H         1 UNK         0.0897 
    128 H128      -49.0140  -22.1659   13.9936 H         1 UNK         0.0792 
    129 H129      -49.1364  -21.8147   12.2759 H         1 UNK         0.0792 
    130 H130      -48.1530  -23.1661   12.8322 H         1 UNK         0.0792 
    131 H131      -49.6129  -23.9457   10.9431 H         1 UNK         0.3086 
    132 H132      -52.0793  -26.1480    9.5672 H         1 UNK         0.0583 
    133 H133      -52.6498  -23.9003    8.7633 H         1 UNK         0.1020 
    134 H134      -50.9930  -23.3868    8.8063 H         1 UNK         0.1020 
    135 H135      -53.8154  -24.6892    6.7810 H         1 UNK         0.0694 
    136 H136      -53.1181  -25.4294    5.3601 H         1 UNK         0.0694 
    137 H137      -49.3643  -25.5955    8.8508 H         1 UNK         0.2989 
    138 H138      -47.9093  -27.9985   11.0453 H         1 UNK         0.1055 
    139 H139      -48.5516  -29.4835    9.1640 H         1 UNK         0.0806 
    140 H140      -46.8837  -28.9551    9.0040 H         1 UNK         0.0806 
    141 H141      -48.1412  -28.2338    8.0024 H         1 UNK         0.0806 
    142 H142      -47.0680  -26.1831    8.8957 H         1 UNK         0.3061 
    143 H143      -46.2488  -23.5316   11.1144 H         1 UNK         0.0734 
    144 H144      -44.3215  -25.4532    9.6951 H         1 UNK         0.0832 
    145 H145      -43.9594  -23.7981   10.1890 H         1 UNK         0.0832 
    146 H146      -44.2696  -25.0297   11.4003 H         1 UNK         0.0832 
    147 H147      -45.7583  -23.9423    8.3249 H         1 UNK         0.3156 
    148 H148      -48.9657  -23.0444    7.1168 H         1 UNK         0.0589 
    149 H149      -47.7344  -21.2555    5.9374 H         1 UNK         0.0808 
    150 H150      -46.3779  -21.4039    7.0563 H         1 UNK         0.0808 
    151 H151      -47.9367  -20.8240    7.6260 H         1 UNK         0.0808 
    152 H152      -46.6307  -23.4935    5.6497 H         1 UNK         0.3098 
    153 H153      -46.5936  -25.4632    4.3516 H         1 UNK         0.0720 
    154 H154      -44.6799  -25.2027    5.9454 H         1 UNK         0.0791 
    155 H155      -44.5392  -26.7123    5.0656 H         1 UNK         0.0791 
    156 H156      -45.1050  -26.7151    6.7354 H         1 UNK         0.0791 
    157 H157      -46.6542  -28.1325    5.4533 H         1 UNK         0.3028 
@<TRIPOS>BOND
     1    1    2 1    
     2    1   82 1    
     3    1   83 1    
     4    1   84 1    
     5    2    3 2    
     6    2    4 am   BACKBONE|DICT|INTERRES
     7    4    5 1    
     8    4   85 1    
     9    5    6 1    
    10    5   80 1    
    11    5   86 1    
    12    6    7 1    
    13    6   87 1    
    14    6   88 1    
    15    7    8 1    
    16    8    9 1    
    17    8   89 1    
    18    8   90 1    
    19    9   10 ar   
    20    9   14 ar   
    21   10   11 ar   
    22   10   91 1    
    23   11   12 ar   
    24   11   58 1    
    25   12   13 ar   
    26   12   92 1    
    27   13   14 ar   
    28   13   15 1    
    29   14   93 1    
    30   15   16 1    
    31   15   94 1    
    32   15   95 1    
    33   16   17 1    
    34   17   18 1    
    35   17   96 1    
    36   17   97 1    
    37   18   19 1    
    38   18   22 1    
    39   18   98 1    
    40   19   20 am   BACKBONE|DICT|INTERRES
    41   19   21 2    
    42   20   99 1    
    43   20  100 1    
    44   22   23 am   BACKBONE|DICT|INTERRES
    45   22  101 1    
    46   23   24 2    
    47   23   25 1    
    48   25   26 1    
    49   25   27 1    
    50   25  102 1    
    51   26  103 1    
    52   26  104 1    
    53   26  105 1    
    54   27   28 am   BACKBONE|DICT|INTERRES
    55   27  106 1    
    56   28   29 2    
    57   28   30 1    
    58   30   31 1    
    59   30   32 1    
    60   30  107 1    
    61   31  108 1    
    62   31  109 1    
    63   31  110 1    
    64   32   33 am   BACKBONE|DICT|INTERRES
    65   32  111 1    
    66   33   34 2    
    67   33   35 1    
    68   35   36 1    
    69   35   37 1    
    70   35  112 1    
    71   36  113 1    
    72   36  114 1    
    73   36  115 1    
    74   37   38 am   BACKBONE|DICT|INTERRES
    75   37  116 1    
    76   38   39 2    
    77   38   40 1    
    78   40   41 1    
    79   40   42 1    
    80   40  117 1    
    81   41  118 1    
    82   41  119 1    
    83   41  120 1    
    84   42   43 am   BACKBONE|DICT|INTERRES
    85   42  121 1    
    86   43   44 2    
    87   43   45 1    
    88   45   46 1    
    89   45   47 1    
    90   45  122 1    
    91   46  123 1    
    92   46  124 1    
    93   46  125 1    
    94   47   48 am   BACKBONE|DICT|INTERRES
    95   47  126 1    
    96   48   49 2    
    97   48   50 1    
    98   50   51 1    
    99   50   52 1    
   100   50  127 1    
   101   51  128 1    
   102   51  129 1    
   103   51  130 1    
   104   52   53 am   BACKBONE|DICT|INTERRES
   105   52  131 1    
   106   53   54 2    
   107   53   55 1    
   108   55   56 1    
   109   55   59 1    
   110   55  132 1    
   111   56   57 1    
   112   56  133 1    
   113   56  134 1    
   114   57   58 1    
   115   58  135 1    
   116   58  136 1    
   117   59   60 am   BACKBONE|DICT|INTERRES
   118   59  137 1    
   119   60   61 2    
   120   60   62 1    
   121   62   63 1    
   122   62   64 1    
   123   62  138 1    
   124   63  139 1    
   125   63  140 1    
   126   63  141 1    
   127   64   65 am   BACKBONE|DICT|INTERRES
   128   64  142 1    
   129   65   66 2    
   130   65   67 1    
   131   67   68 1    
   132   67   69 1    
   133   67  143 1    
   134   68  144 1    
   135   68  145 1    
   136   68  146 1    
   137   69   70 am   BACKBONE|DICT|INTERRES
   138   69  147 1    
   139   70   71 2    
   140   70   72 1    
   141   72   73 1    
   142   72   74 1    
   143   72  148 1    
   144   73  149 1    
   145   73  150 1    
   146   73  151 1    
   147   74   75 am   BACKBONE|DICT|INTERRES
   148   74  152 1    
   149   75   76 2    
   150   75   77 1    
   151   77   78 1    
   152   77   79 1    
   153   77  153 1    
   154   78  154 1    
   155   78  155 1    
   156   78  156 1    
   157   79   80 am   BACKBONE|DICT|INTERRES
   158   79  157 1    
   159   80   81 2    
@<TRIPOS>SUBSTRUCTURE
     1 UNK         1 GROUP             0       ****    0 ROOT    
