@<TRIPOS>MOLECULE
3R207
157   159    1
SMALL
USER_CHARGES


@<TRIPOS>ATOM
      1 CA        -51.5449  -31.0986    3.2593 C.3       0 UNK        -0.1975 
      2 C         -50.5426  -30.3578    4.1314 C.2       0 UNK         0.4852 
      3 O         -50.7551  -29.1836    4.4427 O.2       0 UNK        -0.5216 
      4 N         -49.4542  -31.0345    4.5277 N.am      1 UNK        -0.4461 
      5 CA        -48.3772  -30.4910    5.3623 C.3       1 UNK         0.0864 
      6 C6        -47.3334  -31.5661    5.7599 C.3       14 UNK        -0.0898 
      7 S7        -48.0591  -32.8956    6.7806 S.3       14 UNK        -0.2598 
      8 C8        -47.6549  -32.3417    8.4722 C.3       14 UNK         0.0286 
      9 C9        -48.3054  -31.0032    8.7885 C.ar      14 UNK        -0.0844 
     10 C10       -47.5515  -29.8265    8.7435 C.ar      14 UNK        -0.0881 
     11 C11       -48.1655  -28.5887    8.9418 C.ar      14 UNK        -0.0643 
     12 C12       -49.5367  -28.5387    9.2014 C.ar      14 UNK        -0.0930 
     13 C13       -50.3034  -29.7066    9.2894 C.ar      14 UNK        -0.0827 
     14 C14       -49.6718  -30.9373    9.0815 C.ar      14 UNK        -0.1249 
     15 C15       -51.8017  -29.6912    9.6140 C.3       14 UNK         0.0141 
     16 S16       -52.6844  -28.1346    9.2318 S.3       14 UNK        -0.2313 
     17 C17       -52.2464  -27.0910   10.6650 C.3       14 UNK        -0.0915 
     18 CA        -53.4755  -26.4846   11.3946 C.3       13 UNK         0.0968 
     19 C         -54.1464  -27.5082   12.3600 C.2       13 UNK         0.5732 
     20 N         -54.1282  -27.3058   13.6720 N.am      13 UNK        -0.7310 
     21 O         -54.7081  -28.5039   11.9116 O.2       13 UNK        -0.5035 
     22 N         -53.1117  -25.2032   12.0152 N.am      13 UNK        -0.4233 
     23 C         -53.9727  -24.2710   12.4370 C.2       13 UNK         0.4989 
     24 O         -55.1947  -24.3347   12.2882 O.2       13 UNK        -0.4996 
     25 CA        -53.3575  -23.0655   13.1716 C.3       12 UNK         0.0216 
     26 CB        -53.8267  -21.7380   12.5504 C.3       12 UNK        -0.1964 
     27 N         -53.6652  -23.0405   14.6053 N.am      12 UNK        -0.4276 
     28 C         -53.4702  -24.0321   15.4825 C.2       12 UNK         0.5020 
     29 O         -53.0583  -25.1625   15.1895 O.2       12 UNK        -0.5489 
     30 CA        -53.7589  -23.7021   16.9512 C.3       11 UNK         0.0294 
     31 CB        -55.2537  -23.8729   17.2750 C.3       11 UNK        -0.2019 
     32 N         -52.9653  -24.6361   17.7309 N.am      11 UNK        -0.4493 
     33 C         -52.6267  -24.5831   19.0217 C.2       11 UNK         0.4932 
     34 O         -52.9388  -23.6623   19.7777 O.2       11 UNK        -0.5029 
     35 CA        -51.7842  -25.7716   19.5359 C.3       10 UNK         0.0280 
     36 CB        -51.9603  -26.0311   21.0473 C.3       10 UNK        -0.1976 
     37 N         -51.9975  -26.9918   18.7387 N.am      10 UNK        -0.4242 
     38 C         -53.1430  -27.6874   18.6195 C.2       10 UNK         0.5072 
     39 O         -54.1349  -27.4930   19.3236 O.2       10 UNK        -0.5224 
     40 CA        -53.2232  -28.7313   17.4886 C.3       9 UNK         0.0343 
     41 CB        -54.6429  -28.8212   16.8967 C.3       9 UNK        -0.2003 
     42 N         -52.2861  -28.4221   16.4043 N.am      9 UNK        -0.4272 
     43 C         -51.1993  -29.1418   16.1009 C.2       9 UNK         0.4988 
     44 O         -50.8787  -30.1821   16.6766 O.2       9 UNK        -0.5108 
     45 CA        -50.2988  -28.6048   14.9745 C.3       8 UNK         0.0248 
     46 CB        -50.6781  -29.2479   13.6306 C.3       8 UNK        -0.2001 
     47 N         -50.2827  -27.1433   14.8303 N.am      8 UNK        -0.4140 
     48 C         -49.8909  -26.2664   15.7662 C.2       8 UNK         0.5028 
     49 O         -49.6631  -26.5796   16.9362 O.2       8 UNK        -0.5428 
     50 CA        -49.6786  -24.8095   15.3010 C.3       7 UNK         0.0264 
     51 CB        -49.1206  -23.9053   16.4155 C.3       7 UNK        -0.1988 
     52 N         -48.7859  -24.7556   14.1388 N.am      7 UNK        -0.4454 
     53 C         -49.1802  -24.9566   12.8755 C.2       7 UNK         0.5027 
     54 O         -50.3563  -25.1453   12.5552 O.2       7 UNK        -0.5083 
     55 CA        -48.0784  -25.0971   11.8144 C.3       6 UNK         0.0844 
     56 C56       -47.8074  -26.6003   11.5647 C.3       14 UNK        -0.0967 
     57 S57       -46.4591  -26.9086   10.3749 S.3       14 UNK        -0.2604 
     58 C58       -47.3584  -27.3016    8.8407 C.3       14 UNK         0.0134 
     59 N         -48.4823  -24.3852   10.6004 N.am      6 UNK        -0.4116 
     60 C         -48.2896  -23.0752   10.4013 C.2       5 UNK         0.5034 
     61 O         -47.7086  -22.3387   11.2000 O.2       5 UNK        -0.5045 
     62 CA        -48.8185  -22.4751    9.0861 C.3       5 UNK         0.0224 
     63 CB        -47.7236  -22.5102    8.0074 C.3       5 UNK        -0.1978 
     64 N         -50.0206  -23.1292    8.5630 N.am      5 UNK        -0.4737 
     65 C         -51.2219  -23.1417    9.1562 C.2       4 UNK         0.5027 
     66 O         -51.4360  -22.6018   10.2403 O.2       4 UNK        -0.5211 
     67 CA        -52.3908  -23.8439    8.4266 C.3       4 UNK         0.0297 
     68 CB        -53.6358  -22.9414    8.3751 C.3       4 UNK        -0.1993 
     69 N         -52.1037  -24.3147    7.0654 N.am      4 UNK        -0.4486 
     70 C         -51.2724  -25.3098    6.7318 C.2       3 UNK         0.4961 
     71 O         -50.5706  -25.9030    7.5512 O.2       3 UNK        -0.5105 
     72 CA        -51.2161  -25.7028    5.2407 C.3       3 UNK         0.0299 
     73 CB        -51.5081  -24.5302    4.2759 C.3       3 UNK        -0.1972 
     74 N         -49.9559  -26.3673    4.8919 N.am      3 UNK        -0.4305 
     75 C         -48.7197  -25.8439    4.9616 C.2       2 UNK         0.5006 
     76 O         -48.4847  -24.6700    5.2543 O.2       2 UNK        -0.5106 
     77 CA        -47.5533  -26.8077    4.6842 C.3       2 UNK         0.0296 
     78 CB        -46.1972  -26.2822    5.1945 C.3       2 UNK        -0.2002 
     79 N         -47.8518  -28.1069    5.2857 N.am      2 UNK        -0.4032 
     80 C         -47.7071  -29.2866    4.6727 C.2       1 UNK         0.5000 
     81 O         -47.1278  -29.4450    3.5949 O.2       1 UNK        -0.5238 
     82 H82       -52.5195  -31.1208    3.7461 H         1 UNK         0.0889 
     83 H83       -51.2377  -32.1266    3.0675 H         1 UNK         0.0889 
     84 H84       -51.6536  -30.5918    2.3008 H         1 UNK         0.0889 
     85 H85       -49.3319  -31.9938    4.2372 H         1 UNK         0.3028 
     86 H86       -48.8581  -30.1290    6.2718 H         1 UNK         0.0864 
     87 H87       -46.8969  -32.0202    4.8684 H         1 UNK         0.0720 
     88 H88       -46.5001  -31.1190    6.3047 H         1 UNK         0.0720 
     89 H89       -46.5713  -32.2859    8.5884 H         1 UNK         0.0814 
     90 H90       -48.0001  -33.0923    9.1846 H         1 UNK         0.0814 
     91 H91       -46.4928  -29.8686    8.5263 H         1 UNK         0.1469 
     92 H92       -49.9960  -27.5742    9.3377 H         1 UNK         0.1381 
     93 H93       -50.2497  -31.8508    9.1233 H         1 UNK         0.1206 
     94 H94       -51.9434  -29.9388   10.6668 H         1 UNK         0.0813 
     95 H95       -52.2922  -30.4843    9.0477 H         1 UNK         0.0813 
     96 H96       -51.6107  -27.6399   11.3595 H         1 UNK         0.0638 
     97 H97       -51.6129  -26.2933   10.2767 H         1 UNK         0.0638 
     98 H98       -54.2281  -26.2477   10.6403 H         1 UNK         0.0568 
     99 H99       -53.7158  -26.4653   14.0696 H         1 UNK         0.3450 
    100 H100      -54.5930  -27.9718   14.2646 H         1 UNK         0.3450 
    101 H101      -52.1203  -25.0804   12.2146 H         1 UNK         0.2987 
    102 H102      -52.2709  -23.1165   13.0716 H         1 UNK         0.0766 
    103 H103      -53.3226  -20.8854   13.0057 H         1 UNK         0.0798 
    104 H104      -54.9021  -21.5948   12.6643 H         1 UNK         0.0798 
    105 H105      -53.6066  -21.7040   11.4842 H         1 UNK         0.0798 
    106 H106      -54.0354  -22.1688   14.9555 H         1 UNK         0.3198 
    107 H107      -53.4338  -22.6828   17.1699 H         1 UNK         0.0843 
    108 H108      -55.8655  -23.1942   16.6796 H         1 UNK         0.0831 
    109 H109      -55.4610  -23.6588   18.3236 H         1 UNK         0.0831 
    110 H110      -55.5949  -24.8885   17.0686 H         1 UNK         0.0831 
    111 H111      -52.6325  -25.4101   17.1703 H         1 UNK         0.3133 
    112 H112      -50.7425  -25.4909   19.3738 H         1 UNK         0.0566 
    113 H113      -51.3700  -26.8866   21.3750 H         1 UNK         0.0814 
    114 H114      -51.6320  -25.1695   21.6299 H         1 UNK         0.0814 
    115 H115      -53.0012  -26.2187   21.3115 H         1 UNK         0.0814 
    116 H116      -51.2293  -27.2230   18.1147 H         1 UNK         0.3091 
    117 H117      -52.9858  -29.6969   17.9390 H         1 UNK         0.0702 
    118 H118      -54.6877  -29.5436   16.0815 H         1 UNK         0.0785 
    119 H119      -54.9817  -27.8567   16.5161 H         1 UNK         0.0785 
    120 H120      -55.3627  -29.1448   17.6497 H         1 UNK         0.0785 
    121 H121      -52.4641  -27.5803   15.8725 H         1 UNK         0.2998 
    122 H122      -49.2773  -28.9074   15.2140 H         1 UNK         0.0697 
    123 H123      -51.6979  -28.9975   13.3394 H         1 UNK         0.0825 
    124 H124      -50.6194  -30.3356   13.6902 H         1 UNK         0.0825 
    125 H125      -50.0071  -28.9352   12.8302 H         1 UNK         0.0825 
    126 H126      -50.4865  -26.7703   13.9110 H         1 UNK         0.3029 
    127 H127      -50.6484  -24.4062   15.0130 H         1 UNK         0.0897 
    128 H128      -49.0055  -22.8773   16.0714 H         1 UNK         0.0792 
    129 H129      -49.7938  -23.8834   17.2736 H         1 UNK         0.0792 
    130 H130      -48.1494  -24.2523   16.7707 H         1 UNK         0.0792 
    131 H131      -47.7993  -24.6562   14.3342 H         1 UNK         0.3086 
    132 H132      -47.1598  -24.6489   12.1999 H         1 UNK         0.0583 
    133 H133      -47.5153  -27.0865   12.4979 H         1 UNK         0.1020 
    134 H134      -48.7170  -27.1094   11.2517 H         1 UNK         0.1020 
    135 H135      -47.9981  -26.4626    8.5626 H         1 UNK         0.0694 
    136 H136      -46.6269  -27.4055    8.0398 H         1 UNK         0.0694 
    137 H137      -49.0167  -24.9038    9.9198 H         1 UNK         0.2989 
    138 H138      -49.0718  -21.4319    9.2874 H         1 UNK         0.1055 
    139 H139      -46.8194  -22.0048    8.3497 H         1 UNK         0.0806 
    140 H140      -48.0477  -22.0096    7.0947 H         1 UNK         0.0806 
    141 H141      -47.4473  -23.5330    7.7459 H         1 UNK         0.0806 
    142 H142      -49.9225  -23.6353    7.6929 H         1 UNK         0.3061 
    143 H143      -52.6502  -24.7191    9.0215 H         1 UNK         0.0734 
    144 H144      -53.9636  -22.6659    9.3773 H         1 UNK         0.0832 
    145 H145      -53.4416  -22.0176    7.8288 H         1 UNK         0.0832 
    146 H146      -54.4760  -23.4466    7.8984 H         1 UNK         0.0832 
    147 H147      -52.6141  -23.8599    6.3225 H         1 UNK         0.3156 
    148 H148      -51.9940  -26.4540    5.0970 H         1 UNK         0.0589 
    149 H149      -52.5381  -24.1841    4.3658 H         1 UNK         0.0808 
    150 H150      -51.3702  -24.8331    3.2378 H         1 UNK         0.0808 
    151 H151      -50.8542  -23.6767    4.4599 H         1 UNK         0.0808 
    152 H152      -50.0541  -27.3557    4.6710 H         1 UNK         0.3098 
    153 H153      -47.4938  -26.9072    3.5983 H         1 UNK         0.0720 
    154 H154      -45.4049  -27.0171    5.0513 H         1 UNK         0.0791 
    155 H155      -46.2328  -26.0232    6.2522 H         1 UNK         0.0791 
    156 H156      -45.9046  -25.3814    4.6539 H         1 UNK         0.0791 
    157 H157      -48.3706  -28.0731    6.1537 H         1 UNK         0.3028 
@<TRIPOS>BOND
     1    1    2 1    
     2    1   82 1    
     3    1   83 1    
     4    1   84 1    
     5    2    3 2    
     6    2    4 am   BACKBONE|DICT|INTERRES
     7    4    5 1    
     8    4   85 1    
     9    5    6 1    
    10    5   80 1    
    11    5   86 1    
    12    6    7 1    
    13    6   87 1    
    14    6   88 1    
    15    7    8 1    
    16    8    9 1    
    17    8   89 1    
    18    8   90 1    
    19    9   10 ar   
    20    9   14 ar   
    21   10   11 ar   
    22   10   91 1    
    23   11   12 ar   
    24   11   58 1    
    25   12   13 ar   
    26   12   92 1    
    27   13   14 ar   
    28   13   15 1    
    29   14   93 1    
    30   15   16 1    
    31   15   94 1    
    32   15   95 1    
    33   16   17 1    
    34   17   18 1    
    35   17   96 1    
    36   17   97 1    
    37   18   19 1    
    38   18   22 1    
    39   18   98 1    
    40   19   20 am   BACKBONE|DICT|INTERRES
    41   19   21 2    
    42   20   99 1    
    43   20  100 1    
    44   22   23 am   BACKBONE|DICT|INTERRES
    45   22  101 1    
    46   23   24 2    
    47   23   25 1    
    48   25   26 1    
    49   25   27 1    
    50   25  102 1    
    51   26  103 1    
    52   26  104 1    
    53   26  105 1    
    54   27   28 am   BACKBONE|DICT|INTERRES
    55   27  106 1    
    56   28   29 2    
    57   28   30 1    
    58   30   31 1    
    59   30   32 1    
    60   30  107 1    
    61   31  108 1    
    62   31  109 1    
    63   31  110 1    
    64   32   33 am   BACKBONE|DICT|INTERRES
    65   32  111 1    
    66   33   34 2    
    67   33   35 1    
    68   35   36 1    
    69   35   37 1    
    70   35  112 1    
    71   36  113 1    
    72   36  114 1    
    73   36  115 1    
    74   37   38 am   BACKBONE|DICT|INTERRES
    75   37  116 1    
    76   38   39 2    
    77   38   40 1    
    78   40   41 1    
    79   40   42 1    
    80   40  117 1    
    81   41  118 1    
    82   41  119 1    
    83   41  120 1    
    84   42   43 am   BACKBONE|DICT|INTERRES
    85   42  121 1    
    86   43   44 2    
    87   43   45 1    
    88   45   46 1    
    89   45   47 1    
    90   45  122 1    
    91   46  123 1    
    92   46  124 1    
    93   46  125 1    
    94   47   48 am   BACKBONE|DICT|INTERRES
    95   47  126 1    
    96   48   49 2    
    97   48   50 1    
    98   50   51 1    
    99   50   52 1    
   100   50  127 1    
   101   51  128 1    
   102   51  129 1    
   103   51  130 1    
   104   52   53 am   BACKBONE|DICT|INTERRES
   105   52  131 1    
   106   53   54 2    
   107   53   55 1    
   108   55   56 1    
   109   55   59 1    
   110   55  132 1    
   111   56   57 1    
   112   56  133 1    
   113   56  134 1    
   114   57   58 1    
   115   58  135 1    
   116   58  136 1    
   117   59   60 am   BACKBONE|DICT|INTERRES
   118   59  137 1    
   119   60   61 2    
   120   60   62 1    
   121   62   63 1    
   122   62   64 1    
   123   62  138 1    
   124   63  139 1    
   125   63  140 1    
   126   63  141 1    
   127   64   65 am   BACKBONE|DICT|INTERRES
   128   64  142 1    
   129   65   66 2    
   130   65   67 1    
   131   67   68 1    
   132   67   69 1    
   133   67  143 1    
   134   68  144 1    
   135   68  145 1    
   136   68  146 1    
   137   69   70 am   BACKBONE|DICT|INTERRES
   138   69  147 1    
   139   70   71 2    
   140   70   72 1    
   141   72   73 1    
   142   72   74 1    
   143   72  148 1    
   144   73  149 1    
   145   73  150 1    
   146   73  151 1    
   147   74   75 am   BACKBONE|DICT|INTERRES
   148   74  152 1    
   149   75   76 2    
   150   75   77 1    
   151   77   78 1    
   152   77   79 1    
   153   77  153 1    
   154   78  154 1    
   155   78  155 1    
   156   78  156 1    
   157   79   80 am   BACKBONE|DICT|INTERRES
   158   79  157 1    
   159   80   81 2    
@<TRIPOS>SUBSTRUCTURE
     1 UNK         1 GROUP             0       ****    0 ROOT    
