@<TRIPOS>MOLECULE
3R207
157   159    1
SMALL
USER_CHARGES


@<TRIPOS>ATOM
      1 CA        -51.4380  -30.8039    2.1795 C.3       0 UNK        -0.1975 
      2 C         -51.0453  -30.0902    3.4647 C.2       0 UNK         0.4852 
      3 O         -51.6627  -29.0841    3.8174 O.2       0 UNK        -0.5216 
      4 N         -50.0301  -30.6086    4.1674 N.am      1 UNK        -0.4461 
      5 CA        -49.4985  -30.0455    5.4137 C.3       1 UNK         0.0864 
      6 C6        -48.6209  -31.0656    6.1856 C.3       14 UNK        -0.0898 
      7 S7        -49.4976  -32.6269    6.5479 S.3       14 UNK        -0.2598 
      8 C8        -50.1099  -32.3443    8.2415 C.3       14 UNK         0.0286 
      9 C9        -51.1019  -31.1916    8.3003 C.ar      14 UNK        -0.0844 
     10 C10       -50.7373  -29.9765    8.8894 C.ar      14 UNK        -0.0881 
     11 C11       -51.6344  -28.9045    8.9116 C.ar      14 UNK        -0.0643 
     12 C12       -52.9017  -29.0542    8.3446 C.ar      14 UNK        -0.0930 
     13 C13       -53.2879  -30.2724    7.7806 C.ar      14 UNK        -0.0827 
     14 C14       -52.3821  -31.3367    7.7555 C.ar      14 UNK        -0.1249 
     15 C15       -54.6840  -30.4312    7.1976 C.3       14 UNK         0.0141 
     16 S16       -55.7903  -31.3928    8.2828 S.3       14 UNK        -0.2313 
     17 C17       -55.8602  -30.3802    9.8030 C.3       14 UNK        -0.0915 
     18 CA        -56.8887  -29.2100    9.7351 C.3       13 UNK         0.0968 
     19 C         -58.3587  -29.6443   10.0374 C.2       13 UNK         0.5732 
     20 N         -59.1892  -28.7895   10.6237 N.am      13 UNK        -0.7310 
     21 O         -58.7700  -30.7561    9.7148 O.2       13 UNK        -0.5035 
     22 N         -56.4341  -28.0238   10.4865 N.am      13 UNK        -0.4233 
     23 C         -56.2024  -27.9810   11.8053 C.2       13 UNK         0.4989 
     24 O         -56.3157  -28.9489   12.5634 O.2       13 UNK        -0.4996 
     25 CA        -55.8040  -26.6176   12.3849 C.3       12 UNK         0.0216 
     26 CB        -57.0304  -25.6979   12.5404 C.3       12 UNK        -0.1964 
     27 N         -55.1774  -26.8469   13.6830 N.am      12 UNK        -0.4276 
     28 C         -54.3397  -26.0195   14.3137 C.2       12 UNK         0.5020 
     29 O         -54.0610  -24.8878   13.9097 O.2       12 UNK        -0.5489 
     30 CA        -53.7081  -26.5613   15.6062 C.3       11 UNK         0.0294 
     31 CB        -52.9156  -27.8562   15.3402 C.3       11 UNK        -0.2019 
     32 N         -52.7871  -25.5772   16.1687 N.am      11 UNK        -0.4493 
     33 C         -52.8231  -25.0688   17.4047 C.2       11 UNK         0.4932 
     34 O         -53.6889  -25.3385   18.2396 O.2       11 UNK        -0.5029 
     35 CA        -51.6547  -24.1276   17.7614 C.3       10 UNK         0.0280 
     36 CB        -51.6673  -23.6519   19.2298 C.3       10 UNK        -0.1976 
     37 N         -50.3664  -24.7318   17.3978 N.am      10 UNK        -0.4242 
     38 C         -49.8304  -25.8638   17.8809 C.2       10 UNK         0.5072 
     39 O         -50.2740  -26.4822   18.8495 O.2       10 UNK        -0.5224 
     40 CA        -48.6120  -26.4410   17.1361 C.3       9 UNK         0.0343 
     41 CB        -49.0496  -27.6258   16.2589 C.3       9 UNK        -0.2003 
     42 N         -47.9045  -25.4674   16.2996 N.am      9 UNK        -0.4272 
     43 C         -47.1158  -24.4918   16.7719 C.2       9 UNK         0.4988 
     44 O         -46.8826  -24.3183   17.9687 O.2       9 UNK        -0.5108 
     45 CA        -46.4864  -23.5429   15.7372 C.3       8 UNK         0.0248 
     46 CB        -45.2427  -24.1839   15.1006 C.3       8 UNK        -0.2001 
     47 N         -47.4242  -23.1316   14.6885 N.am      8 UNK        -0.4140 
     48 C         -48.5158  -22.3803   14.8989 C.2       8 UNK         0.5028 
     49 O         -48.8290  -21.9163   15.9955 O.2       8 UNK        -0.5428 
     50 CA        -49.4395  -22.1340   13.6932 C.3       7 UNK         0.0264 
     51 CB        -48.8810  -21.0211   12.7928 C.3       7 UNK        -0.1988 
     52 N         -49.6820  -23.3433   12.9018 N.am      7 UNK        -0.4454 
     53 C         -50.2767  -24.4486   13.3751 C.2       7 UNK         0.5027 
     54 O         -50.7188  -24.5460   14.5192 O.2       7 UNK        -0.5083 
     55 CA        -50.3491  -25.6753   12.4470 C.3       6 UNK         0.0844 
     56 C56       -51.5611  -25.5959   11.4882 C.3       14 UNK        -0.0967 
     57 S57       -52.1773  -27.2545   11.0566 S.3       14 UNK        -0.2604 
     58 C58       -51.2387  -27.5798    9.5384 C.3       14 UNK         0.0134 
     59 N         -49.0858  -25.8876   11.7353 N.am      6 UNK        -0.4116 
     60 C         -47.9246  -26.1985   12.3284 C.2       5 UNK         0.5034 
     61 O         -47.7963  -26.3929   13.5365 O.2       5 UNK        -0.5045 
     62 CA        -46.6842  -26.2342   11.4256 C.3       5 UNK         0.0224 
     63 CB        -46.5970  -27.5623   10.6557 C.3       5 UNK        -0.1978 
     64 N         -46.6639  -25.1048   10.4926 N.am      5 UNK        -0.4737 
     65 C         -46.4670  -23.8322   10.8694 C.2       4 UNK         0.5027 
     66 O         -46.2539  -23.4920   12.0324 O.2       4 UNK        -0.5211 
     67 CA        -46.5577  -22.7513    9.7790 C.3       4 UNK         0.0297 
     68 CB        -45.1901  -22.5530    9.1072 C.3       4 UNK        -0.1993 
     69 N         -47.5672  -23.0382    8.7580 N.am      4 UNK        -0.4486 
     70 C         -48.8829  -23.1529    8.9884 C.2       3 UNK         0.4961 
     71 O         -49.4039  -23.0051   10.0933 O.2       3 UNK        -0.5105 
     72 CA        -49.7595  -23.5574    7.7910 C.3       3 UNK         0.0299 
     73 CB        -50.2331  -22.3119    7.0260 C.3       3 UNK        -0.1972 
     74 N         -49.1018  -24.4879    6.8643 N.am      3 UNK        -0.4305 
     75 C         -48.6507  -25.7020    7.2061 C.2       2 UNK         0.5006 
     76 O         -48.6899  -26.1509    8.3528 O.2       2 UNK        -0.5106 
     77 CA        -48.0263  -26.5549    6.1032 C.3       2 UNK         0.0296 
     78 CB        -46.5026  -26.6680    6.2974 C.3       2 UNK        -0.2002 
     79 N         -48.6510  -27.8722    6.1633 N.am      2 UNK        -0.4032 
     80 C         -48.7148  -28.7424    5.1495 C.2       1 UNK         0.5000 
     81 O         -48.1705  -28.5590    4.0559 O.2       1 UNK        -0.5238 
     82 H82       -52.4781  -31.1247    2.2315 H         1 UNK         0.0889 
     83 H83       -50.8210  -31.6835    1.9965 H         1 UNK         0.0889 
     84 H84       -51.3303  -30.1311    1.3291 H         1 UNK         0.0889 
     85 H85       -49.5534  -31.4303    3.8256 H         1 UNK         0.3028 
     86 H86       -50.3560  -29.7849    6.0366 H         1 UNK         0.0864 
     87 H87       -48.2610  -30.6380    7.1232 H         1 UNK         0.0720 
     88 H88       -47.7288  -31.3124    5.6067 H         1 UNK         0.0720 
     89 H89       -49.2640  -32.1692    8.9081 H         1 UNK         0.0814 
     90 H90       -50.5954  -33.2538    8.5981 H         1 UNK         0.0814 
     91 H91       -49.7531  -29.8624    9.3231 H         1 UNK         0.1469 
     92 H92       -53.5957  -28.2251    8.3671 H         1 UNK         0.1381 
     93 H93       -52.6715  -32.2775    7.3070 H         1 UNK         0.1206 
     94 H94       -54.6145  -30.9343    6.2321 H         1 UNK         0.0813 
     95 H95       -55.1329  -29.4571    6.9982 H         1 UNK         0.0813 
     96 H96       -56.0837  -31.0382   10.6445 H         1 UNK         0.0638 
     97 H97       -54.8591  -30.0012   10.0061 H         1 UNK         0.0638 
     98 H98       -56.9210  -28.8646    8.7018 H         1 UNK         0.0568 
     99 H99       -58.8792  -27.8684   10.8858 H         1 UNK         0.3450 
    100 H100      -60.1384  -29.0745   10.8064 H         1 UNK         0.3450 
    101 H101      -56.3383  -27.1762    9.9460 H         1 UNK         0.2987 
    102 H102      -55.0758  -26.1552   11.7149 H         1 UNK         0.0766 
    103 H103      -56.7496  -24.7272   12.9496 H         1 UNK         0.0798 
    104 H104      -57.7788  -26.1347   13.2029 H         1 UNK         0.0798 
    105 H105      -57.5104  -25.5123   11.5790 H         1 UNK         0.0798 
    106 H106      -55.3414  -27.7793   14.0457 H         1 UNK         0.3198 
    107 H107      -54.5170  -26.7719   16.3090 H         1 UNK         0.0843 
    108 H108      -52.4043  -28.1980   16.2404 H         1 UNK         0.0831 
    109 H109      -52.1627  -27.7142   14.5638 H         1 UNK         0.0831 
    110 H110      -53.5680  -28.6680   15.0174 H         1 UNK         0.0831 
    111 H111      -52.0834  -25.2184   15.5236 H         1 UNK         0.3133 
    112 H112      -51.7641  -23.2454   17.1287 H         1 UNK         0.0566 
    113 H113      -50.8268  -22.9900   19.4381 H         1 UNK         0.0814 
    114 H114      -52.5802  -23.0969   19.4489 H         1 UNK         0.0814 
    115 H115      -51.6208  -24.4852   19.9313 H         1 UNK         0.0814 
    116 H116      -49.9452  -24.3522   16.5582 H         1 UNK         0.3091 
    117 H117      -47.9154  -26.8144   17.8896 H         1 UNK         0.0702 
    118 H118      -48.1936  -28.1052   15.7836 H         1 UNK         0.0785 
    119 H119      -49.7351  -27.3090   15.4719 H         1 UNK         0.0785 
    120 H120      -49.5604  -28.3868   16.8505 H         1 UNK         0.0785 
    121 H121      -47.9891  -25.5880   15.2935 H         1 UNK         0.2998 
    122 H122      -46.1679  -22.6424   16.2666 H         1 UNK         0.0697 
    123 H123      -44.7338  -23.4853   14.4361 H         1 UNK         0.0825 
    124 H124      -44.5244  -24.4875   15.8634 H         1 UNK         0.0825 
    125 H125      -45.4976  -25.0706   14.5191 H         1 UNK         0.0825 
    126 H126      -47.2022  -23.4211   13.7393 H         1 UNK         0.3029 
    127 H127      -50.4046  -21.8017   14.0819 H         1 UNK         0.0897 
    128 H128      -49.5561  -20.8035   11.9648 H         1 UNK         0.0792 
    129 H129      -48.7473  -20.0959   13.3549 H         1 UNK         0.0792 
    130 H130      -47.9120  -21.2895   12.3728 H         1 UNK         0.0792 
    131 H131      -49.4064  -23.3131   11.9218 H         1 UNK         0.3086 
    132 H132      -50.4904  -26.5346   13.1064 H         1 UNK         0.0583 
    133 H133      -52.3975  -25.0696   11.9503 H         1 UNK         0.1020 
    134 H134      -51.3232  -25.0256   10.5887 H         1 UNK         0.1020 
    135 H135      -51.3968  -26.7731    8.8211 H         1 UNK         0.0694 
    136 H136      -50.1788  -27.5874    9.7889 H         1 UNK         0.0694 
    137 H137      -49.0856  -25.7272   10.7370 H         1 UNK         0.2989 
    138 H138      -45.8050  -26.1575   12.0696 H         1 UNK         0.1055 
    139 H139      -46.5412  -28.4054   11.3456 H         1 UNK         0.0806 
    140 H140      -45.7068  -27.5995   10.0277 H         1 UNK         0.0806 
    141 H141      -47.4648  -27.7262   10.0170 H         1 UNK         0.0806 
    142 H142      -46.9062  -25.3006    9.5301 H         1 UNK         0.3061 
    143 H143      -46.8372  -21.8146   10.2649 H         1 UNK         0.0734 
    144 H144      -45.2127  -21.7289    8.3939 H         1 UNK         0.0832 
    145 H145      -44.4242  -22.3164    9.8474 H         1 UNK         0.0832 
    146 H146      -44.8644  -23.4492    8.5775 H         1 UNK         0.0832 
    147 H147      -47.2364  -23.1813    7.8151 H         1 UNK         0.3156 
    148 H148      -50.6400  -24.0645    8.1913 H         1 UNK         0.0589 
    149 H149      -49.4008  -21.7753    6.5689 H         1 UNK         0.0808 
    150 H150      -50.9387  -22.5741    6.2374 H         1 UNK         0.0808 
    151 H151      -50.7423  -21.6150    7.6936 H         1 UNK         0.0808 
    152 H152      -49.0252  -24.1909    5.9016 H         1 UNK         0.3098 
    153 H153      -48.2369  -26.0992    5.1332 H         1 UNK         0.0720 
    154 H154      -46.0316  -25.6844    6.2842 H         1 UNK         0.0791 
    155 H155      -46.0431  -27.2564    5.5031 H         1 UNK         0.0791 
    156 H156      -46.2517  -27.1393    7.2489 H         1 UNK         0.0791 
    157 H157      -49.1188  -28.0734    7.0377 H         1 UNK         0.3028 
@<TRIPOS>BOND
     1    1    2 1    
     2    1   82 1    
     3    1   83 1    
     4    1   84 1    
     5    2    3 2    
     6    2    4 am   BACKBONE|DICT|INTERRES
     7    4    5 1    
     8    4   85 1    
     9    5    6 1    
    10    5   80 1    
    11    5   86 1    
    12    6    7 1    
    13    6   87 1    
    14    6   88 1    
    15    7    8 1    
    16    8    9 1    
    17    8   89 1    
    18    8   90 1    
    19    9   10 ar   
    20    9   14 ar   
    21   10   11 ar   
    22   10   91 1    
    23   11   12 ar   
    24   11   58 1    
    25   12   13 ar   
    26   12   92 1    
    27   13   14 ar   
    28   13   15 1    
    29   14   93 1    
    30   15   16 1    
    31   15   94 1    
    32   15   95 1    
    33   16   17 1    
    34   17   18 1    
    35   17   96 1    
    36   17   97 1    
    37   18   19 1    
    38   18   22 1    
    39   18   98 1    
    40   19   20 am   BACKBONE|DICT|INTERRES
    41   19   21 2    
    42   20   99 1    
    43   20  100 1    
    44   22   23 am   BACKBONE|DICT|INTERRES
    45   22  101 1    
    46   23   24 2    
    47   23   25 1    
    48   25   26 1    
    49   25   27 1    
    50   25  102 1    
    51   26  103 1    
    52   26  104 1    
    53   26  105 1    
    54   27   28 am   BACKBONE|DICT|INTERRES
    55   27  106 1    
    56   28   29 2    
    57   28   30 1    
    58   30   31 1    
    59   30   32 1    
    60   30  107 1    
    61   31  108 1    
    62   31  109 1    
    63   31  110 1    
    64   32   33 am   BACKBONE|DICT|INTERRES
    65   32  111 1    
    66   33   34 2    
    67   33   35 1    
    68   35   36 1    
    69   35   37 1    
    70   35  112 1    
    71   36  113 1    
    72   36  114 1    
    73   36  115 1    
    74   37   38 am   BACKBONE|DICT|INTERRES
    75   37  116 1    
    76   38   39 2    
    77   38   40 1    
    78   40   41 1    
    79   40   42 1    
    80   40  117 1    
    81   41  118 1    
    82   41  119 1    
    83   41  120 1    
    84   42   43 am   BACKBONE|DICT|INTERRES
    85   42  121 1    
    86   43   44 2    
    87   43   45 1    
    88   45   46 1    
    89   45   47 1    
    90   45  122 1    
    91   46  123 1    
    92   46  124 1    
    93   46  125 1    
    94   47   48 am   BACKBONE|DICT|INTERRES
    95   47  126 1    
    96   48   49 2    
    97   48   50 1    
    98   50   51 1    
    99   50   52 1    
   100   50  127 1    
   101   51  128 1    
   102   51  129 1    
   103   51  130 1    
   104   52   53 am   BACKBONE|DICT|INTERRES
   105   52  131 1    
   106   53   54 2    
   107   53   55 1    
   108   55   56 1    
   109   55   59 1    
   110   55  132 1    
   111   56   57 1    
   112   56  133 1    
   113   56  134 1    
   114   57   58 1    
   115   58  135 1    
   116   58  136 1    
   117   59   60 am   BACKBONE|DICT|INTERRES
   118   59  137 1    
   119   60   61 2    
   120   60   62 1    
   121   62   63 1    
   122   62   64 1    
   123   62  138 1    
   124   63  139 1    
   125   63  140 1    
   126   63  141 1    
   127   64   65 am   BACKBONE|DICT|INTERRES
   128   64  142 1    
   129   65   66 2    
   130   65   67 1    
   131   67   68 1    
   132   67   69 1    
   133   67  143 1    
   134   68  144 1    
   135   68  145 1    
   136   68  146 1    
   137   69   70 am   BACKBONE|DICT|INTERRES
   138   69  147 1    
   139   70   71 2    
   140   70   72 1    
   141   72   73 1    
   142   72   74 1    
   143   72  148 1    
   144   73  149 1    
   145   73  150 1    
   146   73  151 1    
   147   74   75 am   BACKBONE|DICT|INTERRES
   148   74  152 1    
   149   75   76 2    
   150   75   77 1    
   151   77   78 1    
   152   77   79 1    
   153   77  153 1    
   154   78  154 1    
   155   78  155 1    
   156   78  156 1    
   157   79   80 am   BACKBONE|DICT|INTERRES
   158   79  157 1    
   159   80   81 2    
@<TRIPOS>SUBSTRUCTURE
     1 UNK         1 GROUP             0       ****    0 ROOT    
