@<TRIPOS>MOLECULE
3R207
157   159    1
SMALL
USER_CHARGES


@<TRIPOS>ATOM
      1 CA        -44.2889  -28.8590    7.0348 C.3       0 UNK        -0.1975 
      2 C         -45.7426  -28.4472    6.8625 C.2       0 UNK         0.4852 
      3 O         -46.1281  -27.9961    5.7826 O.2       0 UNK        -0.5216 
      4 N         -46.5520  -28.5849    7.9213 N.am      1 UNK        -0.4461 
      5 CA        -47.9658  -28.1986    7.9695 C.3       1 UNK         0.0864 
      6 C6        -48.6065  -28.5655    9.3280 C.3       14 UNK        -0.0898 
      7 S7        -48.9535  -30.3504    9.4587 S.3       14 UNK        -0.2598 
      8 C8        -50.4929  -30.5166    8.4874 C.3       14 UNK         0.0286 
      9 C9        -51.5972  -29.5915    8.9802 C.ar      14 UNK        -0.0844 
     10 C10       -51.9091  -28.4212    8.2791 C.ar      14 UNK        -0.0881 
     11 C11       -52.8886  -27.5456    8.7572 C.ar      14 UNK        -0.0643 
     12 C12       -53.5789  -27.8629    9.9317 C.ar      14 UNK        -0.0930 
     13 C13       -53.2833  -29.0363   10.6327 C.ar      14 UNK        -0.0827 
     14 C14       -52.2938  -29.8968   10.1513 C.ar      14 UNK        -0.1249 
     15 C15       -54.0085  -29.3681   11.9251 C.3       14 UNK         0.0141 
     16 S16       -55.5090  -30.3462   11.6212 S.3       14 UNK        -0.2313 
     17 C17       -55.9284  -30.8803   13.3155 C.3       14 UNK        -0.0915 
     18 CA        -57.2914  -30.3269   13.8088 C.3       13 UNK         0.0968 
     19 C         -57.7522  -31.0613   15.1016 C.2       13 UNK         0.5732 
     20 N         -57.8605  -30.3975   16.2471 N.am      13 UNK        -0.7310 
     21 O         -58.0311  -32.2575   15.0607 O.2       13 UNK        -0.5035 
     22 N         -57.2788  -28.8604   13.9348 N.am      13 UNK        -0.4233 
     23 C         -58.3689  -28.0841   13.8534 C.2       13 UNK         0.4989 
     24 O         -59.4915  -28.5169   13.5878 O.2       13 UNK        -0.4996 
     25 CA        -58.2113  -26.5743   14.1320 C.3       12 UNK         0.0216 
     26 CB        -58.8210  -26.2153   15.4978 C.3       12 UNK        -0.1964 
     27 N         -56.8280  -26.0943   14.0923 N.am      12 UNK        -0.4276 
     28 C         -56.0794  -26.0016   12.9868 C.2       12 UNK         0.5020 
     29 O         -56.5035  -26.2328   11.8544 O.2       12 UNK        -0.5489 
     30 CA        -54.6076  -25.5780   13.1574 C.3       11 UNK         0.0294 
     31 CB        -54.4846  -24.0651   12.9050 C.3       11 UNK        -0.2019 
     32 N         -53.9375  -25.9122   14.4268 N.am      11 UNK        -0.4493 
     33 C         -53.9742  -27.0614   15.1198 C.2       11 UNK         0.4932 
     34 O         -54.7551  -27.9864   14.8992 O.2       11 UNK        -0.5029 
     35 CA        -52.9273  -27.1932   16.2380 C.3       10 UNK         0.0280 
     36 CB        -53.3826  -28.1293   17.3779 C.3       10 UNK        -0.1976 
     37 N         -51.6304  -27.5996   15.6816 N.am      10 UNK        -0.4242 
     38 C         -51.3224  -28.7515   15.0565 C.2       10 UNK         0.5072 
     39 O         -52.0820  -29.7175   14.9800 O.2       10 UNK        -0.5224 
     40 CA        -49.9322  -28.8647   14.3984 C.3       9 UNK         0.0343 
     41 CB        -50.0432  -29.3859   12.9539 C.3       9 UNK        -0.2003 
     42 N         -49.2309  -27.5818   14.3682 N.am      9 UNK        -0.4272 
     43 C         -48.1968  -27.2385   15.1486 C.2       9 UNK         0.4988 
     44 O         -47.6736  -27.9966   15.9656 O.2       9 UNK        -0.5108 
     45 CA        -47.6520  -25.8016   15.0102 C.3       8 UNK         0.0248 
     46 CB        -46.3979  -25.7908   14.1190 C.3       8 UNK        -0.2001 
     47 N         -48.6189  -24.8380   14.4753 N.am      8 UNK        -0.4140 
     48 C         -49.7948  -24.5156   15.0327 C.2       8 UNK         0.5028 
     49 O         -50.1968  -24.9685   16.1043 O.2       8 UNK        -0.5428 
     50 CA        -50.7176  -23.6020   14.2086 C.3       7 UNK         0.0264 
     51 CB        -50.4250  -22.1247   14.5122 C.3       7 UNK        -0.1988 
     52 N         -50.6347  -23.8253   12.7595 N.am      7 UNK        -0.4454 
     53 C         -50.8058  -24.9915   12.1176 C.2       7 UNK         0.5027 
     54 O         -51.0806  -26.0416   12.6957 O.2       7 UNK        -0.5083 
     55 CA        -50.5922  -25.0090   10.5884 C.3       6 UNK         0.0844 
     56 C56       -51.8840  -24.5680    9.8485 C.3       14 UNK        -0.0967 
     57 S57       -51.8623  -25.0386    8.0889 S.3       14 UNK        -0.2604 
     58 C58       -53.2083  -26.2664    7.9944 C.3       14 UNK         0.0134 
     59 N         -49.3503  -24.3145   10.1869 N.am      6 UNK        -0.4116 
     60 C         -49.0839  -23.0010   10.2744 C.2       5 UNK         0.5034 
     61 O         -49.9464  -22.1630   10.5407 O.2       5 UNK        -0.5045 
     62 CA        -47.6202  -22.5239   10.1990 C.3       5 UNK         0.0224 
     63 CB        -47.2148  -22.0319   11.6131 C.3       5 UNK        -0.1978 
     64 N         -46.6708  -23.5328    9.6975 N.am      5 UNK        -0.4737 
     65 C         -45.3440  -23.3605    9.5711 C.2       4 UNK         0.5027 
     66 O         -44.7508  -22.3142    9.8325 O.2       4 UNK        -0.5211 
     67 CA        -44.5352  -24.5468    9.0278 C.3       4 UNK         0.0297 
     68 CB        -44.6591  -25.7967    9.9196 C.3       4 UNK        -0.1993 
     69 N         -44.9556  -24.8448    7.6619 N.am      4 UNK        -0.4486 
     70 C         -44.4499  -24.2531    6.5685 C.2       3 UNK         0.4961 
     71 O         -43.4847  -23.4886    6.5875 O.2       3 UNK        -0.5105 
     72 CA        -45.1297  -24.5517    5.2192 C.3       3 UNK         0.0299 
     73 CB        -44.2911  -25.5403    4.3927 C.3       3 UNK        -0.1972 
     74 N         -46.4914  -25.0683    5.3804 N.am      3 UNK        -0.4305 
     75 C         -47.5458  -24.2991    5.6961 C.2       2 UNK         0.5006 
     76 O         -47.4945  -23.0714    5.7749 O.2       2 UNK        -0.5106 
     77 CA        -48.8750  -25.0053    6.0137 C.3       2 UNK         0.0296 
     78 CB        -49.7928  -25.0173    4.7811 C.3       2 UNK        -0.2002 
     79 N         -48.7144  -26.3735    6.5128 N.am      2 UNK        -0.4032 
     80 C         -48.1351  -26.6975    7.6764 C.2       1 UNK         0.5000 
     81 O         -47.7001  -25.8711    8.4830 O.2       1 UNK        -0.5238 
     82 H82       -44.1128  -29.3383    7.9975 H         1 UNK         0.0889 
     83 H83       -43.6420  -27.9847    6.9670 H         1 UNK         0.0889 
     84 H84       -44.0018  -29.5586    6.2504 H         1 UNK         0.0889 
     85 H85       -46.1815  -28.9675    8.7792 H         1 UNK         0.3028 
     86 H86       -48.4791  -28.7500    7.1796 H         1 UNK         0.0864 
     87 H87       -47.9500  -28.2788   10.1518 H         1 UNK         0.0720 
     88 H88       -49.5306  -28.0172    9.5032 H         1 UNK         0.0720 
     89 H89       -50.8351  -31.5508    8.5480 H         1 UNK         0.0814 
     90 H90       -50.2800  -30.3338    7.4335 H         1 UNK         0.0814 
     91 H91       -51.3758  -28.1751    7.3715 H         1 UNK         0.1469 
     92 H92       -54.3495  -27.1998   10.2997 H         1 UNK         0.1381 
     93 H93       -52.0525  -30.7983   10.6980 H         1 UNK         0.1206 
     94 H94       -54.2812  -28.4511   12.4412 H         1 UNK         0.0813 
     95 H95       -53.3405  -29.9135   12.5932 H         1 UNK         0.0813 
     96 H96       -55.1326  -30.5991   14.0079 H         1 UNK         0.0638 
     97 H97       -55.9401  -31.9717   13.3013 H         1 UNK         0.0638 
     98 H98       -58.0325  -30.5879   13.0510 H         1 UNK         0.0568 
     99 H99       -58.1660  -30.8861   17.0737 H         1 UNK         0.3450 
    100 H100      -57.6216  -29.4208   16.2946 H         1 UNK         0.3450 
    101 H101      -56.3853  -28.4478   14.1942 H         1 UNK         0.2987 
    102 H102      -58.7726  -26.0460   13.3584 H         1 UNK         0.0766 
    103 H103      -59.8647  -26.5279   15.5554 H         1 UNK         0.0798 
    104 H104      -58.7991  -25.1393   15.6722 H         1 UNK         0.0798 
    105 H105      -58.2905  -26.7004   16.3181 H         1 UNK         0.0798 
    106 H106      -56.3847  -25.9007   14.9786 H         1 UNK         0.3198 
    107 H107      -54.0421  -26.0896   12.3779 H         1 UNK         0.0843 
    108 H108      -54.9534  -23.4853   13.7010 H         1 UNK         0.0831 
    109 H109      -54.9702  -23.7823   11.9694 H         1 UNK         0.0831 
    110 H110      -53.4472  -23.7481   12.8257 H         1 UNK         0.0831 
    111 H111      -53.2524  -25.2372   14.7292 H         1 UNK         0.3133 
    112 H112      -52.7802  -26.2032   16.6727 H         1 UNK         0.0566 
    113 H113      -53.5860  -29.1417   17.0277 H         1 UNK         0.0814 
    114 H114      -54.3006  -27.7600   17.8362 H         1 UNK         0.0814 
    115 H115      -52.6293  -28.1923   18.1630 H         1 UNK         0.0814 
    116 H116      -50.9209  -26.8750   15.7030 H         1 UNK         0.3091 
    117 H117      -49.3647  -29.5948   14.9786 H         1 UNK         0.0702 
    118 H118      -49.0608  -29.4864   12.4929 H         1 UNK         0.0785 
    119 H119      -50.6380  -28.7187   12.3287 H         1 UNK         0.0785 
    120 H120      -50.5149  -30.3686   12.9209 H         1 UNK         0.0785 
    121 H121      -49.6362  -26.8899   13.7453 H         1 UNK         0.2998 
    122 H122      -47.3696  -25.4639   16.0094 H         1 UNK         0.0697 
    123 H123      -46.6246  -26.0955   13.0963 H         1 UNK         0.0825 
    124 H124      -45.6412  -26.4771   14.5020 H         1 UNK         0.0825 
    125 H125      -45.9429  -24.8007   14.0824 H         1 UNK         0.0825 
    126 H126      -48.3907  -24.4176   13.5876 H         1 UNK         0.3029 
    127 H127      -51.7411  -23.8145   14.5180 H         1 UNK         0.0897 
    128 H128      -49.4203  -21.8377   14.1995 H         1 UNK         0.0792 
    129 H129      -50.5042  -21.9222   15.5814 H         1 UNK         0.0792 
    130 H130      -51.1335  -21.4679   14.0069 H         1 UNK         0.0792 
    131 H131      -50.4341  -23.0134   12.1806 H         1 UNK         0.3086 
    132 H132      -50.4242  -26.0565   10.3370 H         1 UNK         0.0583 
    133 H133      -52.7642  -25.0178   10.3115 H         1 UNK         0.1020 
    134 H134      -52.0389  -23.4912    9.9203 H         1 UNK         0.1020 
    135 H135      -54.1334  -25.8156    8.3575 H         1 UNK         0.0694 
    136 H136      -53.3821  -26.5126    6.9460 H         1 UNK         0.0694 
    137 H137      -48.6100  -24.9372    9.8855 H         1 UNK         0.2989 
    138 H138      -47.6019  -21.6770    9.5101 H         1 UNK         0.1055 
    139 H139      -46.3033  -21.4365   11.5969 H         1 UNK         0.0806 
    140 H140      -47.0563  -22.8648   12.2981 H         1 UNK         0.0806 
    141 H141      -47.9776  -21.3883   12.0540 H         1 UNK         0.0806 
    142 H142      -47.0628  -24.4019    9.3424 H         1 UNK         0.3061 
    143 H143      -43.4813  -24.2588    9.0260 H         1 UNK         0.0734 
    144 H144      -45.6803  -26.1668    9.9942 H         1 UNK         0.0832 
    145 H145      -44.0390  -26.6101    9.5430 H         1 UNK         0.0832 
    146 H146      -44.3228  -25.5793   10.9342 H         1 UNK         0.0832 
    147 H147      -45.7912  -25.4057    7.5645 H         1 UNK         0.3156 
    148 H148      -45.1798  -23.6136    4.6622 H         1 UNK         0.0589 
    149 H149      -44.1380  -26.4837    4.9158 H         1 UNK         0.0808 
    150 H150      -43.3044  -25.1270    4.1800 H         1 UNK         0.0808 
    151 H151      -44.7631  -25.7595    3.4349 H         1 UNK         0.0808 
    152 H152      -46.5983  -26.0785    5.3483 H         1 UNK         0.3098 
    153 H153      -49.3590  -24.4194    6.7969 H         1 UNK         0.0720 
    154 H154      -49.9535  -24.0058    4.4050 H         1 UNK         0.0791 
    155 H155      -50.7731  -25.4295    5.0218 H         1 UNK         0.0791 
    156 H156      -49.3691  -25.6055    3.9662 H         1 UNK         0.0791 
    157 H157      -49.0047  -27.1134    5.8899 H         1 UNK         0.3028 
@<TRIPOS>BOND
     1    1    2 1    
     2    1   82 1    
     3    1   83 1    
     4    1   84 1    
     5    2    3 2    
     6    2    4 am   BACKBONE|DICT|INTERRES
     7    4    5 1    
     8    4   85 1    
     9    5    6 1    
    10    5   80 1    
    11    5   86 1    
    12    6    7 1    
    13    6   87 1    
    14    6   88 1    
    15    7    8 1    
    16    8    9 1    
    17    8   89 1    
    18    8   90 1    
    19    9   10 ar   
    20    9   14 ar   
    21   10   11 ar   
    22   10   91 1    
    23   11   12 ar   
    24   11   58 1    
    25   12   13 ar   
    26   12   92 1    
    27   13   14 ar   
    28   13   15 1    
    29   14   93 1    
    30   15   16 1    
    31   15   94 1    
    32   15   95 1    
    33   16   17 1    
    34   17   18 1    
    35   17   96 1    
    36   17   97 1    
    37   18   19 1    
    38   18   22 1    
    39   18   98 1    
    40   19   20 am   BACKBONE|DICT|INTERRES
    41   19   21 2    
    42   20   99 1    
    43   20  100 1    
    44   22   23 am   BACKBONE|DICT|INTERRES
    45   22  101 1    
    46   23   24 2    
    47   23   25 1    
    48   25   26 1    
    49   25   27 1    
    50   25  102 1    
    51   26  103 1    
    52   26  104 1    
    53   26  105 1    
    54   27   28 am   BACKBONE|DICT|INTERRES
    55   27  106 1    
    56   28   29 2    
    57   28   30 1    
    58   30   31 1    
    59   30   32 1    
    60   30  107 1    
    61   31  108 1    
    62   31  109 1    
    63   31  110 1    
    64   32   33 am   BACKBONE|DICT|INTERRES
    65   32  111 1    
    66   33   34 2    
    67   33   35 1    
    68   35   36 1    
    69   35   37 1    
    70   35  112 1    
    71   36  113 1    
    72   36  114 1    
    73   36  115 1    
    74   37   38 am   BACKBONE|DICT|INTERRES
    75   37  116 1    
    76   38   39 2    
    77   38   40 1    
    78   40   41 1    
    79   40   42 1    
    80   40  117 1    
    81   41  118 1    
    82   41  119 1    
    83   41  120 1    
    84   42   43 am   BACKBONE|DICT|INTERRES
    85   42  121 1    
    86   43   44 2    
    87   43   45 1    
    88   45   46 1    
    89   45   47 1    
    90   45  122 1    
    91   46  123 1    
    92   46  124 1    
    93   46  125 1    
    94   47   48 am   BACKBONE|DICT|INTERRES
    95   47  126 1    
    96   48   49 2    
    97   48   50 1    
    98   50   51 1    
    99   50   52 1    
   100   50  127 1    
   101   51  128 1    
   102   51  129 1    
   103   51  130 1    
   104   52   53 am   BACKBONE|DICT|INTERRES
   105   52  131 1    
   106   53   54 2    
   107   53   55 1    
   108   55   56 1    
   109   55   59 1    
   110   55  132 1    
   111   56   57 1    
   112   56  133 1    
   113   56  134 1    
   114   57   58 1    
   115   58  135 1    
   116   58  136 1    
   117   59   60 am   BACKBONE|DICT|INTERRES
   118   59  137 1    
   119   60   61 2    
   120   60   62 1    
   121   62   63 1    
   122   62   64 1    
   123   62  138 1    
   124   63  139 1    
   125   63  140 1    
   126   63  141 1    
   127   64   65 am   BACKBONE|DICT|INTERRES
   128   64  142 1    
   129   65   66 2    
   130   65   67 1    
   131   67   68 1    
   132   67   69 1    
   133   67  143 1    
   134   68  144 1    
   135   68  145 1    
   136   68  146 1    
   137   69   70 am   BACKBONE|DICT|INTERRES
   138   69  147 1    
   139   70   71 2    
   140   70   72 1    
   141   72   73 1    
   142   72   74 1    
   143   72  148 1    
   144   73  149 1    
   145   73  150 1    
   146   73  151 1    
   147   74   75 am   BACKBONE|DICT|INTERRES
   148   74  152 1    
   149   75   76 2    
   150   75   77 1    
   151   77   78 1    
   152   77   79 1    
   153   77  153 1    
   154   78  154 1    
   155   78  155 1    
   156   78  156 1    
   157   79   80 am   BACKBONE|DICT|INTERRES
   158   79  157 1    
   159   80   81 2    
@<TRIPOS>SUBSTRUCTURE
     1 UNK         1 GROUP             0       ****    0 ROOT    
