@<TRIPOS>MOLECULE
3R207
157   159    1
SMALL
USER_CHARGES


@<TRIPOS>ATOM
      1 CA        -47.1721  -29.8185    1.4423 C.3       0 UNK        -0.1975 
      2 C         -48.4899  -30.1748    2.1140 C.2       0 UNK         0.4852 
      3 O         -49.0465  -31.2389    1.8414 O.2       0 UNK        -0.5216 
      4 N         -48.9910  -29.2925    2.9841 N.am      1 UNK        -0.4461 
      5 CA        -50.2644  -29.4144    3.6916 C.3       1 UNK         0.0864 
      6 C6        -50.2324  -30.4741    4.8312 C.3       14 UNK        -0.0898 
      7 S7        -51.8513  -31.2847    5.0241 S.3       14 UNK        -0.2598 
      8 C8        -51.5120  -32.4422    6.3867 C.3       14 UNK         0.0286 
      9 C9        -51.5455  -31.7562    7.7451 C.ar      14 UNK        -0.0844 
     10 C10       -50.4010  -31.7070    8.5500 C.ar      14 UNK        -0.0881 
     11 C11       -50.4531  -31.1243    9.8213 C.ar      14 UNK        -0.0643 
     12 C12       -51.6625  -30.6005   10.2836 C.ar      14 UNK        -0.0930 
     13 C13       -52.7929  -30.5824    9.4637 C.ar      14 UNK        -0.0827 
     14 C14       -52.7361  -31.1847    8.2056 C.ar      14 UNK        -0.1249 
     15 C15       -54.0596  -29.8751    9.9257 C.3       14 UNK         0.0141 
     16 S16       -54.2374  -28.2311    9.1491 S.3       14 UNK        -0.2313 
     17 C17       -52.7305  -27.3625    9.7168 C.3       14 UNK        -0.0915 
     18 CA        -52.9657  -26.1574   10.6640 C.3       13 UNK         0.0968 
     19 C         -53.4982  -24.9123    9.9166 C.2       13 UNK         0.5732 
     20 N         -52.6429  -24.2522    9.1499 N.am      13 UNK        -0.7310 
     21 O         -54.6670  -24.5459   10.0167 O.2       13 UNK        -0.5035 
     22 N         -53.7742  -26.4633   11.8479 N.am      13 UNK        -0.4233 
     23 C         -53.4524  -27.3223   12.8188 C.2       13 UNK         0.4989 
     24 O         -52.4565  -28.0446   12.7930 O.2       13 UNK        -0.4996 
     25 CA        -54.3812  -27.3409   14.0470 C.3       12 UNK         0.0216 
     26 CB        -54.1313  -28.5618   14.9513 C.3       12 UNK        -0.1964 
     27 N         -54.2154  -26.1125   14.8313 N.am      12 UNK        -0.4276 
     28 C         -54.7486  -24.9272   14.4989 C.2       12 UNK         0.5020 
     29 O         -55.5095  -24.7862   13.5395 O.2       12 UNK        -0.5489 
     30 CA        -54.3370  -23.6820   15.3078 C.3       11 UNK         0.0294 
     31 CB        -55.5052  -22.6915   15.5069 C.3       11 UNK        -0.2019 
     32 N         -53.6455  -23.9671   16.5716 N.am      11 UNK        -0.4493 
     33 C         -54.1716  -24.4916   17.6875 C.2       11 UNK         0.4932 
     34 O         -55.3467  -24.8484   17.7880 O.2       11 UNK        -0.5029 
     35 CA        -53.2161  -24.6392   18.8915 C.3       10 UNK         0.0280 
     36 CB        -53.8557  -25.4130   20.0641 C.3       10 UNK        -0.1976 
     37 N         -51.9111  -25.2271   18.5603 N.am      10 UNK        -0.4242 
     38 C         -51.6784  -26.3925   17.9395 C.2       10 UNK         0.5072 
     39 O         -52.5608  -27.0896   17.4377 O.2       10 UNK        -0.5224 
     40 CA        -50.2048  -26.8355   17.8601 C.3       9 UNK         0.0343 
     41 CB        -50.0468  -28.2774   17.3418 C.3       9 UNK        -0.2003 
     42 N         -49.4423  -25.9294   17.0027 N.am      9 UNK        -0.4272 
     43 C         -48.9490  -24.7420   17.3882 C.2       9 UNK         0.4988 
     44 O         -49.0046  -24.3326   18.5490 O.2       9 UNK        -0.5108 
     45 CA        -48.3437  -23.8295   16.3015 C.3       8 UNK         0.0248 
     46 CB        -46.8223  -24.0266   16.2184 C.3       8 UNK        -0.2001 
     47 N         -48.9322  -24.0306   14.9746 N.am      8 UNK        -0.4140 
     48 C         -50.2349  -23.9005   14.6862 C.2       8 UNK         0.5028 
     49 O         -51.0644  -23.4582   15.4814 O.2       8 UNK        -0.5428 
     50 CA        -50.7136  -24.3905   13.3071 C.3       7 UNK         0.0264 
     51 CB        -50.9778  -23.1888   12.3874 C.3       7 UNK        -0.1988 
     52 N         -49.8169  -25.3480   12.6397 N.am      7 UNK        -0.4454 
     53 C         -49.4438  -26.5397   13.1403 C.2       7 UNK         0.5027 
     54 O         -49.7692  -26.9372   14.2583 O.2       7 UNK        -0.5083 
     55 CA        -48.5026  -27.4093   12.2820 C.3       6 UNK         0.0844 
     56 C56       -49.3037  -28.2620   11.2721 C.3       14 UNK        -0.0967 
     57 S57       -48.2735  -29.5063   10.4181 S.3       14 UNK        -0.2604 
     58 C58       -49.2067  -31.0503   10.6943 C.3       14 UNK         0.0134 
     59 N         -47.4798  -26.5862   11.6356 N.am      6 UNK        -0.4116 
     60 C         -46.4487  -26.0172   12.2757 C.2       5 UNK         0.5034 
     61 O         -46.1918  -26.1965   13.4656 O.2       5 UNK        -0.5045 
     62 CA        -45.5830  -25.0469   11.4547 C.3       5 UNK         0.0224 
     63 CB        -44.4838  -25.8091   10.6974 C.3       5 UNK        -0.1978 
     64 N         -46.3743  -24.2564   10.5071 N.am      5 UNK        -0.4737 
     65 C         -47.3035  -23.3539   10.8571 C.2       4 UNK         0.5027 
     66 O         -47.5301  -23.0279   12.0213 O.2       4 UNK        -0.5211 
     67 CA        -48.1475  -22.7473    9.7218 C.3       4 UNK         0.0297 
     68 CB        -47.5493  -21.4080    9.2648 C.3       4 UNK        -0.1993 
     69 N         -48.2709  -23.6482    8.5715 N.am      4 UNK        -0.4486 
     70 C         -48.9983  -24.7728    8.5581 C.2       3 UNK         0.4961 
     71 O         -49.7185  -25.1445    9.4899 O.2       3 UNK        -0.5105 
     72 CA        -48.8074  -25.6682    7.3259 C.3       3 UNK         0.0299 
     73 CB        -47.7153  -26.7151    7.5959 C.3       3 UNK        -0.1972 
     74 N         -50.0306  -26.3577    6.9209 N.am      3 UNK        -0.4305 
     75 C         -51.0669  -25.7720    6.3054 C.2       2 UNK         0.5006 
     76 O         -51.1521  -24.5561    6.1238 O.2       2 UNK        -0.5106 
     77 CA        -52.1586  -26.7191    5.7557 C.3       2 UNK         0.0296 
     78 CB        -53.1269  -26.0104    4.7851 C.3       2 UNK        -0.2002 
     79 N         -51.6122  -27.9362    5.1316 N.am      2 UNK        -0.4032 
     80 C         -50.6964  -28.0063    4.1500 C.2       1 UNK         0.5000 
     81 O         -50.1833  -27.0182    3.6147 O.2       1 UNK        -0.5238 
     82 H82       -47.3028  -29.7715    0.3619 H         1 UNK         0.0889 
     83 H83       -46.4215  -30.5772    1.6627 H         1 UNK         0.0889 
     84 H84       -46.7900  -28.8553    1.7799 H         1 UNK         0.0889 
     85 H85       -48.5421  -28.3945    3.1186 H         1 UNK         0.3028 
     86 H86       -51.0002  -29.7167    2.9432 H         1 UNK         0.0864 
     87 H87       -49.5147  -31.2625    4.5999 H         1 UNK         0.0720 
     88 H88       -49.9031  -30.0491    5.7816 H         1 UNK         0.0720 
     89 H89       -50.5563  -32.9401    6.2164 H         1 UNK         0.0814 
     90 H90       -52.2697  -33.2268    6.3739 H         1 UNK         0.0814 
     91 H91       -49.4705  -32.1267    8.1924 H         1 UNK         0.1469 
     92 H92       -51.7185  -30.1595   11.2685 H         1 UNK         0.1381 
     93 H93       -53.6148  -31.1917    7.5749 H         1 UNK         0.1206 
     94 H94       -54.9301  -30.4826    9.6748 H         1 UNK         0.0813 
     95 H95       -54.0665  -29.7634   11.0109 H         1 UNK         0.0813 
     96 H96       -52.0770  -28.0627   10.2234 H         1 UNK         0.0638 
     97 H97       -52.1601  -27.0525    8.8429 H         1 UNK         0.0638 
     98 H98       -51.9889  -25.8666   11.0490 H         1 UNK         0.0568 
     99 H99       -52.9603  -23.4446    8.6389 H         1 UNK         0.3450 
    100 H100      -51.6739  -24.5387    9.0940 H         1 UNK         0.3450 
    101 H101      -54.5886  -25.8682   11.9709 H         1 UNK         0.2987 
    102 H102      -55.4111  -27.4017   13.6880 H         1 UNK         0.0766 
    103 H103      -54.3055  -29.4907   14.4068 H         1 UNK         0.0798 
    104 H104      -54.7955  -28.5601   15.8157 H         1 UNK         0.0798 
    105 H105      -53.1047  -28.5901   15.3195 H         1 UNK         0.0798 
    106 H106      -53.6074  -26.1706   15.6405 H         1 UNK         0.3198 
    107 H107      -53.5999  -23.1727   14.6859 H         1 UNK         0.0843 
    108 H108      -55.8901  -22.3437   14.5474 H         1 UNK         0.0831 
    109 H109      -55.1891  -21.8098   16.0643 H         1 UNK         0.0831 
    110 H110      -56.3397  -23.1470   16.0401 H         1 UNK         0.0831 
    111 H111      -52.6498  -23.7525   16.5525 H         1 UNK         0.3133 
    112 H112      -53.0131  -23.6254   19.2397 H         1 UNK         0.0566 
    113 H113      -53.1857  -25.4593   20.9227 H         1 UNK         0.0814 
    114 H114      -54.1089  -26.4356   19.7807 H         1 UNK         0.0814 
    115 H115      -54.7747  -24.9305   20.3991 H         1 UNK         0.0814 
    116 H116      -51.0974  -24.7062   18.8704 H         1 UNK         0.3091 
    117 H117      -49.7953  -26.8041   18.8721 H         1 UNK         0.0702 
    118 H118      -48.9984  -28.5722   17.3008 H         1 UNK         0.0785 
    119 H119      -50.4684  -28.3998   16.3434 H         1 UNK         0.0785 
    120 H120      -50.5580  -28.9833   17.9974 H         1 UNK         0.0785 
    121 H121      -49.4149  -26.1787   16.0171 H         1 UNK         0.2998 
    122 H122      -48.5422  -22.7961   16.5928 H         1 UNK         0.0697 
    123 H123      -46.5638  -25.0480   15.9353 H         1 UNK         0.0825 
    124 H124      -46.3498  -23.8258   17.1813 H         1 UNK         0.0825 
    125 H125      -46.3722  -23.3522   15.4892 H         1 UNK         0.0825 
    126 H126      -48.3175  -24.3657   14.2461 H         1 UNK         0.3029 
    127 H127      -51.6592  -24.9104   13.4686 H         1 UNK         0.0897 
    128 H128      -50.1113  -22.5308   12.3261 H         1 UNK         0.0792 
    129 H129      -51.8069  -22.5890   12.7649 H         1 UNK         0.0792 
    130 H130      -51.2345  -23.4965   11.3762 H         1 UNK         0.0792 
    131 H131      -49.5113  -25.1030   11.7057 H         1 UNK         0.3086 
    132 H132      -47.9965  -28.0962   12.9643 H         1 UNK         0.0583 
    133 H133      -50.1075  -28.7727   11.8003 H         1 UNK         0.1020 
    134 H134      -49.7814  -27.6320   10.5208 H         1 UNK         0.1020 
    135 H135      -48.5537  -31.8962   10.4745 H         1 UNK         0.0694 
    136 H136      -49.4709  -31.1390   11.7493 H         1 UNK         0.0694 
    137 H137      -47.6165  -26.3830   10.6579 H         1 UNK         0.2989 
    138 H138      -45.1067  -24.3574   12.1559 H         1 UNK         0.1055 
    139 H139      -44.8992  -26.5059    9.9681 H         1 UNK         0.0806 
    140 H140      -43.8183  -25.1257   10.1695 H         1 UNK         0.0806 
    141 H141      -43.8680  -26.3890   11.3866 H         1 UNK         0.0806 
    142 H142      -46.2292  -24.4372    9.5248 H         1 UNK         0.3061 
    143 H143      -49.1483  -22.5566   10.1128 H         1 UNK         0.0734 
    144 H144      -46.5471  -21.5297    8.8521 H         1 UNK         0.0832 
    145 H145      -48.1714  -20.9336    8.5055 H         1 UNK         0.0832 
    146 H146      -47.4742  -20.7108   10.1007 H         1 UNK         0.0832 
    147 H147      -47.7204  -23.4168    7.7563 H         1 UNK         0.3156 
    148 H148      -48.4836  -25.0465    6.4881 H         1 UNK         0.0589 
    149 H149      -47.5253  -27.3260    6.7130 H         1 UNK         0.0808 
    150 H150      -46.7701  -26.2430    7.8666 H         1 UNK         0.0808 
    151 H151      -47.9923  -27.3845    8.4097 H         1 UNK         0.0808 
    152 H152      -50.0535  -27.3563    7.0602 H         1 UNK         0.3098 
    153 H153      -52.7454  -27.0491    6.6129 H         1 UNK         0.0720 
    154 H154      -53.9052  -26.6887    4.4355 H         1 UNK         0.0791 
    155 H155      -52.6060  -25.6173    3.9110 H         1 UNK         0.0791 
    156 H156      -53.6256  -25.1718    5.2729 H         1 UNK         0.0791 
    157 H157      -51.9635  -28.8131    5.4969 H         1 UNK         0.3028 
@<TRIPOS>BOND
     1    1    2 1    
     2    1   82 1    
     3    1   83 1    
     4    1   84 1    
     5    2    3 2    
     6    2    4 am   BACKBONE|DICT|INTERRES
     7    4    5 1    
     8    4   85 1    
     9    5    6 1    
    10    5   80 1    
    11    5   86 1    
    12    6    7 1    
    13    6   87 1    
    14    6   88 1    
    15    7    8 1    
    16    8    9 1    
    17    8   89 1    
    18    8   90 1    
    19    9   10 ar   
    20    9   14 ar   
    21   10   11 ar   
    22   10   91 1    
    23   11   12 ar   
    24   11   58 1    
    25   12   13 ar   
    26   12   92 1    
    27   13   14 ar   
    28   13   15 1    
    29   14   93 1    
    30   15   16 1    
    31   15   94 1    
    32   15   95 1    
    33   16   17 1    
    34   17   18 1    
    35   17   96 1    
    36   17   97 1    
    37   18   19 1    
    38   18   22 1    
    39   18   98 1    
    40   19   20 am   BACKBONE|DICT|INTERRES
    41   19   21 2    
    42   20   99 1    
    43   20  100 1    
    44   22   23 am   BACKBONE|DICT|INTERRES
    45   22  101 1    
    46   23   24 2    
    47   23   25 1    
    48   25   26 1    
    49   25   27 1    
    50   25  102 1    
    51   26  103 1    
    52   26  104 1    
    53   26  105 1    
    54   27   28 am   BACKBONE|DICT|INTERRES
    55   27  106 1    
    56   28   29 2    
    57   28   30 1    
    58   30   31 1    
    59   30   32 1    
    60   30  107 1    
    61   31  108 1    
    62   31  109 1    
    63   31  110 1    
    64   32   33 am   BACKBONE|DICT|INTERRES
    65   32  111 1    
    66   33   34 2    
    67   33   35 1    
    68   35   36 1    
    69   35   37 1    
    70   35  112 1    
    71   36  113 1    
    72   36  114 1    
    73   36  115 1    
    74   37   38 am   BACKBONE|DICT|INTERRES
    75   37  116 1    
    76   38   39 2    
    77   38   40 1    
    78   40   41 1    
    79   40   42 1    
    80   40  117 1    
    81   41  118 1    
    82   41  119 1    
    83   41  120 1    
    84   42   43 am   BACKBONE|DICT|INTERRES
    85   42  121 1    
    86   43   44 2    
    87   43   45 1    
    88   45   46 1    
    89   45   47 1    
    90   45  122 1    
    91   46  123 1    
    92   46  124 1    
    93   46  125 1    
    94   47   48 am   BACKBONE|DICT|INTERRES
    95   47  126 1    
    96   48   49 2    
    97   48   50 1    
    98   50   51 1    
    99   50   52 1    
   100   50  127 1    
   101   51  128 1    
   102   51  129 1    
   103   51  130 1    
   104   52   53 am   BACKBONE|DICT|INTERRES
   105   52  131 1    
   106   53   54 2    
   107   53   55 1    
   108   55   56 1    
   109   55   59 1    
   110   55  132 1    
   111   56   57 1    
   112   56  133 1    
   113   56  134 1    
   114   57   58 1    
   115   58  135 1    
   116   58  136 1    
   117   59   60 am   BACKBONE|DICT|INTERRES
   118   59  137 1    
   119   60   61 2    
   120   60   62 1    
   121   62   63 1    
   122   62   64 1    
   123   62  138 1    
   124   63  139 1    
   125   63  140 1    
   126   63  141 1    
   127   64   65 am   BACKBONE|DICT|INTERRES
   128   64  142 1    
   129   65   66 2    
   130   65   67 1    
   131   67   68 1    
   132   67   69 1    
   133   67  143 1    
   134   68  144 1    
   135   68  145 1    
   136   68  146 1    
   137   69   70 am   BACKBONE|DICT|INTERRES
   138   69  147 1    
   139   70   71 2    
   140   70   72 1    
   141   72   73 1    
   142   72   74 1    
   143   72  148 1    
   144   73  149 1    
   145   73  150 1    
   146   73  151 1    
   147   74   75 am   BACKBONE|DICT|INTERRES
   148   74  152 1    
   149   75   76 2    
   150   75   77 1    
   151   77   78 1    
   152   77   79 1    
   153   77  153 1    
   154   78  154 1    
   155   78  155 1    
   156   78  156 1    
   157   79   80 am   BACKBONE|DICT|INTERRES
   158   79  157 1    
   159   80   81 2    
@<TRIPOS>SUBSTRUCTURE
     1 UNK         1 GROUP             0       ****    0 ROOT    
