@<TRIPOS>MOLECULE
3R207
157   159    1
SMALL
USER_CHARGES


@<TRIPOS>ATOM
      1 CA        -50.9844  -32.0188    6.6286 C.3       0 UNK        -0.1975 
      2 C         -51.0294  -31.1251    5.4014 C.2       0 UNK         0.4852 
      3 O         -50.4219  -31.4535    4.3816 O.2       0 UNK        -0.5216 
      4 N         -51.7503  -29.9989    5.4908 N.am      1 UNK        -0.4461 
      5 CA        -51.9069  -29.0280    4.4009 C.3       1 UNK         0.0864 
      6 C6        -53.2206  -28.2158    4.5426 C.3       14 UNK        -0.0898 
      7 S7        -53.2222  -26.8749    5.7831 S.3       14 UNK        -0.2598 
      8 C8        -53.7305  -27.7177    7.3195 C.3       14 UNK         0.0286 
      9 C9        -52.5516  -28.1454    8.1903 C.ar      14 UNK        -0.0844 
     10 C10       -51.5052  -27.2572    8.4570 C.ar      14 UNK        -0.0881 
     11 C11       -50.4450  -27.6155    9.2934 C.ar      14 UNK        -0.0643 
     12 C12       -50.4510  -28.8846    9.8881 C.ar      14 UNK        -0.0930 
     13 C13       -51.4899  -29.7879    9.6357 C.ar      14 UNK        -0.0827 
     14 C14       -52.5325  -29.4122    8.7797 C.ar      14 UNK        -0.1249 
     15 C15       -51.4557  -31.1845   10.2513 C.3       14 UNK         0.0141 
     16 S16       -53.0188  -31.6558   11.0626 S.3       14 UNK        -0.2313 
     17 C17       -52.6817  -31.2437   12.8044 C.3       14 UNK        -0.0915 
     18 CA        -53.9585  -30.7652   13.5436 C.3       13 UNK         0.0968 
     19 C         -53.7832  -30.8252   15.0900 C.2       13 UNK         0.5732 
     20 N         -53.8615  -29.7205   15.8218 N.am      13 UNK        -0.7310 
     21 O         -53.5909  -31.9066   15.6409 O.2       13 UNK        -0.5035 
     22 N         -54.4306  -29.4707   13.0270 N.am      13 UNK        -0.4233 
     23 C         -55.6747  -28.9981   13.1809 C.2       13 UNK         0.4989 
     24 O         -56.5825  -29.6383   13.7143 O.2       13 UNK        -0.4996 
     25 CA        -55.9618  -27.5783   12.6634 C.3       12 UNK         0.0216 
     26 CB        -56.8363  -26.7799   13.6485 C.3       12 UNK        -0.1964 
     27 N         -54.7279  -26.8268   12.4252 N.am      12 UNK        -0.4276 
     28 C         -54.4140  -26.1895   11.2893 C.2       12 UNK         0.5020 
     29 O         -55.1234  -26.2136   10.2825 O.2       12 UNK        -0.5489 
     30 CA        -53.0946  -25.3836   11.2760 C.3       11 UNK         0.0294 
     31 CB        -53.1181  -24.2243   10.2593 C.3       11 UNK        -0.2019 
     32 N         -52.6749  -24.9057   12.6002 N.am      11 UNK        -0.4493 
     33 C         -53.3708  -24.1467   13.4609 C.2       11 UNK         0.4932 
     34 O         -54.4512  -23.6193   13.1927 O.2       11 UNK        -0.5029 
     35 CA        -52.7716  -23.9867   14.8758 C.3       10 UNK         0.0280 
     36 CB        -53.8515  -23.6840   15.9353 C.3       10 UNK        -0.1976 
     37 N         -51.9477  -25.1238   15.3160 N.am      10 UNK        -0.4242 
     38 C         -52.3051  -26.4173   15.3863 C.2       10 UNK         0.5072 
     39 O         -53.3952  -26.8561   15.0099 O.2       10 UNK        -0.5224 
     40 CA        -51.2637  -27.4135   15.9286 C.3       9 UNK         0.0343 
     41 CB        -50.6448  -28.2051   14.7698 C.3       9 UNK        -0.2003 
     42 N         -50.1960  -26.8070   16.7284 N.am      9 UNK        -0.4272 
     43 C         -50.3752  -26.2596   17.9407 C.2       9 UNK         0.4988 
     44 O         -51.4685  -26.2127   18.5059 O.2       9 UNK        -0.5108 
     45 CA        -49.1473  -25.6747   18.6672 C.3       8 UNK         0.0248 
     46 CB        -48.8194  -26.5019   19.9224 C.3       8 UNK        -0.2001 
     47 N         -47.9369  -25.5644   17.8483 N.am      8 UNK        -0.4140 
     48 C         -47.7690  -24.7308   16.8141 C.2       8 UNK         0.5028 
     49 O         -48.6470  -23.9697   16.4026 O.2       8 UNK        -0.5428 
     50 CA        -46.3978  -24.7476   16.1091 C.3       7 UNK         0.0264 
     51 CB        -45.3658  -25.7230   16.7238 C.3       7 UNK        -0.1988 
     52 N         -46.5438  -24.9855   14.6701 N.am      7 UNK        -0.4454 
     53 C         -47.0941  -26.0577   14.0767 C.2       7 UNK         0.5027 
     54 O         -47.5049  -27.0462   14.6886 O.2       7 UNK        -0.5083 
     55 CA        -47.2285  -25.9678   12.5381 C.3       6 UNK         0.0844 
     56 C56       -47.9222  -27.2062   11.9027 C.3       14 UNK        -0.0967 
     57 S57       -47.7334  -27.2337   10.0898 S.3       14 UNK        -0.2604 
     58 C58       -49.3456  -26.5795    9.5346 C.3       14 UNK         0.0134 
     59 N         -47.8394  -24.6858   12.1550 N.am      6 UNK        -0.4116 
     60 C         -49.0650  -24.2659   12.5045 C.2       5 UNK         0.5034 
     61 O         -49.8851  -24.9647   13.0994 O.2       5 UNK        -0.5045 
     62 CA        -49.4438  -22.8157   12.1634 C.3       5 UNK         0.0224 
     63 CB        -49.3423  -21.9394   13.4228 C.3       5 UNK        -0.1978 
     64 N         -48.6261  -22.2185   11.1026 N.am      5 UNK        -0.4737 
     65 C         -48.7868  -22.4596    9.7950 C.2       4 UNK         0.5027 
     66 O         -49.6457  -23.2214    9.3500 O.2       4 UNK        -0.5211 
     67 CA        -47.8755  -21.6656    8.8357 C.3       4 UNK         0.0297 
     68 CB        -46.4166  -21.5523    9.3368 C.3       4 UNK        -0.1993 
     69 N         -47.9250  -22.1664    7.4553 N.am      4 UNK        -0.4486 
     70 C         -47.4760  -23.3432    6.9963 C.2       3 UNK         0.4961 
     71 O         -46.8672  -24.1746    7.6743 O.2       3 UNK        -0.5105 
     72 CA        -47.6988  -23.5956    5.4938 C.3       3 UNK         0.0299 
     73 CB        -46.5805  -22.9383    4.6672 C.3       3 UNK        -0.1972 
     74 N         -47.7387  -25.0251    5.1832 N.am      3 UNK        -0.4305 
     75 C         -48.7574  -25.8388    5.4855 C.2       2 UNK         0.5006 
     76 O         -49.8189  -25.4550    5.9811 O.2       2 UNK        -0.5106 
     77 CA        -48.5246  -27.3316    5.1969 C.3       2 UNK         0.0296 
     78 CB        -47.5818  -27.9538    6.2405 C.3       2 UNK        -0.2002 
     79 N         -49.7725  -28.0909    5.1974 N.am      2 UNK        -0.4032 
     80 C         -50.6497  -28.1511    4.1860 C.2       1 UNK         0.5000 
     81 O         -50.4868  -27.5812    3.1045 O.2       1 UNK        -0.5238 
     82 H82       -51.9139  -31.9555    7.1933 H         1 UNK         0.0889 
     83 H83       -50.1570  -31.7267    7.2747 H         1 UNK         0.0889 
     84 H84       -50.8414  -33.0596    6.3387 H         1 UNK         0.0889 
     85 H85       -52.2031  -29.7585    6.3623 H         1 UNK         0.3028 
     86 H86       -52.0122  -29.6076    3.4807 H         1 UNK         0.0864 
     87 H87       -53.4476  -27.7487    3.5827 H         1 UNK         0.0720 
     88 H88       -54.0600  -28.8861    4.7341 H         1 UNK         0.0720 
     89 H89       -54.3772  -28.5640    7.0837 H         1 UNK         0.0814 
     90 H90       -54.3415  -27.0241    7.8968 H         1 UNK         0.0814 
     91 H91       -51.5169  -26.2705    8.0123 H         1 UNK         0.1469 
     92 H92       -49.6449  -29.1788   10.5442 H         1 UNK         0.1381 
     93 H93       -53.3403  -30.1057    8.5884 H         1 UNK         0.1206 
     94 H94       -51.2521  -31.9096    9.4654 H         1 UNK         0.0813 
     95 H95       -50.6328  -31.2820   10.9610 H         1 UNK         0.0813 
     96 H96       -51.8995  -30.4865   12.8573 H         1 UNK         0.0638 
     97 H97       -52.2712  -32.1422   13.2691 H         1 UNK         0.0638 
     98 H98       -54.7417  -31.4955   13.3304 H         1 UNK         0.0568 
     99 H99       -53.7693  -29.7938   16.8217 H         1 UNK         0.3450 
    100 H100      -53.9867  -28.8132   15.3914 H         1 UNK         0.3450 
    101 H101      -53.7488  -28.9002   12.5519 H         1 UNK         0.2987 
    102 H102      -56.5186  -27.7019   11.7326 H         1 UNK         0.0766 
    103 H103      -57.7966  -27.2697   13.8146 H         1 UNK         0.0798 
    104 H104      -57.0458  -25.7798   13.2683 H         1 UNK         0.0798 
    105 H105      -56.3489  -26.6718   14.6185 H         1 UNK         0.0798 
    106 H106      -54.1167  -26.7262   13.2336 H         1 UNK         0.3198 
    107 H107      -52.3235  -26.0854   10.9579 H         1 UNK         0.0843 
    108 H108      -52.1656  -23.6967   10.2369 H         1 UNK         0.0831 
    109 H109      -53.3020  -24.5930    9.2493 H         1 UNK         0.0831 
    110 H110      -53.9001  -23.5007   10.4905 H         1 UNK         0.0831 
    111 H111      -51.7538  -25.2134   12.9066 H         1 UNK         0.3133 
    112 H112      -52.1041  -23.1264   14.8272 H         1 UNK         0.0566 
    113 H113      -54.5911  -24.4836   15.9937 H         1 UNK         0.0814 
    114 H114      -54.3855  -22.7618   15.7026 H         1 UNK         0.0814 
    115 H115      -53.4125  -23.5611   16.9254 H         1 UNK         0.0814 
    116 H116      -50.9959  -24.8960   15.5756 H         1 UNK         0.3091 
    117 H117      -51.7934  -28.1147   16.5750 H         1 UNK         0.0702 
    118 H118      -49.9689  -28.9815   15.1282 H         1 UNK         0.0785 
    119 H119      -50.0863  -27.5510   14.1032 H         1 UNK         0.0785 
    120 H120      -51.4171  -28.6905   14.1753 H         1 UNK         0.0785 
    121 H121      -49.2693  -26.8030   16.3208 H         1 UNK         0.2998 
    122 H122      -49.4218  -24.6673   18.9871 H         1 UNK         0.0697 
    123 H123      -48.5255  -27.5212   19.6684 H         1 UNK         0.0825 
    124 H124      -49.6834  -26.5687   20.5853 H         1 UNK         0.0825 
    125 H125      -48.0103  -26.0506   20.4971 H         1 UNK         0.0825 
    126 H126      -47.1682  -26.1705   18.0965 H         1 UNK         0.3029 
    127 H127      -45.9978  -23.7380   16.2161 H         1 UNK         0.0897 
    128 H128      -45.6920  -26.7624   16.6720 H         1 UNK         0.0792 
    129 H129      -45.1682  -25.4847   17.7699 H         1 UNK         0.0792 
    130 H130      -44.4110  -25.6561   16.2021 H         1 UNK         0.0792 
    131 H131      -46.2758  -24.2120   14.0785 H         1 UNK         0.3086 
    132 H132      -46.2044  -25.9403   12.1622 H         1 UNK         0.0583 
    133 H133      -47.4806  -28.1287   12.2841 H         1 UNK         0.1020 
    134 H134      -48.9791  -27.2498   12.1626 H         1 UNK         0.1020 
    135 H135      -49.7147  -25.8439   10.2470 H         1 UNK         0.0694 
    136 H136      -49.1636  -26.0301    8.6098 H         1 UNK         0.0694 
    137 H137      -47.2536  -24.0522   11.6319 H         1 UNK         0.2989 
    138 H138      -50.4866  -22.8256   11.8383 H         1 UNK         0.1055 
    139 H139      -49.7212  -20.9338   13.2396 H         1 UNK         0.0806 
    140 H140      -48.3139  -21.8541   13.7759 H         1 UNK         0.0806 
    141 H141      -49.9254  -22.3593   14.2433 H         1 UNK         0.0806 
    142 H142      -47.9212  -21.5544   11.3900 H         1 UNK         0.3061 
    143 H143      -48.2886  -20.6566    8.7960 H         1 UNK         0.0734 
    144 H144      -45.9831  -22.5288    9.5553 H         1 UNK         0.0832 
    145 H145      -45.7817  -21.0672    8.5953 H         1 UNK         0.0832 
    146 H146      -46.3497  -20.9538   10.2456 H         1 UNK         0.0832 
    147 H147      -48.4267  -21.5751    6.8072 H         1 UNK         0.3156 
    148 H148      -48.6542  -23.1538    5.2020 H         1 UNK         0.0589 
    149 H149      -45.5998  -23.3430    4.9213 H         1 UNK         0.0808 
    150 H150      -46.5426  -21.8624    4.8430 H         1 UNK         0.0808 
    151 H151      -46.7379  -23.0837    3.5982 H         1 UNK         0.0808 
    152 H152      -46.8869  -25.4287    4.8219 H         1 UNK         0.3098 
    153 H153      -48.0615  -27.4201    4.2117 H         1 UNK         0.0720 
    154 H154      -46.6388  -27.4095    6.3050 H         1 UNK         0.0791 
    155 H155      -47.3415  -28.9872    5.9898 H         1 UNK         0.0791 
    156 H156      -48.0280  -27.9485    7.2344 H         1 UNK         0.0791 
    157 H157      -50.0238  -28.5434    6.0634 H         1 UNK         0.3028 
@<TRIPOS>BOND
     1    1    2 1    
     2    1   82 1    
     3    1   83 1    
     4    1   84 1    
     5    2    3 2    
     6    2    4 am   BACKBONE|DICT|INTERRES
     7    4    5 1    
     8    4   85 1    
     9    5    6 1    
    10    5   80 1    
    11    5   86 1    
    12    6    7 1    
    13    6   87 1    
    14    6   88 1    
    15    7    8 1    
    16    8    9 1    
    17    8   89 1    
    18    8   90 1    
    19    9   10 ar   
    20    9   14 ar   
    21   10   11 ar   
    22   10   91 1    
    23   11   12 ar   
    24   11   58 1    
    25   12   13 ar   
    26   12   92 1    
    27   13   14 ar   
    28   13   15 1    
    29   14   93 1    
    30   15   16 1    
    31   15   94 1    
    32   15   95 1    
    33   16   17 1    
    34   17   18 1    
    35   17   96 1    
    36   17   97 1    
    37   18   19 1    
    38   18   22 1    
    39   18   98 1    
    40   19   20 am   BACKBONE|DICT|INTERRES
    41   19   21 2    
    42   20   99 1    
    43   20  100 1    
    44   22   23 am   BACKBONE|DICT|INTERRES
    45   22  101 1    
    46   23   24 2    
    47   23   25 1    
    48   25   26 1    
    49   25   27 1    
    50   25  102 1    
    51   26  103 1    
    52   26  104 1    
    53   26  105 1    
    54   27   28 am   BACKBONE|DICT|INTERRES
    55   27  106 1    
    56   28   29 2    
    57   28   30 1    
    58   30   31 1    
    59   30   32 1    
    60   30  107 1    
    61   31  108 1    
    62   31  109 1    
    63   31  110 1    
    64   32   33 am   BACKBONE|DICT|INTERRES
    65   32  111 1    
    66   33   34 2    
    67   33   35 1    
    68   35   36 1    
    69   35   37 1    
    70   35  112 1    
    71   36  113 1    
    72   36  114 1    
    73   36  115 1    
    74   37   38 am   BACKBONE|DICT|INTERRES
    75   37  116 1    
    76   38   39 2    
    77   38   40 1    
    78   40   41 1    
    79   40   42 1    
    80   40  117 1    
    81   41  118 1    
    82   41  119 1    
    83   41  120 1    
    84   42   43 am   BACKBONE|DICT|INTERRES
    85   42  121 1    
    86   43   44 2    
    87   43   45 1    
    88   45   46 1    
    89   45   47 1    
    90   45  122 1    
    91   46  123 1    
    92   46  124 1    
    93   46  125 1    
    94   47   48 am   BACKBONE|DICT|INTERRES
    95   47  126 1    
    96   48   49 2    
    97   48   50 1    
    98   50   51 1    
    99   50   52 1    
   100   50  127 1    
   101   51  128 1    
   102   51  129 1    
   103   51  130 1    
   104   52   53 am   BACKBONE|DICT|INTERRES
   105   52  131 1    
   106   53   54 2    
   107   53   55 1    
   108   55   56 1    
   109   55   59 1    
   110   55  132 1    
   111   56   57 1    
   112   56  133 1    
   113   56  134 1    
   114   57   58 1    
   115   58  135 1    
   116   58  136 1    
   117   59   60 am   BACKBONE|DICT|INTERRES
   118   59  137 1    
   119   60   61 2    
   120   60   62 1    
   121   62   63 1    
   122   62   64 1    
   123   62  138 1    
   124   63  139 1    
   125   63  140 1    
   126   63  141 1    
   127   64   65 am   BACKBONE|DICT|INTERRES
   128   64  142 1    
   129   65   66 2    
   130   65   67 1    
   131   67   68 1    
   132   67   69 1    
   133   67  143 1    
   134   68  144 1    
   135   68  145 1    
   136   68  146 1    
   137   69   70 am   BACKBONE|DICT|INTERRES
   138   69  147 1    
   139   70   71 2    
   140   70   72 1    
   141   72   73 1    
   142   72   74 1    
   143   72  148 1    
   144   73  149 1    
   145   73  150 1    
   146   73  151 1    
   147   74   75 am   BACKBONE|DICT|INTERRES
   148   74  152 1    
   149   75   76 2    
   150   75   77 1    
   151   77   78 1    
   152   77   79 1    
   153   77  153 1    
   154   78  154 1    
   155   78  155 1    
   156   78  156 1    
   157   79   80 am   BACKBONE|DICT|INTERRES
   158   79  157 1    
   159   80   81 2    
@<TRIPOS>SUBSTRUCTURE
     1 UNK         1 GROUP             0       ****    0 ROOT    
