@<TRIPOS>MOLECULE
3R207
157   159    1
SMALL
USER_CHARGES


@<TRIPOS>ATOM
      1 CA        -45.9890  -29.0185    8.6746 C.3       0 UNK        -0.1975 
      2 C         -46.7382  -28.4533    7.4783 C.2       0 UNK         0.4852 
      3 O         -46.9325  -27.2404    7.3991 O.2       0 UNK        -0.5216 
      4 N         -47.1472  -29.3233    6.5436 N.am      1 UNK        -0.4461 
      5 CA        -47.9222  -29.0068    5.3326 C.3       1 UNK         0.0864 
      6 C6        -49.3650  -28.5159    5.6343 C.3       14 UNK        -0.0898 
      7 S7        -50.3070  -29.7076    6.6479 S.3       14 UNK        -0.2598 
      8 C8        -50.6300  -28.7352    8.1527 C.3       14 UNK         0.0286 
      9 C9        -51.9386  -27.9641    8.0505 C.ar      14 UNK        -0.0844 
     10 C10       -52.0023  -26.7638    7.3368 C.ar      14 UNK        -0.0881 
     11 C11       -53.1928  -26.0322    7.2786 C.ar      14 UNK        -0.0643 
     12 C12       -54.3297  -26.5140    7.9338 C.ar      14 UNK        -0.0930 
     13 C13       -54.2792  -27.7123    8.6504 C.ar      14 UNK        -0.0827 
     14 C14       -53.0849  -28.4391    8.6950 C.ar      14 UNK        -0.1249 
     15 C15       -55.5076  -28.2091    9.4008 C.3       14 UNK         0.0141 
     16 S16       -55.8680  -27.2267   10.8994 S.3       14 UNK        -0.2313 
     17 C17       -54.2661  -27.2244   11.7722 C.3       14 UNK        -0.0915 
     18 CA        -53.9627  -28.5751   12.4802 C.3       13 UNK         0.0968 
     19 C         -52.4473  -28.7889   12.7777 C.2       13 UNK         0.5732 
     20 N         -51.5723  -28.4860   11.8280 N.am      13 UNK        -0.7310 
     21 O         -52.0470  -29.2614   13.8383 O.2       13 UNK        -0.5035 
     22 N         -54.8627  -28.8007   13.6242 N.am      13 UNK        -0.4233 
     23 C         -54.8293  -28.1734   14.8073 C.2       13 UNK         0.4989 
     24 O         -53.9956  -27.3178   15.1232 O.2       13 UNK        -0.4996 
     25 CA        -55.9240  -28.5708   15.8101 C.3       12 UNK         0.0216 
     26 CB        -56.0128  -30.0963   16.0297 C.3       12 UNK        -0.1964 
     27 N         -55.6576  -27.9024   17.0788 N.am      12 UNK        -0.4276 
     28 C         -56.5546  -27.5836   18.0173 C.2       12 UNK         0.5020 
     29 O         -57.7568  -27.8365   17.9233 O.2       12 UNK        -0.5489 
     30 CA        -56.0321  -26.8800   19.2854 C.3       11 UNK         0.0294 
     31 CB        -56.2379  -27.7722   20.5215 C.3       11 UNK        -0.2019 
     32 N         -54.6131  -26.5253   19.1996 N.am      11 UNK        -0.4493 
     33 C         -54.1170  -25.4253   18.6239 C.2       11 UNK         0.4932 
     34 O         -54.8135  -24.5386   18.1308 O.2       11 UNK        -0.5029 
     35 CA        -52.5841  -25.3035   18.5707 C.3       10 UNK         0.0280 
     36 CB        -51.9922  -24.9910   19.9591 C.3       10 UNK        -0.1976 
     37 N         -51.9130  -26.4476   17.9337 N.am      10 UNK        -0.4242 
     38 C         -51.8326  -27.7230   18.3479 C.2       10 UNK         0.5072 
     39 O         -52.3327  -28.1237   19.4007 O.2       10 UNK        -0.5224 
     40 CA        -51.1137  -28.7430   17.4416 C.3       9 UNK         0.0343 
     41 CB        -52.0337  -29.9318   17.1186 C.3       9 UNK        -0.2003 
     42 N         -50.6339  -28.1683   16.1826 N.am      9 UNK        -0.4272 
     43 C         -49.4435  -27.5763   16.0204 C.2       9 UNK         0.4988 
     44 O         -48.5916  -27.4950   16.9060 O.2       9 UNK        -0.5108 
     45 CA        -49.1670  -26.9326   14.6486 C.3       8 UNK         0.0248 
     46 CB        -48.6252  -27.9829   13.6648 C.3       8 UNK        -0.2001 
     47 N         -50.3199  -26.2303   14.0617 N.am      8 UNK        -0.4140 
     48 C         -50.9742  -25.2167   14.6559 C.2       8 UNK         0.5028 
     49 O         -50.7133  -24.8323   15.7960 O.2       8 UNK        -0.5428 
     50 CA        -52.0688  -24.4874   13.8558 C.3       7 UNK         0.0264 
     51 CB        -52.3335  -23.0635   14.3967 C.3       7 UNK        -0.1988 
     52 N         -51.7233  -24.4513   12.4349 N.am      7 UNK        -0.4454 
     53 C         -52.5339  -24.1338   11.4192 C.2       7 UNK         0.5027 
     54 O         -53.6980  -23.7649   11.5802 O.2       7 UNK        -0.5083 
     55 CA        -51.9716  -24.2697    9.9810 C.3       6 UNK         0.0844 
     56 C56       -52.7095  -23.3379    8.9779 C.3       14 UNK        -0.0967 
     57 S57       -52.0994  -23.4771    7.2592 S.3       14 UNK        -0.2604 
     58 C58       -53.2402  -24.7025    6.5399 C.3       14 UNK         0.0134 
     59 N         -50.5094  -24.1536    9.8714 N.am      6 UNK        -0.4116 
     60 C         -49.5999  -25.0454   10.2822 C.2       5 UNK         0.5034 
     61 O         -49.8849  -26.0459   10.9422 O.2       5 UNK        -0.5045 
     62 CA        -48.1371  -24.7632    9.8946 C.3       5 UNK         0.0224 
     63 CB        -47.1552  -25.7697   10.5208 C.3       5 UNK        -0.1978 
     64 N         -47.9627  -24.7752    8.4413 N.am      5 UNK        -0.4737 
     65 C         -48.2840  -23.7683    7.6182 C.2       4 UNK         0.5027 
     66 O         -48.7599  -22.7015    8.0127 O.2       4 UNK        -0.5211 
     67 CA        -48.0197  -24.0019    6.1183 C.3       4 UNK         0.0297 
     68 CB        -48.2176  -22.7360    5.2590 C.3       4 UNK        -0.1993 
     69 N         -46.7043  -24.6071    5.8833 N.am      4 UNK        -0.4486 
     70 C         -45.5029  -24.1046    6.2128 C.2       3 UNK         0.4961 
     71 O         -45.3278  -22.9690    6.6560 O.2       3 UNK        -0.5105 
     72 CA        -44.2802  -25.0287    6.0561 C.3       3 UNK         0.0299 
     73 CB        -43.7660  -25.4662    7.4385 C.3       3 UNK        -0.1972 
     74 N         -44.5615  -26.2239    5.2587 N.am      3 UNK        -0.4305 
     75 C         -44.5641  -26.2673    3.9191 C.2       2 UNK         0.5006 
     76 O         -44.2625  -25.3131    3.2015 O.2       2 UNK        -0.5106 
     77 CA        -44.9843  -27.5974    3.2649 C.3       2 UNK         0.0296 
     78 CB        -43.7456  -28.4386    2.9157 C.3       2 UNK        -0.2002 
     79 N         -45.8994  -28.3992    4.0864 N.am      2 UNK        -0.4032 
     80 C         -47.1516  -28.0394    4.4072 C.2       1 UNK         0.5000 
     81 O         -47.6655  -26.9787    4.0452 O.2       1 UNK        -0.5238 
     82 H82       -45.1229  -28.3989    8.9048 H         1 UNK         0.0889 
     83 H83       -45.6386  -30.0338    8.4908 H         1 UNK         0.0889 
     84 H84       -46.6391  -29.0350    9.5486 H         1 UNK         0.0889 
     85 H85       -46.9542  -30.3062    6.6789 H         1 UNK         0.3028 
     86 H86       -48.0102  -29.9404    4.7744 H         1 UNK         0.0864 
     87 H87       -49.9188  -28.3663    4.7057 H         1 UNK         0.0720 
     88 H88       -49.3345  -27.5439    6.1268 H         1 UNK         0.0720 
     89 H89       -49.8032  -28.0525    8.3570 H         1 UNK         0.0814 
     90 H90       -50.6643  -29.4196    9.0016 H         1 UNK         0.0814 
     91 H91       -51.1208  -26.3769    6.8468 H         1 UNK         0.1469 
     92 H92       -55.2502  -25.9468    7.9087 H         1 UNK         0.1381 
     93 H93       -53.0428  -29.3682    9.2471 H         1 UNK         0.1206 
     94 H94       -56.3740  -28.1698    8.7391 H         1 UNK         0.0813 
     95 H95       -55.3908  -29.2574    9.6786 H         1 UNK         0.0813 
     96 H96       -53.4953  -26.9437   11.0576 H         1 UNK         0.0638 
     97 H97       -54.2856  -26.4142   12.5008 H         1 UNK         0.0638 
     98 H98       -54.1948  -29.3802   11.7835 H         1 UNK         0.0568 
     99 H99       -50.5951  -28.6633   11.9875 H         1 UNK         0.3450 
    100 H100      -51.8661  -28.0956   10.9471 H         1 UNK         0.3450 
    101 H101      -55.5728  -29.5018   13.4759 H         1 UNK         0.2987 
    102 H102      -56.8737  -28.2071   15.4122 H         1 UNK         0.0766 
    103 H103      -56.2838  -30.6204   15.1131 H         1 UNK         0.0798 
    104 H104      -56.7750  -30.3448   16.7686 H         1 UNK         0.0798 
    105 H105      -55.0682  -30.5127   16.3791 H         1 UNK         0.0798 
    106 H106      -54.7076  -27.5691   17.1801 H         1 UNK         0.3198 
    107 H107      -56.6199  -25.9691   19.4177 H         1 UNK         0.0843 
    108 H108      -55.6782  -28.7052   20.4425 H         1 UNK         0.0831 
    109 H109      -57.2899  -28.0324   20.6469 H         1 UNK         0.0831 
    110 H110      -55.9207  -27.2661   21.4334 H         1 UNK         0.0831 
    111 H111      -53.9391  -27.2123   19.5346 H         1 UNK         0.3133 
    112 H112      -52.3647  -24.4476   17.9307 H         1 UNK         0.0566 
    113 H113      -50.9167  -24.8238   19.9001 H         1 UNK         0.0814 
    114 H114      -52.1666  -25.7949   20.6746 H         1 UNK         0.0814 
    115 H115      -52.4379  -24.0868   20.3756 H         1 UNK         0.0814 
    116 H116      -51.4568  -26.2111   17.0575 H         1 UNK         0.3091 
    117 H117      -50.2636  -29.1264   18.0095 H         1 UNK         0.0702 
    118 H118      -51.5121  -30.6864   16.5295 H         1 UNK         0.0785 
    119 H119      -52.9061  -29.6139   16.5505 H         1 UNK         0.0785 
    120 H120      -52.3906  -30.4198   18.0266 H         1 UNK         0.0785 
    121 H121      -51.2555  -28.2495   15.3825 H         1 UNK         0.2998 
    122 H122      -48.3879  -26.1816   14.7948 H         1 UNK         0.0697 
    123 H123      -49.3156  -28.8168   13.5404 H         1 UNK         0.0825 
    124 H124      -47.6852  -28.4000   14.0283 H         1 UNK         0.0825 
    125 H125      -48.4274  -27.5546   12.6829 H         1 UNK         0.0825 
    126 H126      -50.5879  -26.5140   13.1281 H         1 UNK         0.3029 
    127 H127      -52.9817  -25.0735   13.9730 H         1 UNK         0.0897 
    128 H128      -51.4479  -22.4331   14.3109 H         1 UNK         0.0792 
    129 H129      -52.6173  -23.0896   15.4498 H         1 UNK         0.0792 
    130 H130      -53.1482  -22.5702   13.8676 H         1 UNK         0.0792 
    131 H131      -50.7991  -24.7902   12.1911 H         1 UNK         0.3086 
    132 H132      -52.2114  -25.2953    9.7029 H         1 UNK         0.0583 
    133 H133      -53.7825  -23.5402    8.9817 H         1 UNK         0.1020 
    134 H134      -52.6009  -22.2965    9.2860 H         1 UNK         0.1020 
    135 H135      -54.2503  -24.2900    6.5377 H         1 UNK         0.0694 
    136 H136      -52.9710  -24.8657    5.4955 H         1 UNK         0.0694 
    137 H137      -50.1709  -23.3843    9.3018 H         1 UNK         0.2989 
    138 H138      -47.8824  -23.7708   10.2735 H         1 UNK         0.1055 
    139 H139      -47.3889  -26.7933   10.2280 H         1 UNK         0.0806 
    140 H140      -46.1276  -25.5623   10.2222 H         1 UNK         0.0806 
    141 H141      -47.1923  -25.7232   11.6097 H         1 UNK         0.0806 
    142 H142      -47.5874  -25.6330    8.0373 H         1 UNK         0.3061 
    143 H143      -48.7554  -24.7390    5.7922 H         1 UNK         0.0734 
    144 H144      -47.5498  -21.9293    5.5625 H         1 UNK         0.0832 
    145 H145      -48.0403  -22.9418    4.2036 H         1 UNK         0.0832 
    146 H146      -49.2385  -22.3627    5.3502 H         1 UNK         0.0832 
    147 H147      -46.7345  -25.5593    5.5389 H         1 UNK         0.3156 
    148 H148      -43.4914  -24.4532    5.5668 H         1 UNK         0.0589 
    149 H149      -42.8821  -26.0985    7.3539 H         1 UNK         0.0808 
    150 H150      -43.4870  -24.6012    8.0418 H         1 UNK         0.0808 
    151 H151      -44.5240  -26.0171    7.9962 H         1 UNK         0.0808 
    152 H152      -44.8373  -27.0506    5.7682 H         1 UNK         0.3098 
    153 H153      -45.5021  -27.3513    2.3353 H         1 UNK         0.0720 
    154 H154      -43.0587  -27.8765    2.2811 H         1 UNK         0.0791 
    155 H155      -44.0193  -29.3423    2.3708 H         1 UNK         0.0791 
    156 H156      -43.1938  -28.7369    3.8081 H         1 UNK         0.0791 
    157 H157      -45.5461  -29.2788    4.4359 H         1 UNK         0.3028 
@<TRIPOS>BOND
     1    1    2 1    
     2    1   82 1    
     3    1   83 1    
     4    1   84 1    
     5    2    3 2    
     6    2    4 am   BACKBONE|DICT|INTERRES
     7    4    5 1    
     8    4   85 1    
     9    5    6 1    
    10    5   80 1    
    11    5   86 1    
    12    6    7 1    
    13    6   87 1    
    14    6   88 1    
    15    7    8 1    
    16    8    9 1    
    17    8   89 1    
    18    8   90 1    
    19    9   10 ar   
    20    9   14 ar   
    21   10   11 ar   
    22   10   91 1    
    23   11   12 ar   
    24   11   58 1    
    25   12   13 ar   
    26   12   92 1    
    27   13   14 ar   
    28   13   15 1    
    29   14   93 1    
    30   15   16 1    
    31   15   94 1    
    32   15   95 1    
    33   16   17 1    
    34   17   18 1    
    35   17   96 1    
    36   17   97 1    
    37   18   19 1    
    38   18   22 1    
    39   18   98 1    
    40   19   20 am   BACKBONE|DICT|INTERRES
    41   19   21 2    
    42   20   99 1    
    43   20  100 1    
    44   22   23 am   BACKBONE|DICT|INTERRES
    45   22  101 1    
    46   23   24 2    
    47   23   25 1    
    48   25   26 1    
    49   25   27 1    
    50   25  102 1    
    51   26  103 1    
    52   26  104 1    
    53   26  105 1    
    54   27   28 am   BACKBONE|DICT|INTERRES
    55   27  106 1    
    56   28   29 2    
    57   28   30 1    
    58   30   31 1    
    59   30   32 1    
    60   30  107 1    
    61   31  108 1    
    62   31  109 1    
    63   31  110 1    
    64   32   33 am   BACKBONE|DICT|INTERRES
    65   32  111 1    
    66   33   34 2    
    67   33   35 1    
    68   35   36 1    
    69   35   37 1    
    70   35  112 1    
    71   36  113 1    
    72   36  114 1    
    73   36  115 1    
    74   37   38 am   BACKBONE|DICT|INTERRES
    75   37  116 1    
    76   38   39 2    
    77   38   40 1    
    78   40   41 1    
    79   40   42 1    
    80   40  117 1    
    81   41  118 1    
    82   41  119 1    
    83   41  120 1    
    84   42   43 am   BACKBONE|DICT|INTERRES
    85   42  121 1    
    86   43   44 2    
    87   43   45 1    
    88   45   46 1    
    89   45   47 1    
    90   45  122 1    
    91   46  123 1    
    92   46  124 1    
    93   46  125 1    
    94   47   48 am   BACKBONE|DICT|INTERRES
    95   47  126 1    
    96   48   49 2    
    97   48   50 1    
    98   50   51 1    
    99   50   52 1    
   100   50  127 1    
   101   51  128 1    
   102   51  129 1    
   103   51  130 1    
   104   52   53 am   BACKBONE|DICT|INTERRES
   105   52  131 1    
   106   53   54 2    
   107   53   55 1    
   108   55   56 1    
   109   55   59 1    
   110   55  132 1    
   111   56   57 1    
   112   56  133 1    
   113   56  134 1    
   114   57   58 1    
   115   58  135 1    
   116   58  136 1    
   117   59   60 am   BACKBONE|DICT|INTERRES
   118   59  137 1    
   119   60   61 2    
   120   60   62 1    
   121   62   63 1    
   122   62   64 1    
   123   62  138 1    
   124   63  139 1    
   125   63  140 1    
   126   63  141 1    
   127   64   65 am   BACKBONE|DICT|INTERRES
   128   64  142 1    
   129   65   66 2    
   130   65   67 1    
   131   67   68 1    
   132   67   69 1    
   133   67  143 1    
   134   68  144 1    
   135   68  145 1    
   136   68  146 1    
   137   69   70 am   BACKBONE|DICT|INTERRES
   138   69  147 1    
   139   70   71 2    
   140   70   72 1    
   141   72   73 1    
   142   72   74 1    
   143   72  148 1    
   144   73  149 1    
   145   73  150 1    
   146   73  151 1    
   147   74   75 am   BACKBONE|DICT|INTERRES
   148   74  152 1    
   149   75   76 2    
   150   75   77 1    
   151   77   78 1    
   152   77   79 1    
   153   77  153 1    
   154   78  154 1    
   155   78  155 1    
   156   78  156 1    
   157   79   80 am   BACKBONE|DICT|INTERRES
   158   79  157 1    
   159   80   81 2    
@<TRIPOS>SUBSTRUCTURE
     1 UNK         1 GROUP             0       ****    0 ROOT    
