@<TRIPOS>MOLECULE
3R207
157   159    1
SMALL
USER_CHARGES


@<TRIPOS>ATOM
      1 CA        -56.1679  -22.8299    8.1110 C.3       0 UNK        -0.1975 
      2 C         -54.8458  -23.2686    8.7219 C.2       0 UNK         0.4852 
      3 O         -54.4588  -22.7570    9.7726 O.2       0 UNK        -0.5216 
      4 N         -54.1576  -24.2207    8.0784 N.am      1 UNK        -0.4461 
      5 CA        -52.8576  -24.7423    8.5064 C.3       1 UNK         0.0864 
      6 C6        -52.5729  -26.1400    7.8790 C.3       14 UNK        -0.0898 
      7 S7        -52.3764  -27.4078    9.1709 S.3       14 UNK        -0.2598 
      8 C8        -51.4478  -28.7167    8.3068 C.3       14 UNK         0.0286 
      9 C9        -50.9169  -29.7610    9.2838 C.ar      14 UNK        -0.0844 
     10 C10       -49.5536  -30.0744    9.3270 C.ar      14 UNK        -0.0881 
     11 C11       -49.0686  -31.0280   10.2282 C.ar      14 UNK        -0.0643 
     12 C12       -49.9657  -31.6724   11.0893 C.ar      14 UNK        -0.0930 
     13 C13       -51.3374  -31.3914   11.0449 C.ar      14 UNK        -0.0827 
     14 C14       -51.7980  -30.4284   10.1386 C.ar      14 UNK        -0.1249 
     15 C15       -52.2835  -32.1343   11.9955 C.3       14 UNK         0.0141 
     16 S16       -54.0330  -32.2042   11.4504 S.3       14 UNK        -0.2313 
     17 C17       -54.9522  -31.5420   12.8852 C.3       14 UNK        -0.0915 
     18 CA        -56.1471  -30.6387   12.4712 C.3       13 UNK         0.0968 
     19 C         -57.0488  -30.3210   13.6976 C.2       13 UNK         0.5732 
     20 N         -56.9681  -29.1425   14.3004 N.am      13 UNK        -0.7310 
     21 O         -57.8452  -31.1639   14.1045 O.2       13 UNK        -0.5035 
     22 N         -55.7265  -29.4638   11.6856 N.am      13 UNK        -0.4233 
     23 C         -56.5549  -28.7192   10.9383 C.2       13 UNK         0.4989 
     24 O         -57.7729  -28.8987   10.8779 O.2       13 UNK        -0.4996 
     25 CA        -55.8934  -27.6235   10.0804 C.3       12 UNK         0.0216 
     26 CB        -56.8822  -26.8749    9.1594 C.3       12 UNK        -0.1964 
     27 N         -55.0885  -26.6925   10.8798 N.am      12 UNK        -0.4276 
     28 C         -55.5187  -25.8017   11.7861 C.2       12 UNK         0.5020 
     29 O         -56.7049  -25.5945   12.0488 O.2       12 UNK        -0.5489 
     30 CA        -54.4110  -25.0441   12.5507 C.3       11 UNK         0.0294 
     31 CB        -54.9638  -24.0964   13.6354 C.3       11 UNK        -0.2019 
     32 N         -53.4076  -25.9493   13.1266 N.am      11 UNK        -0.4493 
     33 C         -53.6492  -26.9822   13.9502 C.2       11 UNK         0.4932 
     34 O         -54.7662  -27.3013   14.3553 O.2       11 UNK        -0.5029 
     35 CA        -52.4484  -27.8419   14.3595 C.3       10 UNK         0.0280 
     36 CB        -52.0542  -28.7637   13.1988 C.3       10 UNK        -0.1976 
     37 N         -51.2829  -27.0678   14.7795 N.am      10 UNK        -0.4242 
     38 C         -51.2065  -26.3030   15.8772 C.2       10 UNK         0.5072 
     39 O         -52.1325  -26.1385   16.6724 O.2       10 UNK        -0.5224 
     40 CA        -49.8567  -25.6114   16.1366 C.3       9 UNK         0.0343 
     41 CB        -48.8463  -26.5892   16.7590 C.3       9 UNK        -0.2003 
     42 N         -49.2935  -25.0384   14.9140 N.am      9 UNK        -0.4272 
     43 C         -49.7487  -23.9199   14.3318 C.2       9 UNK         0.4988 
     44 O         -50.6257  -23.2020   14.8129 O.2       9 UNK        -0.5108 
     45 CA        -49.1368  -23.5459   12.9730 C.3       8 UNK         0.0248 
     46 CB        -47.8421  -22.7383   13.1561 C.3       8 UNK        -0.2001 
     47 N         -48.8635  -24.7167   12.1395 N.am      8 UNK        -0.4140 
     48 C         -49.8016  -25.5045   11.5996 C.2       8 UNK         0.5028 
     49 O         -51.0096  -25.2695   11.6537 O.2       8 UNK        -0.5428 
     50 CA        -49.3101  -26.7479   10.8470 C.3       7 UNK         0.0264 
     51 CB        -48.9921  -26.4036    9.3880 C.3       7 UNK        -0.1988 
     52 N         -48.1297  -27.3575   11.4447 N.am      7 UNK        -0.4454 
     53 C         -48.0772  -27.9360   12.6498 C.2       7 UNK         0.5027 
     54 O         -49.0086  -27.9492   13.4506 O.2       7 UNK        -0.5083 
     55 CA        -46.7265  -28.5626   13.0362 C.3       6 UNK         0.0844 
     56 C56       -46.5722  -29.9921   12.4523 C.3       14 UNK        -0.0967 
     57 S57       -46.4460  -30.0664   10.6269 S.3       14 UNK        -0.2604 
     58 C58       -47.5934  -31.4252   10.2098 C.3       14 UNK         0.0134 
     59 N         -45.6103  -27.6720   12.6947 N.am      6 UNK        -0.4116 
     60 C         -45.4139  -26.4642   13.2482 C.2       5 UNK         0.5034 
     61 O         -46.1013  -26.0067   14.1626 O.2       5 UNK        -0.5045 
     62 CA        -44.2961  -25.5964   12.6433 C.3       5 UNK         0.0224 
     63 CB        -42.9257  -26.0018   13.2097 C.3       5 UNK        -0.1978 
     64 N         -44.2551  -25.6280   11.1752 N.am      5 UNK        -0.4737 
     65 C         -45.2527  -25.2187   10.3804 C.2       4 UNK         0.5027 
     66 O         -46.3261  -24.7824   10.8042 O.2       4 UNK        -0.5211 
     67 CA        -45.0348  -25.3542    8.8669 C.3       4 UNK         0.0297 
     68 CB        -44.9372  -26.8401    8.4604 C.3       4 UNK        -0.1993 
     69 N         -46.1637  -24.7242    8.1870 N.am      4 UNK        -0.4486 
     70 C         -46.2628  -24.4161    6.8903 C.2       3 UNK         0.4961 
     71 O         -45.3338  -24.5460    6.0921 O.2       3 UNK        -0.5105 
     72 CA        -47.6289  -23.9143    6.3705 C.3       3 UNK         0.0299 
     73 CB        -48.2250  -24.9301    5.3803 C.3       3 UNK        -0.1972 
     74 N         -48.6329  -23.6487    7.4090 N.am      3 UNK        -0.4305 
     75 C         -48.6537  -22.5785    8.2133 C.2       2 UNK         0.5006 
     76 O         -47.7794  -21.7112    8.1921 O.2       2 UNK        -0.5106 
     77 CA        -49.8050  -22.4514    9.2373 C.3       2 UNK         0.0296 
     78 CB        -50.4266  -21.0391    9.2183 C.3       2 UNK        -0.2002 
     79 N         -50.8644  -23.4770    9.1905 N.am      2 UNK        -0.4032 
     80 C         -51.7468  -23.7116    8.2064 C.2       1 UNK         0.5000 
     81 O         -51.7074  -23.1698    7.0997 O.2       1 UNK        -0.5238 
     82 H82       -56.3834  -23.3569    7.1814 H         1 UNK         0.0889 
     83 H83       -56.1471  -21.7612    7.8988 H         1 UNK         0.0889 
     84 H84       -56.9835  -23.0243    8.8074 H         1 UNK         0.0889 
     85 H85       -54.4997  -24.5673    7.1940 H         1 UNK         0.3028 
     86 H86       -52.9092  -24.8417    9.5927 H         1 UNK         0.0864 
     87 H87       -51.6876  -26.1361    7.2403 H         1 UNK         0.0720 
     88 H88       -53.3900  -26.4630    7.2316 H         1 UNK         0.0720 
     89 H89       -50.6295  -28.2715    7.7399 H         1 UNK         0.0814 
     90 H90       -52.1018  -29.2018    7.5812 H         1 UNK         0.0814 
     91 H91       -48.8640  -29.5872    8.6523 H         1 UNK         0.1469 
     92 H92       -49.5979  -32.4178   11.7812 H         1 UNK         0.1381 
     93 H93       -52.8481  -30.1802   10.0919 H         1 UNK         0.1206 
     94 H94       -52.2067  -31.6891   12.9865 H         1 UNK         0.0813 
     95 H95       -51.9399  -33.1638   12.1070 H         1 UNK         0.0813 
     96 H96       -54.2845  -30.9980   13.5531 H         1 UNK         0.0638 
     97 H97       -55.3070  -32.4023   13.4559 H         1 UNK         0.0638 
     98 H98       -56.7720  -31.2385   11.8061 H         1 UNK         0.0568 
     99 H99       -57.5685  -28.9561   15.0868 H         1 UNK         0.3450 
    100 H100      -56.2618  -28.4605   14.0411 H         1 UNK         0.3450 
    101 H101      -54.7413  -29.2563   11.6853 H         1 UNK         0.2987 
    102 H102      -55.1962  -28.1472    9.4256 H         1 UNK         0.0766 
    103 H103      -56.3671  -26.1448    8.5362 H         1 UNK         0.0798 
    104 H104      -57.6539  -26.3507    9.7235 H         1 UNK         0.0798 
    105 H105      -57.3899  -27.5697    8.4895 H         1 UNK         0.0798 
    106 H106      -54.0882  -26.7793   10.7510 H         1 UNK         0.3198 
    107 H107      -53.8868  -24.4308   11.8170 H         1 UNK         0.0843 
    108 H108      -55.5263  -24.6370   14.3972 H         1 UNK         0.0831 
    109 H109      -55.6338  -23.3551   13.1984 H         1 UNK         0.0831 
    110 H110      -54.1596  -23.5542   14.1333 H         1 UNK         0.0831 
    111 H111      -52.4531  -25.7901   12.8094 H         1 UNK         0.3133 
    112 H112      -52.7547  -28.4661   15.2015 H         1 UNK         0.0566 
    113 H113      -51.2859  -29.4759   13.4996 H         1 UNK         0.0814 
    114 H114      -52.9086  -29.3330   12.8403 H         1 UNK         0.0814 
    115 H115      -51.6709  -28.2016   12.3487 H         1 UNK         0.0814 
    116 H116      -50.4353  -27.2104   14.2322 H         1 UNK         0.3091 
    117 H117      -50.0263  -24.8032   16.8515 H         1 UNK         0.0702 
    118 H118      -47.9071  -26.0891   16.9959 H         1 UNK         0.0785 
    119 H119      -48.6205  -27.4220   16.0920 H         1 UNK         0.0785 
    120 H120      -49.2336  -27.0103   17.6876 H         1 UNK         0.0785 
    121 H121      -48.5572  -25.5614   14.4578 H         1 UNK         0.2998 
    122 H122      -49.8631  -22.9178   12.4538 H         1 UNK         0.0697 
    123 H123      -47.0689  -23.3238   13.6552 H         1 UNK         0.0825 
    124 H124      -48.0192  -21.8465   13.7588 H         1 UNK         0.0825 
    125 H125      -47.4422  -22.4086   12.1968 H         1 UNK         0.0825 
    126 H126      -47.8877  -24.9254   11.9441 H         1 UNK         0.3029 
    127 H127      -50.1011  -27.4958   10.8715 H         1 UNK         0.0897 
    128 H128      -48.2883  -25.5825    9.3349 H         1 UNK         0.0792 
    129 H129      -49.8819  -26.0911    8.8503 H         1 UNK         0.0792 
    130 H130      -48.5656  -27.2486    8.8492 H         1 UNK         0.0792 
    131 H131      -47.2997  -27.3931   10.8733 H         1 UNK         0.3086 
    132 H132      -46.7292  -28.6611   14.1242 H         1 UNK         0.0583 
    133 H133      -45.6772  -30.4576   12.8676 H         1 UNK         0.1020 
    134 H134      -47.4027  -30.6181   12.7859 H         1 UNK         0.1020 
    135 H135      -47.3494  -31.7795    9.2074 H         1 UNK         0.0694 
    136 H136      -47.4061  -32.2679   10.8772 H         1 UNK         0.0694 
    137 H137      -45.0040  -27.9717   11.9454 H         1 UNK         0.2989 
    138 H138      -44.4955  -24.5647   12.9426 H         1 UNK         0.1055 
    139 H139      -42.9300  -25.9707   14.3003 H         1 UNK         0.0806 
    140 H140      -42.1412  -25.3241   12.8727 H         1 UNK         0.0806 
    141 H141      -42.6460  -27.0137   12.9138 H         1 UNK         0.0806 
    142 H142      -43.4044  -25.9711   10.7512 H         1 UNK         0.3061 
    143 H143      -44.1164  -24.8284    8.5989 H         1 UNK         0.0734 
    144 H144      -45.8460  -27.3880    8.7126 H         1 UNK         0.0832 
    145 H145      -44.7716  -26.9512    7.3889 H         1 UNK         0.0832 
    146 H146      -44.1062  -27.3389    8.9596 H         1 UNK         0.0832 
    147 H147      -46.9262  -24.4950    8.8110 H         1 UNK         0.3156 
    148 H148      -47.4437  -22.9837    5.8301 H         1 UNK         0.0589 
    149 H149      -48.4297  -25.8885    5.8597 H         1 UNK         0.0808 
    150 H150      -49.1564  -24.5642    4.9468 H         1 UNK         0.0808 
    151 H151      -47.5402  -25.1205    4.5526 H         1 UNK         0.0808 
    152 H152      -49.4120  -24.2876    7.4548 H         1 UNK         0.3098 
    153 H153      -49.3234  -22.5740   10.2066 H         1 UNK         0.0720 
    154 H154      -51.1879  -20.9309    9.9912 H         1 UNK         0.0791 
    155 H155      -50.8909  -20.8147    8.2571 H         1 UNK         0.0791 
    156 H156      -49.6727  -20.2722    9.4013 H         1 UNK         0.0791 
    157 H157      -50.9909  -23.9969   10.0547 H         1 UNK         0.3028 
@<TRIPOS>BOND
     1    1    2 1    
     2    1   82 1    
     3    1   83 1    
     4    1   84 1    
     5    2    3 2    
     6    2    4 am   BACKBONE|DICT|INTERRES
     7    4    5 1    
     8    4   85 1    
     9    5    6 1    
    10    5   80 1    
    11    5   86 1    
    12    6    7 1    
    13    6   87 1    
    14    6   88 1    
    15    7    8 1    
    16    8    9 1    
    17    8   89 1    
    18    8   90 1    
    19    9   10 ar   
    20    9   14 ar   
    21   10   11 ar   
    22   10   91 1    
    23   11   12 ar   
    24   11   58 1    
    25   12   13 ar   
    26   12   92 1    
    27   13   14 ar   
    28   13   15 1    
    29   14   93 1    
    30   15   16 1    
    31   15   94 1    
    32   15   95 1    
    33   16   17 1    
    34   17   18 1    
    35   17   96 1    
    36   17   97 1    
    37   18   19 1    
    38   18   22 1    
    39   18   98 1    
    40   19   20 am   BACKBONE|DICT|INTERRES
    41   19   21 2    
    42   20   99 1    
    43   20  100 1    
    44   22   23 am   BACKBONE|DICT|INTERRES
    45   22  101 1    
    46   23   24 2    
    47   23   25 1    
    48   25   26 1    
    49   25   27 1    
    50   25  102 1    
    51   26  103 1    
    52   26  104 1    
    53   26  105 1    
    54   27   28 am   BACKBONE|DICT|INTERRES
    55   27  106 1    
    56   28   29 2    
    57   28   30 1    
    58   30   31 1    
    59   30   32 1    
    60   30  107 1    
    61   31  108 1    
    62   31  109 1    
    63   31  110 1    
    64   32   33 am   BACKBONE|DICT|INTERRES
    65   32  111 1    
    66   33   34 2    
    67   33   35 1    
    68   35   36 1    
    69   35   37 1    
    70   35  112 1    
    71   36  113 1    
    72   36  114 1    
    73   36  115 1    
    74   37   38 am   BACKBONE|DICT|INTERRES
    75   37  116 1    
    76   38   39 2    
    77   38   40 1    
    78   40   41 1    
    79   40   42 1    
    80   40  117 1    
    81   41  118 1    
    82   41  119 1    
    83   41  120 1    
    84   42   43 am   BACKBONE|DICT|INTERRES
    85   42  121 1    
    86   43   44 2    
    87   43   45 1    
    88   45   46 1    
    89   45   47 1    
    90   45  122 1    
    91   46  123 1    
    92   46  124 1    
    93   46  125 1    
    94   47   48 am   BACKBONE|DICT|INTERRES
    95   47  126 1    
    96   48   49 2    
    97   48   50 1    
    98   50   51 1    
    99   50   52 1    
   100   50  127 1    
   101   51  128 1    
   102   51  129 1    
   103   51  130 1    
   104   52   53 am   BACKBONE|DICT|INTERRES
   105   52  131 1    
   106   53   54 2    
   107   53   55 1    
   108   55   56 1    
   109   55   59 1    
   110   55  132 1    
   111   56   57 1    
   112   56  133 1    
   113   56  134 1    
   114   57   58 1    
   115   58  135 1    
   116   58  136 1    
   117   59   60 am   BACKBONE|DICT|INTERRES
   118   59  137 1    
   119   60   61 2    
   120   60   62 1    
   121   62   63 1    
   122   62   64 1    
   123   62  138 1    
   124   63  139 1    
   125   63  140 1    
   126   63  141 1    
   127   64   65 am   BACKBONE|DICT|INTERRES
   128   64  142 1    
   129   65   66 2    
   130   65   67 1    
   131   67   68 1    
   132   67   69 1    
   133   67  143 1    
   134   68  144 1    
   135   68  145 1    
   136   68  146 1    
   137   69   70 am   BACKBONE|DICT|INTERRES
   138   69  147 1    
   139   70   71 2    
   140   70   72 1    
   141   72   73 1    
   142   72   74 1    
   143   72  148 1    
   144   73  149 1    
   145   73  150 1    
   146   73  151 1    
   147   74   75 am   BACKBONE|DICT|INTERRES
   148   74  152 1    
   149   75   76 2    
   150   75   77 1    
   151   77   78 1    
   152   77   79 1    
   153   77  153 1    
   154   78  154 1    
   155   78  155 1    
   156   78  156 1    
   157   79   80 am   BACKBONE|DICT|INTERRES
   158   79  157 1    
   159   80   81 2    
@<TRIPOS>SUBSTRUCTURE
     1 UNK         1 GROUP             0       ****    0 ROOT    
