@<TRIPOS>MOLECULE
3R207
157   159    1
SMALL
USER_CHARGES


@<TRIPOS>ATOM
      1 CA        -50.2548  -29.7059    0.7676 C.3       0 UNK        -0.1975 
      2 C         -51.0776  -28.8401    1.7099 C.2       0 UNK         0.4852 
      3 O         -51.7834  -27.9395    1.2546 O.2       0 UNK        -0.5216 
      4 N         -50.9908  -29.1041    3.0206 N.am      1 UNK        -0.4461 
      5 CA        -51.6964  -28.3712    4.0807 C.3       1 UNK         0.0864 
      6 C6        -51.8005  -29.2011    5.3899 C.3       14 UNK        -0.0898 
      7 S7        -50.2135  -29.8981    5.9735 S.3       14 UNK        -0.2598 
      8 C8        -49.7291  -28.6842    7.2367 C.3       14 UNK         0.0286 
      9 C9        -50.0378  -29.1442    8.6512 C.ar      14 UNK        -0.0844 
     10 C10       -49.0231  -29.6791    9.4474 C.ar      14 UNK        -0.0881 
     11 C11       -49.2639  -30.0065   10.7843 C.ar      14 UNK        -0.0643 
     12 C12       -50.5427  -29.8097   11.3207 C.ar      14 UNK        -0.0930 
     13 C13       -51.5746  -29.2947   10.5249 C.ar      14 UNK        -0.0827 
     14 C14       -51.3137  -28.9666    9.1909 C.ar      14 UNK        -0.1249 
     15 C15       -52.9565  -29.0243   11.1063 C.3       14 UNK         0.0141 
     16 S16       -53.7878  -30.5334   11.6932 S.3       14 UNK        -0.2313 
     17 C17       -55.5401  -30.1539   11.3282 C.3       14 UNK        -0.0915 
     18 CA        -56.2799  -29.3234   12.4203 C.3       13 UNK         0.0968 
     19 C         -56.5194  -30.1142   13.7369 C.2       13 UNK         0.5732 
     20 N         -56.2973  -29.5611   14.9204 N.am      13 UNK        -0.7310 
     21 O         -56.9556  -31.2622   13.6893 O.2       13 UNK        -0.5035 
     22 N         -55.7178  -27.9664   12.5642 N.am      13 UNK        -0.4233 
     23 C         -55.9415  -26.9865   11.6750 C.2       13 UNK         0.4989 
     24 O         -56.7689  -27.0775   10.7655 O.2       13 UNK        -0.4996 
     25 CA        -55.0531  -25.7267   11.7519 C.3       12 UNK         0.0216 
     26 CB        -55.6020  -24.5454   10.9220 C.3       12 UNK        -0.1964 
     27 N         -54.7184  -25.2946   13.1097 N.am      12 UNK        -0.4276 
     28 C         -55.5540  -24.8632   14.0644 C.2       12 UNK         0.5020 
     29 O         -56.7781  -24.7965   13.9350 O.2       12 UNK        -0.5489 
     30 CA        -54.8866  -24.4465   15.3924 C.3       11 UNK         0.0294 
     31 CB        -55.9004  -24.2113   16.5323 C.3       11 UNK        -0.2019 
     32 N         -53.8382  -25.3852   15.8139 N.am      11 UNK        -0.4493 
     33 C         -53.9868  -26.7002   16.0357 C.2       11 UNK         0.4932 
     34 O         -55.0680  -27.2794   15.9447 O.2       11 UNK        -0.5029 
     35 CA        -52.7369  -27.5381   16.3624 C.3       10 UNK         0.0280 
     36 CB        -52.5163  -28.6052   15.2753 C.3       10 UNK        -0.1976 
     37 N         -51.5130  -26.7469   16.5084 N.am      10 UNK        -0.4242 
     38 C         -51.1909  -26.0193   17.5865 C.2       10 UNK         0.5072 
     39 O         -51.8769  -25.9665   18.6080 O.2       10 UNK        -0.5224 
     40 CA        -49.9007  -25.1836   17.5012 C.3       9 UNK         0.0343 
     41 CB        -48.6745  -26.0472   17.8356 C.3       9 UNK        -0.2003 
     42 N         -49.7087  -24.5342   16.1994 N.am      9 UNK        -0.4272 
     43 C         -50.5370  -23.6182   15.6734 C.2       9 UNK         0.4988 
     44 O         -51.5571  -23.2145   16.2321 O.2       9 UNK        -0.5108 
     45 CA        -50.2019  -23.1002   14.2642 C.3       8 UNK         0.0248 
     46 CB        -49.0241  -22.1130   14.2970 C.3       8 UNK        -0.2001 
     47 N         -49.9142  -24.1864   13.3278 N.am      8 UNK        -0.4140 
     48 C         -50.7901  -25.1393   12.9782 C.2       8 UNK         0.5028 
     49 O         -51.9653  -25.1707   13.3434 O.2       8 UNK        -0.5428 
     50 CA        -50.2454  -26.2855   12.1203 C.3       7 UNK         0.0264 
     51 CB        -50.1829  -25.8877   10.6366 C.3       7 UNK        -0.1988 
     52 N         -48.9347  -26.7382   12.5876 N.am      7 UNK        -0.4454 
     53 C         -48.7261  -27.3552   13.7614 C.2       7 UNK         0.5027 
     54 O         -49.6225  -27.6243   14.5584 O.2       7 UNK        -0.5083 
     55 CA        -47.2697  -27.6838   14.1429 C.3       6 UNK         0.0844 
     56 C56       -46.8527  -29.1098   13.7103 C.3       14 UNK        -0.0967 
     57 S57       -46.7895  -29.3796   11.9020 S.3       14 UNK        -0.2604 
     58 C58       -48.1365  -30.5857   11.6282 C.3       14 UNK         0.0134 
     59 N         -46.3338  -26.6478   13.6998 N.am      6 UNK        -0.4116 
     60 C         -46.3081  -25.4031   14.1998 C.2       5 UNK         0.5034 
     61 O         -47.0361  -25.0160   15.1142 O.2       5 UNK        -0.5045 
     62 CA        -45.3489  -24.4049   13.5309 C.3       5 UNK         0.0224 
     63 CB        -43.9366  -24.5286   14.1243 C.3       5 UNK        -0.1978 
     64 N         -45.2883  -24.5476   12.0717 N.am      5 UNK        -0.4737 
     65 C         -46.3355  -24.3834   11.2539 C.2       4 UNK         0.5027 
     66 O         -47.4728  -24.1024   11.6441 O.2       4 UNK        -0.5211 
     67 CA        -46.0799  -24.6196    9.7624 C.3       4 UNK         0.0297 
     68 CB        -45.9609  -26.1272    9.4622 C.3       4 UNK        -0.1993 
     69 N         -47.1966  -24.0573    9.0125 N.am      4 UNK        -0.4486 
     70 C         -47.1884  -23.7136    7.7220 C.2       3 UNK         0.4961 
     71 O         -46.1893  -23.7510    6.9995 O.2       3 UNK        -0.5105 
     72 CA        -48.5335  -23.2278    7.1495 C.3       3 UNK         0.0299 
     73 CB        -48.5811  -21.6916    7.1180 C.3       3 UNK        -0.1972 
     74 N         -48.8197  -23.7501    5.8074 N.am      3 UNK        -0.4305 
     75 C         -48.8665  -25.0484    5.4753 C.2       2 UNK         0.5006 
     76 O         -48.6176  -25.9670    6.2558 O.2       2 UNK        -0.5106 
     77 CA        -49.2294  -25.3740    4.0158 C.3       2 UNK         0.0296 
     78 CB        -47.9671  -25.3834    3.1378 C.3       2 UNK        -0.2002 
     79 N         -49.9070  -26.6687    3.8857 N.am      2 UNK        -0.4032 
     80 C         -51.1460  -26.9439    4.3233 C.2       1 UNK         0.5000 
     81 O         -51.8686  -26.1136    4.8787 O.2       1 UNK        -0.5238 
     82 H82       -49.6800  -30.4606    1.3042 H         1 UNK         0.0889 
     83 H83       -49.5582  -29.0878    0.2019 H         1 UNK         0.0889 
     84 H84       -50.9084  -30.2169    0.0613 H         1 UNK         0.0889 
     85 H85       -50.4005  -29.8587    3.3439 H         1 UNK         0.3028 
     86 H86       -52.7202  -28.2225    3.7294 H         1 UNK         0.0864 
     87 H87       -52.2751  -28.6231    6.1846 H         1 UNK         0.0720 
     88 H88       -52.4697  -30.0453    5.2173 H         1 UNK         0.0720 
     89 H89       -50.2315  -27.7342    7.0567 H         1 UNK         0.0814 
     90 H90       -48.6613  -28.4851    7.1336 H         1 UNK         0.0814 
     91 H91       -48.0322  -29.8165    9.0361 H         1 UNK         0.1469 
     92 H92       -50.7369  -30.0496   12.3572 H         1 UNK         0.1381 
     93 H93       -52.0953  -28.5405    8.5776 H         1 UNK         0.1206 
     94 H94       -53.5805  -28.5307   10.3604 H         1 UNK         0.0813 
     95 H95       -52.8722  -28.3266   11.9382 H         1 UNK         0.0813 
     96 H96       -56.0542  -31.1035   11.1702 H         1 UNK         0.0638 
     97 H97       -55.6006  -29.6464   10.3648 H         1 UNK         0.0638 
     98 H98       -57.3008  -29.1914   12.0569 H         1 UNK         0.0568 
     99 H99       -56.4845  -30.1156   15.7398 H         1 UNK         0.3450 
    100 H100      -55.9529  -28.6143   15.0466 H         1 UNK         0.3450 
    101 H101      -55.0640  -27.8251   13.3195 H         1 UNK         0.2987 
    102 H102      -54.1029  -26.0152   11.3003 H         1 UNK         0.0766 
    103 H103      -54.9338  -23.6854   10.9665 H         1 UNK         0.0798 
    104 H104      -56.5840  -24.2265   11.2726 H         1 UNK         0.0798 
    105 H105      -55.7050  -24.8175    9.8708 H         1 UNK         0.0798 
    106 H106      -53.7173  -25.2847   13.3213 H         1 UNK         0.3198 
    107 H107      -54.3839  -23.4981   15.1956 H         1 UNK         0.0843 
    108 H108      -56.4778  -25.1096   16.7532 H         1 UNK         0.0831 
    109 H109      -56.6100  -23.4267   16.2672 H         1 UNK         0.0831 
    110 H110      -55.4002  -23.8993   17.4490 H         1 UNK         0.0831 
    111 H111      -52.9060  -24.9935   15.8772 H         1 UNK         0.3133 
    112 H112      -52.9310  -28.0524   17.3057 H         1 UNK         0.0566 
    113 H113      -52.3243  -28.1511   14.3029 H         1 UNK         0.0814 
    114 H114      -51.6683  -29.2463   15.5162 H         1 UNK         0.0814 
    115 H115      -53.3862  -29.2542   15.1691 H         1 UNK         0.0814 
    116 H116      -50.8539  -26.7964   15.7344 H         1 UNK         0.3091 
    117 H117      -49.9717  -24.3930   18.2510 H         1 UNK         0.0702 
    118 H118      -47.7610  -25.4522   17.8478 H         1 UNK         0.0785 
    119 H119      -48.5402  -26.8523   17.1131 H         1 UNK         0.0785 
    120 H120      -48.7765  -26.5056   18.8202 H         1 UNK         0.0785 
    121 H121      -48.8648  -24.7812   15.6887 H         1 UNK         0.2998 
    122 H122      -51.0789  -22.5683   13.8891 H         1 UNK         0.0697 
    123 H123      -48.1068  -22.5836   14.6507 H         1 UNK         0.0825 
    124 H124      -49.2375  -21.2745   14.9612 H         1 UNK         0.0825 
    125 H125      -48.8258  -21.7011   13.3072 H         1 UNK         0.0825 
    126 H126      -48.9788  -24.2236   12.9321 H         1 UNK         0.3029 
    127 H127      -50.9319  -27.1243   12.2227 H         1 UNK         0.0897 
    128 H128      -51.1871  -25.7516   10.2337 H         1 UNK         0.0792 
    129 H129      -49.6945  -26.6550   10.0369 H         1 UNK         0.0792 
    130 H130      -49.6459  -24.9532   10.4834 H         1 UNK         0.0792 
    131 H131      -48.1408  -26.5261   12.0026 H         1 UNK         0.3086 
    132 H132      -47.2359  -27.6780   15.2345 H         1 UNK         0.0583 
    133 H133      -45.8595  -29.3258   14.1070 H         1 UNK         0.1020 
    134 H134      -47.5060  -29.8439   14.1843 H         1 UNK         0.1020 
    135 H135      -47.7216  -31.4509   11.1092 H         1 UNK         0.0694 
    136 H136      -48.5245  -30.9664   12.5732 H         1 UNK         0.0694 
    137 H137      -45.7124  -26.8882   12.9417 H         1 UNK         0.2989 
    138 H138      -45.7245  -23.4025   13.7491 H         1 UNK         0.1055 
    139 H139      -43.9579  -24.4097   15.2087 H         1 UNK         0.0806 
    140 H140      -43.2719  -23.7595   13.7304 H         1 UNK         0.0806 
    141 H141      -43.4895  -25.5006   13.9119 H         1 UNK         0.0806 
    142 H142      -44.3889  -24.7791   11.6731 H         1 UNK         0.3061 
    143 H143      -45.1582  -24.1061    9.4808 H         1 UNK         0.0734 
    144 H144      -45.1366  -26.5804   10.0140 H         1 UNK         0.0832 
    145 H145      -45.7740  -26.3072    8.4033 H         1 UNK         0.0832 
    146 H146      -46.8707  -26.6659    9.7316 H         1 UNK         0.0832 
    147 H147      -48.0265  -23.9126    9.5743 H         1 UNK         0.3156 
    148 H148      -49.3340  -23.5814    7.8031 H         1 UNK         0.0589 
    149 H149      -47.8254  -21.2795    6.4478 H         1 UNK         0.0808 
    150 H150      -49.5558  -21.3289    6.7910 H         1 UNK         0.0808 
    151 H151      -48.3986  -21.2742    8.1093 H         1 UNK         0.0808 
    152 H152      -48.9966  -23.0631    5.0891 H         1 UNK         0.3098 
    153 H153      -49.9077  -24.6021    3.6457 H         1 UNK         0.0720 
    154 H154      -48.2112  -25.5701    2.0918 H         1 UNK         0.0791 
    155 H155      -47.2587  -26.1478    3.4604 H         1 UNK         0.0791 
    156 H156      -47.4509  -24.4234    3.1823 H         1 UNK         0.0791 
    157 H157      -49.3755  -27.4198    3.4724 H         1 UNK         0.3028 
@<TRIPOS>BOND
     1    1    2 1    
     2    1   82 1    
     3    1   83 1    
     4    1   84 1    
     5    2    3 2    
     6    2    4 am   BACKBONE|DICT|INTERRES
     7    4    5 1    
     8    4   85 1    
     9    5    6 1    
    10    5   80 1    
    11    5   86 1    
    12    6    7 1    
    13    6   87 1    
    14    6   88 1    
    15    7    8 1    
    16    8    9 1    
    17    8   89 1    
    18    8   90 1    
    19    9   10 ar   
    20    9   14 ar   
    21   10   11 ar   
    22   10   91 1    
    23   11   12 ar   
    24   11   58 1    
    25   12   13 ar   
    26   12   92 1    
    27   13   14 ar   
    28   13   15 1    
    29   14   93 1    
    30   15   16 1    
    31   15   94 1    
    32   15   95 1    
    33   16   17 1    
    34   17   18 1    
    35   17   96 1    
    36   17   97 1    
    37   18   19 1    
    38   18   22 1    
    39   18   98 1    
    40   19   20 am   BACKBONE|DICT|INTERRES
    41   19   21 2    
    42   20   99 1    
    43   20  100 1    
    44   22   23 am   BACKBONE|DICT|INTERRES
    45   22  101 1    
    46   23   24 2    
    47   23   25 1    
    48   25   26 1    
    49   25   27 1    
    50   25  102 1    
    51   26  103 1    
    52   26  104 1    
    53   26  105 1    
    54   27   28 am   BACKBONE|DICT|INTERRES
    55   27  106 1    
    56   28   29 2    
    57   28   30 1    
    58   30   31 1    
    59   30   32 1    
    60   30  107 1    
    61   31  108 1    
    62   31  109 1    
    63   31  110 1    
    64   32   33 am   BACKBONE|DICT|INTERRES
    65   32  111 1    
    66   33   34 2    
    67   33   35 1    
    68   35   36 1    
    69   35   37 1    
    70   35  112 1    
    71   36  113 1    
    72   36  114 1    
    73   36  115 1    
    74   37   38 am   BACKBONE|DICT|INTERRES
    75   37  116 1    
    76   38   39 2    
    77   38   40 1    
    78   40   41 1    
    79   40   42 1    
    80   40  117 1    
    81   41  118 1    
    82   41  119 1    
    83   41  120 1    
    84   42   43 am   BACKBONE|DICT|INTERRES
    85   42  121 1    
    86   43   44 2    
    87   43   45 1    
    88   45   46 1    
    89   45   47 1    
    90   45  122 1    
    91   46  123 1    
    92   46  124 1    
    93   46  125 1    
    94   47   48 am   BACKBONE|DICT|INTERRES
    95   47  126 1    
    96   48   49 2    
    97   48   50 1    
    98   50   51 1    
    99   50   52 1    
   100   50  127 1    
   101   51  128 1    
   102   51  129 1    
   103   51  130 1    
   104   52   53 am   BACKBONE|DICT|INTERRES
   105   52  131 1    
   106   53   54 2    
   107   53   55 1    
   108   55   56 1    
   109   55   59 1    
   110   55  132 1    
   111   56   57 1    
   112   56  133 1    
   113   56  134 1    
   114   57   58 1    
   115   58  135 1    
   116   58  136 1    
   117   59   60 am   BACKBONE|DICT|INTERRES
   118   59  137 1    
   119   60   61 2    
   120   60   62 1    
   121   62   63 1    
   122   62   64 1    
   123   62  138 1    
   124   63  139 1    
   125   63  140 1    
   126   63  141 1    
   127   64   65 am   BACKBONE|DICT|INTERRES
   128   64  142 1    
   129   65   66 2    
   130   65   67 1    
   131   67   68 1    
   132   67   69 1    
   133   67  143 1    
   134   68  144 1    
   135   68  145 1    
   136   68  146 1    
   137   69   70 am   BACKBONE|DICT|INTERRES
   138   69  147 1    
   139   70   71 2    
   140   70   72 1    
   141   72   73 1    
   142   72   74 1    
   143   72  148 1    
   144   73  149 1    
   145   73  150 1    
   146   73  151 1    
   147   74   75 am   BACKBONE|DICT|INTERRES
   148   74  152 1    
   149   75   76 2    
   150   75   77 1    
   151   77   78 1    
   152   77   79 1    
   153   77  153 1    
   154   78  154 1    
   155   78  155 1    
   156   78  156 1    
   157   79   80 am   BACKBONE|DICT|INTERRES
   158   79  157 1    
   159   80   81 2    
@<TRIPOS>SUBSTRUCTURE
     1 UNK         1 GROUP             0       ****    0 ROOT    
