@<TRIPOS>MOLECULE
3R207
157   159    1
SMALL
USER_CHARGES


@<TRIPOS>ATOM
      1 CA        -46.6717  -26.6182    4.8185 C.3       0 UNK        -0.1975 
      2 C         -46.6569  -27.6487    5.9461 C.2       0 UNK         0.4852 
      3 O         -45.5764  -28.0506    6.3749 O.2       0 UNK        -0.5216 
      4 N         -47.8065  -28.1248    6.4473 N.am      1 UNK        -0.4461 
      5 CA        -49.1805  -27.7319    6.1016 C.3       1 UNK         0.0864 
      6 C6        -50.2223  -28.6700    6.7645 C.3       14 UNK        -0.0898 
      7 S7        -49.9866  -30.4210    6.3202 S.3       14 UNK        -0.2598 
      8 C8        -51.4282  -31.1928    7.1261 C.3       14 UNK         0.0286 
      9 C9        -51.2935  -31.2559    8.6432 C.ar      14 UNK        -0.0844 
     10 C10       -50.3151  -32.0662    9.2278 C.ar      14 UNK        -0.0881 
     11 C11       -50.2065  -32.1652   10.6186 C.ar      14 UNK        -0.0643 
     12 C12       -51.0903  -31.4467   11.4296 C.ar      14 UNK        -0.0930 
     13 C13       -52.0749  -30.6330   10.8579 C.ar      14 UNK        -0.0827 
     14 C14       -52.1705  -30.5400    9.4647 C.ar      14 UNK        -0.1249 
     15 C15       -53.0215  -29.8363   11.7425 C.3       14 UNK         0.0141 
     16 S16       -54.6708  -30.5960   11.8087 S.3       14 UNK        -0.2313 
     17 C17       -55.5630  -29.4497   12.9151 C.3       14 UNK        -0.0915 
     18 CA        -56.4637  -28.4575   12.1285 C.3       13 UNK         0.0968 
     19 C         -57.5468  -27.7872   13.0258 C.2       13 UNK         0.5732 
     20 N         -57.7932  -26.4849   12.9314 N.am      13 UNK        -0.7310 
     21 O         -58.2058  -28.4679   13.8086 O.2       13 UNK        -0.5035 
     22 N         -55.6511  -27.4780   11.3941 N.am      13 UNK        -0.4233 
     23 C         -55.7731  -27.1843   10.0944 C.2       13 UNK         0.4989 
     24 O         -56.5415  -27.7682    9.3283 O.2       13 UNK        -0.4996 
     25 CA        -54.8796  -26.0448    9.5587 C.3       12 UNK         0.0216 
     26 CB        -55.4732  -25.3622    8.3078 C.3       12 UNK        -0.1964 
     27 N         -54.5181  -25.0377   10.5677 N.am      12 UNK        -0.4276 
     28 C         -55.3527  -24.2771   11.2951 C.2       12 UNK         0.5020 
     29 O         -56.5811  -24.3513   11.2298 O.2       12 UNK        -0.5489 
     30 CA        -54.6877  -23.3125   12.2971 C.3       11 UNK         0.0294 
     31 CB        -55.6874  -22.6928   13.2967 C.3       11 UNK        -0.2019 
     32 N         -53.5590  -23.9375   12.9988 N.am      11 UNK        -0.4493 
     33 C         -53.5999  -25.0211   13.7890 C.2       11 UNK         0.4932 
     34 O         -54.6331  -25.6295   14.0676 O.2       11 UNK        -0.5029 
     35 CA        -52.2619  -25.5858   14.2942 C.3       10 UNK         0.0280 
     36 CB        -51.9282  -26.8434   13.4823 C.3       10 UNK        -0.1976 
     37 N         -51.1339  -24.6508   14.2205 N.am      10 UNK        -0.4242 
     38 C         -50.9633  -23.6008   15.0376 C.2       10 UNK         0.5072 
     39 O         -51.7644  -23.2955   15.9230 O.2       10 UNK        -0.5224 
     40 CA        -49.6629  -22.7949   14.8691 C.3       9 UNK         0.0343 
     41 CB        -49.4418  -21.7637   15.9968 C.3       9 UNK        -0.2003 
     42 N         -48.5327  -23.7185   14.7858 N.am      9 UNK        -0.4272 
     43 C         -47.3135  -23.4518   14.3031 C.2       9 UNK         0.4988 
     44 O         -46.9645  -22.3327   13.9252 O.2       9 UNK        -0.5108 
     45 CA        -46.3226  -24.6272   14.1526 C.3       8 UNK         0.0248 
     46 CB        -44.9873  -24.3497   14.8741 C.3       8 UNK        -0.2001 
     47 N         -46.8637  -25.9512   14.5005 N.am      8 UNK        -0.4140 
     48 C         -47.2039  -26.4174   15.7131 C.2       8 UNK         0.5028 
     49 O         -47.0745  -25.7713   16.7526 O.2       8 UNK        -0.5428 
     50 CA        -47.8524  -27.8128   15.7935 C.3       7 UNK         0.0264 
     51 CB        -49.2956  -27.7006   16.3157 C.3       7 UNK        -0.1988 
     52 N         -47.8581  -28.5306   14.5136 N.am      7 UNK        -0.4454 
     53 C         -46.8440  -29.2900   14.0720 C.2       7 UNK         0.5027 
     54 O         -45.8057  -29.4730   14.7090 O.2       7 UNK        -0.5083 
     55 CA        -47.0015  -29.9581   12.6875 C.3       6 UNK         0.0844 
     56 C56       -47.5248  -31.4070   12.8448 C.3       14 UNK        -0.0967 
     57 S57       -47.5049  -32.3291   11.2682 S.3       14 UNK        -0.2604 
     58 C58       -49.1614  -33.0863   11.2326 C.3       14 UNK         0.0134 
     59 N         -47.8200  -29.1874   11.7455 N.am      6 UNK        -0.4116 
     60 C         -47.5668  -27.9451   11.3117 C.2       5 UNK         0.5034 
     61 O         -46.6107  -27.2691   11.6991 O.2       5 UNK        -0.5045 
     62 CA        -48.5461  -27.3788   10.2621 C.3       5 UNK         0.0224 
     63 CB        -49.9813  -27.9041   10.4457 C.3       5 UNK        -0.1978 
     64 N         -48.5533  -25.9161   10.1935 N.am      5 UNK        -0.4737 
     65 C         -48.8156  -25.0618   11.1900 C.2       4 UNK         0.5027 
     66 O         -49.1731  -25.4013   12.3189 O.2       4 UNK        -0.5211 
     67 CA        -48.6605  -23.5711   10.8582 C.3       4 UNK         0.0297 
     68 CB        -47.2919  -23.2563   10.2276 C.3       4 UNK        -0.1993 
     69 N         -49.7278  -23.1187    9.9725 N.am      4 UNK        -0.4486 
     70 C         -50.9884  -22.8889   10.3614 C.2       3 UNK         0.4961 
     71 O         -51.3721  -22.9791   11.5274 O.2       3 UNK        -0.5105 
     72 CA        -51.9988  -22.4770    9.2748 C.3       3 UNK         0.0299 
     73 CB        -52.2361  -20.9594    9.3132 C.3       3 UNK        -0.1972 
     74 N         -51.5991  -22.8734    7.9214 N.am      3 UNK        -0.4305 
     75 C         -51.5738  -24.1376    7.4770 C.2       2 UNK         0.5006 
     76 O         -51.9439  -25.0993    8.1534 O.2       2 UNK        -0.5106 
     77 CA        -51.0705  -24.3600    6.0345 C.3       2 UNK         0.0296 
     78 CB        -50.0555  -23.2932    5.5595 C.3       2 UNK        -0.2002 
     79 N         -50.5292  -25.7100    5.8331 N.am      2 UNK        -0.4032 
     80 C         -49.4826  -26.2606    6.4670 C.2       1 UNK         0.5000 
     81 O         -48.7848  -25.6685    7.2978 O.2       1 UNK        -0.5238 
     82 H82       -45.7112  -26.6087    4.3036 H         1 UNK         0.0889 
     83 H83       -46.8440  -25.6190    5.2176 H         1 UNK         0.0889 
     84 H84       -47.4354  -26.8376    4.0740 H         1 UNK         0.0889 
     85 H85       -47.7472  -28.8350    7.1610 H         1 UNK         0.3028 
     86 H86       -49.2867  -27.8324    5.0199 H         1 UNK         0.0864 
     87 H87       -51.2373  -28.3867    6.4790 H         1 UNK         0.0720 
     88 H88       -50.1778  -28.5878    7.8478 H         1 UNK         0.0720 
     89 H89       -51.5395  -32.2079    6.7423 H         1 UNK         0.0814 
     90 H90       -52.3344  -30.6592    6.8352 H         1 UNK         0.0814 
     91 H91       -49.6397  -32.6279    8.5966 H         1 UNK         0.1469 
     92 H92       -51.0181  -31.5280   12.5055 H         1 UNK         0.1381 
     93 H93       -52.9341  -29.9136    9.0239 H         1 UNK         0.1206 
     94 H94       -52.6217  -29.7680   12.7547 H         1 UNK         0.0813 
     95 H95       -53.1017  -28.8169   11.3636 H         1 UNK         0.0813 
     96 H96       -54.8606  -28.9148   13.5564 H         1 UNK         0.0638 
     97 H97       -56.1617  -30.0737   13.5807 H         1 UNK         0.0638 
     98 H98       -57.0433  -29.0489   11.4179 H         1 UNK         0.0568 
     99 H99       -58.5041  -26.0825   13.5200 H         1 UNK         0.3450 
    100 H100      -57.2885  -25.8914   12.2817 H         1 UNK         0.3450 
    101 H101      -55.0514  -26.9020   11.9673 H         1 UNK         0.2987 
    102 H102      -53.9454  -26.5223    9.2597 H         1 UNK         0.0766 
    103 H103      -54.8135  -24.5788    7.9347 H         1 UNK         0.0798 
    104 H104      -56.4448  -24.9130    8.5158 H         1 UNK         0.0798 
    105 H105      -55.6109  -26.0784    7.4970 H         1 UNK         0.0798 
    106 H106      -53.5258  -24.9161   10.7166 H         1 UNK         0.3198 
    107 H107      -54.2687  -22.4976   11.7049 H         1 UNK         0.0843 
    108 H108      -56.1965  -23.4547   13.8879 H         1 UNK         0.0831 
    109 H109      -56.4562  -22.1217   12.7750 H         1 UNK         0.0831 
    110 H110      -55.1883  -22.0114   13.9855 H         1 UNK         0.0831 
    111 H111      -52.6430  -23.5599   12.7590 H         1 UNK         0.3133 
    112 H112      -52.3934  -25.8754   15.3388 H         1 UNK         0.0566 
    113 H113      -50.9533  -27.2542   13.7374 H         1 UNK         0.0814 
    114 H114      -52.6684  -27.6204   13.6698 H         1 UNK         0.0814 
    115 H115      -51.9354  -26.6302   12.4131 H         1 UNK         0.0814 
    116 H116      -50.4399  -24.8313   13.4940 H         1 UNK         0.3091 
    117 H117      -49.7463  -22.2607   13.9205 H         1 UNK         0.0702 
    118 H118      -48.5487  -21.1634   15.8241 H         1 UNK         0.0785 
    119 H119      -49.3357  -22.2500   16.9671 H         1 UNK         0.0785 
    120 H120      -50.2820  -21.0716   16.0654 H         1 UNK         0.0785 
    121 H121      -48.7269  -24.6705   15.0618 H         1 UNK         0.2998 
    122 H122      -46.1041  -24.6879   13.0858 H         1 UNK         0.0697 
    123 H123      -45.1244  -24.2056   15.9460 H         1 UNK         0.0825 
    124 H124      -44.5167  -23.4452   14.4869 H         1 UNK         0.0825 
    125 H125      -44.2812  -25.1676   14.7311 H         1 UNK         0.0825 
    126 H126      -47.0249  -26.5533   13.7003 H         1 UNK         0.3029 
    127 H127      -47.2799  -28.3914   16.5223 H         1 UNK         0.0897 
    128 H128      -49.3065  -27.3290   17.3414 H         1 UNK         0.0792 
    129 H129      -49.7994  -28.6673   16.3198 H         1 UNK         0.0792 
    130 H130      -49.8905  -27.0080   15.7224 H         1 UNK         0.0792 
    131 H131      -48.6739  -28.4224   13.9288 H         1 UNK         0.3086 
    132 H132      -45.9991  -30.0096   12.2569 H         1 UNK         0.0583 
    133 H133      -46.9054  -31.9626   13.5522 H         1 UNK         0.1020 
    134 H134      -48.5323  -31.4051   13.2647 H         1 UNK         0.1020 
    135 H135      -49.1071  -34.0038   10.6445 H         1 UNK         0.0694 
    136 H136      -49.4539  -33.3952   12.2374 H         1 UNK         0.0694 
    137 H137      -48.6072  -29.6818   11.3513 H         1 UNK         0.2989 
    138 H138      -48.1815  -27.7156    9.2916 H         1 UNK         0.1055 
    139 H139      -50.0402  -28.9468   10.1421 H         1 UNK         0.0806 
    140 H140      -50.6997  -27.3477    9.8425 H         1 UNK         0.0806 
    141 H141      -50.2998  -27.8489   11.4834 H         1 UNK         0.0806 
    142 H142      -48.3402  -25.5383    9.2753 H         1 UNK         0.3061 
    143 H143      -48.7313  -23.0126   11.7924 H         1 UNK         0.0734 
    144 H144      -47.1436  -22.1807   10.1316 H         1 UNK         0.0832 
    145 H145      -46.4797  -23.6372   10.8481 H         1 UNK         0.0832 
    146 H146      -47.1800  -23.6967    9.2360 H         1 UNK         0.0832 
    147 H147      -49.5118  -23.0536    8.9891 H         1 UNK         0.3156 
    148 H148      -52.9452  -22.9692    9.5020 H         1 UNK         0.0589 
    149 H149      -51.3291  -20.4014    9.0768 H         1 UNK         0.0808 
    150 H150      -53.0103  -20.6599    8.6065 H         1 UNK         0.0808 
    151 H151      -52.5645  -20.6409   10.3038 H         1 UNK         0.0808 
    152 H152      -51.2986  -22.1361    7.2999 H         1 UNK         0.3098 
    153 H153      -51.9512  -24.2896    5.3946 H         1 UNK         0.0720 
    154 H154      -49.6741  -23.5309    4.5663 H         1 UNK         0.0791 
    155 H155      -49.1984  -23.2163    6.2298 H         1 UNK         0.0791 
    156 H156      -50.5126  -22.3057    5.4889 H         1 UNK         0.0791 
    157 H157      -51.0577  -26.2892    5.1959 H         1 UNK         0.3028 
@<TRIPOS>BOND
     1    1    2 1    
     2    1   82 1    
     3    1   83 1    
     4    1   84 1    
     5    2    3 2    
     6    2    4 am   BACKBONE|DICT|INTERRES
     7    4    5 1    
     8    4   85 1    
     9    5    6 1    
    10    5   80 1    
    11    5   86 1    
    12    6    7 1    
    13    6   87 1    
    14    6   88 1    
    15    7    8 1    
    16    8    9 1    
    17    8   89 1    
    18    8   90 1    
    19    9   10 ar   
    20    9   14 ar   
    21   10   11 ar   
    22   10   91 1    
    23   11   12 ar   
    24   11   58 1    
    25   12   13 ar   
    26   12   92 1    
    27   13   14 ar   
    28   13   15 1    
    29   14   93 1    
    30   15   16 1    
    31   15   94 1    
    32   15   95 1    
    33   16   17 1    
    34   17   18 1    
    35   17   96 1    
    36   17   97 1    
    37   18   19 1    
    38   18   22 1    
    39   18   98 1    
    40   19   20 am   BACKBONE|DICT|INTERRES
    41   19   21 2    
    42   20   99 1    
    43   20  100 1    
    44   22   23 am   BACKBONE|DICT|INTERRES
    45   22  101 1    
    46   23   24 2    
    47   23   25 1    
    48   25   26 1    
    49   25   27 1    
    50   25  102 1    
    51   26  103 1    
    52   26  104 1    
    53   26  105 1    
    54   27   28 am   BACKBONE|DICT|INTERRES
    55   27  106 1    
    56   28   29 2    
    57   28   30 1    
    58   30   31 1    
    59   30   32 1    
    60   30  107 1    
    61   31  108 1    
    62   31  109 1    
    63   31  110 1    
    64   32   33 am   BACKBONE|DICT|INTERRES
    65   32  111 1    
    66   33   34 2    
    67   33   35 1    
    68   35   36 1    
    69   35   37 1    
    70   35  112 1    
    71   36  113 1    
    72   36  114 1    
    73   36  115 1    
    74   37   38 am   BACKBONE|DICT|INTERRES
    75   37  116 1    
    76   38   39 2    
    77   38   40 1    
    78   40   41 1    
    79   40   42 1    
    80   40  117 1    
    81   41  118 1    
    82   41  119 1    
    83   41  120 1    
    84   42   43 am   BACKBONE|DICT|INTERRES
    85   42  121 1    
    86   43   44 2    
    87   43   45 1    
    88   45   46 1    
    89   45   47 1    
    90   45  122 1    
    91   46  123 1    
    92   46  124 1    
    93   46  125 1    
    94   47   48 am   BACKBONE|DICT|INTERRES
    95   47  126 1    
    96   48   49 2    
    97   48   50 1    
    98   50   51 1    
    99   50   52 1    
   100   50  127 1    
   101   51  128 1    
   102   51  129 1    
   103   51  130 1    
   104   52   53 am   BACKBONE|DICT|INTERRES
   105   52  131 1    
   106   53   54 2    
   107   53   55 1    
   108   55   56 1    
   109   55   59 1    
   110   55  132 1    
   111   56   57 1    
   112   56  133 1    
   113   56  134 1    
   114   57   58 1    
   115   58  135 1    
   116   58  136 1    
   117   59   60 am   BACKBONE|DICT|INTERRES
   118   59  137 1    
   119   60   61 2    
   120   60   62 1    
   121   62   63 1    
   122   62   64 1    
   123   62  138 1    
   124   63  139 1    
   125   63  140 1    
   126   63  141 1    
   127   64   65 am   BACKBONE|DICT|INTERRES
   128   64  142 1    
   129   65   66 2    
   130   65   67 1    
   131   67   68 1    
   132   67   69 1    
   133   67  143 1    
   134   68  144 1    
   135   68  145 1    
   136   68  146 1    
   137   69   70 am   BACKBONE|DICT|INTERRES
   138   69  147 1    
   139   70   71 2    
   140   70   72 1    
   141   72   73 1    
   142   72   74 1    
   143   72  148 1    
   144   73  149 1    
   145   73  150 1    
   146   73  151 1    
   147   74   75 am   BACKBONE|DICT|INTERRES
   148   74  152 1    
   149   75   76 2    
   150   75   77 1    
   151   77   78 1    
   152   77   79 1    
   153   77  153 1    
   154   78  154 1    
   155   78  155 1    
   156   78  156 1    
   157   79   80 am   BACKBONE|DICT|INTERRES
   158   79  157 1    
   159   80   81 2    
@<TRIPOS>SUBSTRUCTURE
     1 UNK         1 GROUP             0       ****    0 ROOT    
