@<TRIPOS>MOLECULE
3R207
157   159    1
SMALL
USER_CHARGES


@<TRIPOS>ATOM
      1 CA        -46.4652  -32.3408    7.4921 C.3       0 UNK        -0.1975 
      2 C         -47.0787  -30.9575    7.3347 C.2       0 UNK         0.4852 
      3 O         -46.8437  -30.0976    8.1822 O.2       0 UNK        -0.5216 
      4 N         -47.8342  -30.7502    6.2450 N.am      1 UNK        -0.4461 
      5 CA        -48.6110  -29.5719    5.8094 C.3       1 UNK         0.0864 
      6 C6        -49.9891  -29.4170    6.5102 C.3       14 UNK        -0.0898 
      7 S7        -49.9607  -29.0212    8.2937 S.3       14 UNK        -0.2598 
      8 C8        -51.7009  -29.3387    8.7537 C.3       14 UNK         0.0286 
      9 C9        -52.5391  -28.0699    8.8945 C.ar      14 UNK        -0.0844 
     10 C10       -52.4642  -27.0423    7.9477 C.ar      14 UNK        -0.0881 
     11 C11       -53.2327  -25.8842    8.0872 C.ar      14 UNK        -0.0643 
     12 C12       -54.1068  -25.7643    9.1707 C.ar      14 UNK        -0.0930 
     13 C13       -54.1967  -26.7827   10.1229 C.ar      14 UNK        -0.0827 
     14 C14       -53.4132  -27.9320    9.9789 C.ar      14 UNK        -0.1249 
     15 C15       -55.0990  -26.6144   11.3337 C.3       14 UNK         0.0141 
     16 S16       -56.7602  -27.2990   11.0733 S.3       14 UNK        -0.2313 
     17 C17       -57.5197  -26.8816   12.6846 C.3       14 UNK        -0.0915 
     18 CA        -57.8225  -28.1027   13.5958 C.3       13 UNK         0.0968 
     19 C         -59.0811  -28.8922   13.1279 C.2       13 UNK         0.5732 
     20 N         -58.9859  -30.1792   12.8140 N.am      13 UNK        -0.7310 
     21 O         -60.1718  -28.3289   13.0677 O.2       13 UNK        -0.5035 
     22 N         -56.6271  -28.9311   13.8279 N.am      13 UNK        -0.4233 
     23 C         -56.4147  -29.6822   14.9166 C.2       13 UNK         0.4989 
     24 O         -57.1481  -29.6767   15.9063 O.2       13 UNK        -0.4996 
     25 CA        -55.1928  -30.6118   14.9041 C.3       12 UNK         0.0216 
     26 CB        -54.7068  -30.9794   13.4855 C.3       12 UNK        -0.1964 
     27 N         -54.0974  -29.9703   15.6223 N.am      12 UNK        -0.4276 
     28 C         -53.4753  -30.4481   16.7088 C.2       12 UNK         0.5020 
     29 O         -53.8255  -31.4702   17.3030 O.2       12 UNK        -0.5489 
     30 CA        -52.2358  -29.6603   17.1996 C.3       11 UNK         0.0294 
     31 CB        -51.2891  -30.5098   18.0742 C.3       11 UNK        -0.2019 
     32 N         -51.4989  -29.0148   16.1025 N.am      11 UNK        -0.4493 
     33 C         -50.9754  -29.6107   15.0185 C.2       11 UNK         0.4932 
     34 O         -50.8403  -30.8305   14.9114 O.2       11 UNK        -0.5029 
     35 CA        -50.5666  -28.7054   13.8338 C.3       10 UNK         0.0280 
     36 CB        -50.8802  -29.3678   12.4784 C.3       10 UNK        -0.1976 
     37 N         -51.1114  -27.3391   13.8346 N.am      10 UNK        -0.4242 
     38 C         -52.3780  -26.9211   13.9843 C.2       10 UNK         0.5072 
     39 O         -53.3194  -27.6741   14.2373 O.2       10 UNK        -0.5224 
     40 CA        -52.6431  -25.4080   13.8336 C.3       9 UNK         0.0343 
     41 CB        -53.8114  -24.9221   14.7163 C.3       9 UNK        -0.2003 
     42 N         -51.4530  -24.5680   14.0192 N.am      9 UNK        -0.4272 
     43 C         -50.6880  -24.4431   15.1151 C.2       9 UNK         0.4988 
     44 O         -50.9491  -24.9819   16.1916 O.2       9 UNK        -0.5108 
     45 CA        -49.3816  -23.6298   14.9902 C.3       8 UNK         0.0248 
     46 CB        -48.1625  -24.5394   15.2222 C.3       8 UNK        -0.2001 
     47 N         -49.2217  -22.9598   13.6954 N.am      8 UNK        -0.4140 
     48 C         -49.8190  -21.8121   13.3472 C.2       8 UNK         0.5028 
     49 O         -50.5166  -21.1447   14.1117 O.2       8 UNK        -0.5428 
     50 CA        -49.6417  -21.3477   11.8890 C.3       7 UNK         0.0264 
     51 CB        -48.3535  -20.5240   11.7343 C.3       7 UNK        -0.1988 
     52 N         -49.6456  -22.4467   10.9154 N.am      7 UNK        -0.4454 
     53 C         -50.6750  -23.2858   10.7177 C.2       7 UNK         0.5027 
     54 O         -51.7379  -23.2091   11.3348 O.2       7 UNK        -0.5083 
     55 CA        -50.4656  -24.4467    9.7200 C.3       6 UNK         0.0844 
     56 C56       -50.5982  -24.0012    8.2396 C.3       14 UNK        -0.0967 
     57 S57       -52.2366  -23.3121    7.8083 S.3       14 UNK        -0.2604 
     58 C58       -53.0913  -24.7491    7.0848 C.3       14 UNK         0.0134 
     59 N         -49.2015  -25.1490    9.9558 N.am      6 UNK        -0.4116 
     60 C         -48.8378  -25.7381   11.1040 C.2       5 UNK         0.5034 
     61 O         -49.5510  -25.8092   12.1010 O.2       5 UNK        -0.5045 
     62 CA        -47.4000  -26.2665   11.1908 C.3       5 UNK         0.0224 
     63 CB        -47.2582  -27.6274   10.4932 C.3       5 UNK        -0.1978 
     64 N         -46.4410  -25.3056   10.6432 N.am      5 UNK        -0.4737 
     65 C         -46.1706  -24.1166   11.2017 C.2       4 UNK         0.5027 
     66 O         -46.6528  -23.7366   12.2684 O.2       4 UNK        -0.5211 
     67 CA        -45.2384  -23.1797   10.4160 C.3       4 UNK         0.0297 
     68 CB        -43.7667  -23.5137   10.7061 C.3       4 UNK        -0.1993 
     69 N         -45.4799  -23.2278    8.9713 N.am      4 UNK        -0.4486 
     70 C         -46.6035  -22.8004    8.3772 C.2       3 UNK         0.4961 
     71 O         -47.5397  -22.2748    8.9781 O.2       3 UNK        -0.5105 
     72 CA        -46.7241  -23.0522    6.8638 C.3       3 UNK         0.0299 
     73 CB        -46.0157  -21.9423    6.0715 C.3       3 UNK        -0.1972 
     74 N         -46.2068  -24.3636    6.4552 N.am      3 UNK        -0.4305 
     75 C         -46.6974  -25.5358    6.8814 C.2       2 UNK         0.5006 
     76 O         -47.6419  -25.6329    7.6665 O.2       2 UNK        -0.5106 
     77 CA        -45.9582  -26.7975    6.4088 C.3       2 UNK         0.0296 
     78 CB        -44.7243  -27.0526    7.2910 C.3       2 UNK        -0.2002 
     79 N         -46.8072  -27.9890    6.4413 N.am      2 UNK        -0.4032 
     80 C         -47.8539  -28.2300    5.6453 C.2       1 UNK         0.5000 
     81 O         -48.2102  -27.4569    4.7525 O.2       1 UNK        -0.5238 
     82 H82       -45.3783  -32.2678    7.5180 H         1 UNK         0.0889 
     83 H83       -46.7415  -33.0081    6.6759 H         1 UNK         0.0889 
     84 H84       -46.7985  -32.7922    8.4262 H         1 UNK         0.0889 
     85 H85       -47.9139  -31.5267    5.6031 H         1 UNK         0.3028 
     86 H86       -48.8560  -29.8351    4.7787 H         1 UNK         0.0864 
     87 H87       -50.5799  -28.6592    5.9946 H         1 UNK         0.0720 
     88 H88       -50.5435  -30.3480    6.3842 H         1 UNK         0.0720 
     89 H89       -51.6973  -29.8912    9.6938 H         1 UNK         0.0814 
     90 H90       -52.1754  -29.9958    8.0244 H         1 UNK         0.0814 
     91 H91       -51.7892  -27.1291    7.1099 H         1 UNK         0.1469 
     92 H92       -54.6950  -24.8641    9.2856 H         1 UNK         0.1381 
     93 H93       -53.4833  -28.7174   10.7184 H         1 UNK         0.1206 
     94 H94       -54.6575  -27.1154   12.1910 H         1 UNK         0.0813 
     95 H95       -55.1768  -25.5580   11.5963 H         1 UNK         0.0813 
     96 H96       -58.4278  -26.3069   12.4935 H         1 UNK         0.0638 
     97 H97       -56.8639  -26.1966   13.2234 H         1 UNK         0.0638 
     98 H98       -58.1110  -27.6861   14.5628 H         1 UNK         0.0568 
     99 H99       -59.8122  -30.6757   12.5203 H         1 UNK         0.3450 
    100 H100      -58.1002  -30.6547   12.8566 H         1 UNK         0.3450 
    101 H101      -55.9778  -28.9881   13.0581 H         1 UNK         0.2987 
    102 H102      -55.4927  -31.5343   15.4056 H         1 UNK         0.0766 
    103 H103      -53.9009  -31.7124   13.5325 H         1 UNK         0.0798 
    104 H104      -54.3240  -30.1152   12.9413 H         1 UNK         0.0798 
    105 H105      -55.5080  -31.4233   12.8933 H         1 UNK         0.0798 
    106 H106      -53.7614  -29.0980   15.2104 H         1 UNK         0.3198 
    107 H107      -52.6232  -28.8523   17.8221 H         1 UNK         0.0843 
    108 H108      -50.4304  -29.9287   18.4102 H         1 UNK         0.0831 
    109 H109      -50.9156  -31.3823   17.5376 H         1 UNK         0.0831 
    110 H110      -51.8017  -30.8731   18.9656 H         1 UNK         0.0831 
    111 H111      -51.5557  -28.0054   16.0782 H         1 UNK         0.3133 
    112 H112      -49.4840  -28.5913   13.9031 H         1 UNK         0.0566 
    113 H113      -50.5740  -28.7316   11.6473 H         1 UNK         0.0814 
    114 H114      -50.3539  -30.3165   12.3674 H         1 UNK         0.0814 
    115 H115      -51.9457  -29.5703   12.3730 H         1 UNK         0.0814 
    116 H116      -50.4508  -26.6284   13.5272 H         1 UNK         0.3091 
    117 H117      -52.9350  -25.2652   12.7929 H         1 UNK         0.0702 
    118 H118      -54.7337  -25.4512   14.4741 H         1 UNK         0.0785 
    119 H119      -54.0018  -23.8590   14.5696 H         1 UNK         0.0785 
    120 H120      -53.6137  -25.0858   15.7759 H         1 UNK         0.0785 
    121 H121      -51.1454  -24.0931   13.1779 H         1 UNK         0.2998 
    122 H122      -49.3952  -22.8726   15.7767 H         1 UNK         0.0697 
    123 H123      -48.1010  -25.3288   14.4723 H         1 UNK         0.0825 
    124 H124      -48.2092  -25.0201   16.2002 H         1 UNK         0.0825 
    125 H125      -47.2321  -23.9723   15.1850 H         1 UNK         0.0825 
    126 H126      -48.6133  -23.4139   13.0216 H         1 UNK         0.3029 
    127 H127      -50.4883  -20.7008   11.6496 H         1 UNK         0.0897 
    128 H128      -48.2607  -20.1182   10.7266 H         1 UNK         0.0792 
    129 H129      -48.3436  -19.6805   12.4258 H         1 UNK         0.0792 
    130 H130      -47.4651  -21.1226   11.9364 H         1 UNK         0.0792 
    131 H131      -48.8180  -22.5390   10.3291 H         1 UNK         0.3086 
    132 H132      -51.2500  -25.1777    9.9225 H         1 UNK         0.0583 
    133 H133      -49.8452  -23.2491    8.0020 H         1 UNK         0.1020 
    134 H134      -50.3867  -24.8437    7.5789 H         1 UNK         0.1020 
    135 H135      -54.0820  -24.4398    6.7488 H         1 UNK         0.0694 
    136 H136      -52.5535  -25.0768    6.1937 H         1 UNK         0.0694 
    137 H137      -48.5571  -25.1973    9.1686 H         1 UNK         0.2989 
    138 H138      -47.1665  -26.4069   12.2487 H         1 UNK         0.1055 
    139 H139      -47.9551  -28.3542   10.9129 H         1 UNK         0.0806 
    140 H140      -46.2551  -28.0362   10.6131 H         1 UNK         0.0806 
    141 H141      -47.4679  -27.5658    9.4257 H         1 UNK         0.0806 
    142 H142      -46.0427  -25.5188    9.7414 H         1 UNK         0.3061 
    143 H143      -45.4304  -22.1597   10.7559 H         1 UNK         0.0734 
    144 H144      -43.0953  -22.8067   10.2184 H         1 UNK         0.0832 
    145 H145      -43.5618  -23.4658   11.7766 H         1 UNK         0.0832 
    146 H146      -43.5026  -24.5169   10.3691 H         1 UNK         0.0832 
    147 H147      -44.7589  -23.6389    8.3968 H         1 UNK         0.3156 
    148 H148      -47.7854  -23.0240    6.6088 H         1 UNK         0.0589 
    149 H149      -44.9403  -21.9344    6.2536 H         1 UNK         0.0808 
    150 H150      -46.1745  -22.0569    4.9990 H         1 UNK         0.0808 
    151 H151      -46.4001  -20.9598    6.3498 H         1 UNK         0.0808 
    152 H152      -45.4250  -24.3653    5.8153 H         1 UNK         0.3098 
    153 H153      -45.6323  -26.6431    5.3781 H         1 UNK         0.0720 
    154 H154      -44.1603  -27.9166    6.9387 H         1 UNK         0.0791 
    155 H155      -45.0022  -27.2399    8.3289 H         1 UNK         0.0791 
    156 H156      -44.0440  -26.2001    7.2811 H         1 UNK         0.0791 
    157 H157      -46.6444  -28.6638    7.1881 H         1 UNK         0.3028 
@<TRIPOS>BOND
     1    1    2 1    
     2    1   82 1    
     3    1   83 1    
     4    1   84 1    
     5    2    3 2    
     6    2    4 am   BACKBONE|DICT|INTERRES
     7    4    5 1    
     8    4   85 1    
     9    5    6 1    
    10    5   80 1    
    11    5   86 1    
    12    6    7 1    
    13    6   87 1    
    14    6   88 1    
    15    7    8 1    
    16    8    9 1    
    17    8   89 1    
    18    8   90 1    
    19    9   10 ar   
    20    9   14 ar   
    21   10   11 ar   
    22   10   91 1    
    23   11   12 ar   
    24   11   58 1    
    25   12   13 ar   
    26   12   92 1    
    27   13   14 ar   
    28   13   15 1    
    29   14   93 1    
    30   15   16 1    
    31   15   94 1    
    32   15   95 1    
    33   16   17 1    
    34   17   18 1    
    35   17   96 1    
    36   17   97 1    
    37   18   19 1    
    38   18   22 1    
    39   18   98 1    
    40   19   20 am   BACKBONE|DICT|INTERRES
    41   19   21 2    
    42   20   99 1    
    43   20  100 1    
    44   22   23 am   BACKBONE|DICT|INTERRES
    45   22  101 1    
    46   23   24 2    
    47   23   25 1    
    48   25   26 1    
    49   25   27 1    
    50   25  102 1    
    51   26  103 1    
    52   26  104 1    
    53   26  105 1    
    54   27   28 am   BACKBONE|DICT|INTERRES
    55   27  106 1    
    56   28   29 2    
    57   28   30 1    
    58   30   31 1    
    59   30   32 1    
    60   30  107 1    
    61   31  108 1    
    62   31  109 1    
    63   31  110 1    
    64   32   33 am   BACKBONE|DICT|INTERRES
    65   32  111 1    
    66   33   34 2    
    67   33   35 1    
    68   35   36 1    
    69   35   37 1    
    70   35  112 1    
    71   36  113 1    
    72   36  114 1    
    73   36  115 1    
    74   37   38 am   BACKBONE|DICT|INTERRES
    75   37  116 1    
    76   38   39 2    
    77   38   40 1    
    78   40   41 1    
    79   40   42 1    
    80   40  117 1    
    81   41  118 1    
    82   41  119 1    
    83   41  120 1    
    84   42   43 am   BACKBONE|DICT|INTERRES
    85   42  121 1    
    86   43   44 2    
    87   43   45 1    
    88   45   46 1    
    89   45   47 1    
    90   45  122 1    
    91   46  123 1    
    92   46  124 1    
    93   46  125 1    
    94   47   48 am   BACKBONE|DICT|INTERRES
    95   47  126 1    
    96   48   49 2    
    97   48   50 1    
    98   50   51 1    
    99   50   52 1    
   100   50  127 1    
   101   51  128 1    
   102   51  129 1    
   103   51  130 1    
   104   52   53 am   BACKBONE|DICT|INTERRES
   105   52  131 1    
   106   53   54 2    
   107   53   55 1    
   108   55   56 1    
   109   55   59 1    
   110   55  132 1    
   111   56   57 1    
   112   56  133 1    
   113   56  134 1    
   114   57   58 1    
   115   58  135 1    
   116   58  136 1    
   117   59   60 am   BACKBONE|DICT|INTERRES
   118   59  137 1    
   119   60   61 2    
   120   60   62 1    
   121   62   63 1    
   122   62   64 1    
   123   62  138 1    
   124   63  139 1    
   125   63  140 1    
   126   63  141 1    
   127   64   65 am   BACKBONE|DICT|INTERRES
   128   64  142 1    
   129   65   66 2    
   130   65   67 1    
   131   67   68 1    
   132   67   69 1    
   133   67  143 1    
   134   68  144 1    
   135   68  145 1    
   136   68  146 1    
   137   69   70 am   BACKBONE|DICT|INTERRES
   138   69  147 1    
   139   70   71 2    
   140   70   72 1    
   141   72   73 1    
   142   72   74 1    
   143   72  148 1    
   144   73  149 1    
   145   73  150 1    
   146   73  151 1    
   147   74   75 am   BACKBONE|DICT|INTERRES
   148   74  152 1    
   149   75   76 2    
   150   75   77 1    
   151   77   78 1    
   152   77   79 1    
   153   77  153 1    
   154   78  154 1    
   155   78  155 1    
   156   78  156 1    
   157   79   80 am   BACKBONE|DICT|INTERRES
   158   79  157 1    
   159   80   81 2    
@<TRIPOS>SUBSTRUCTURE
     1 UNK         1 GROUP             0       ****    0 ROOT    
