@<TRIPOS>MOLECULE
3R207
157   159    1
SMALL
USER_CHARGES


@<TRIPOS>ATOM
      1 CA        -46.7809  -26.7778   10.6088 C.3       0 UNK        -0.1975 
      2 C         -46.9297  -27.6831    9.3950 C.2       0 UNK         0.4852 
      3 O         -46.4010  -28.7965    9.3905 O.2       0 UNK        -0.5216 
      4 N         -47.6452  -27.2222    8.3625 N.am      1 UNK        -0.4461 
      5 CA        -47.9665  -27.9792    7.1467 C.3       1 UNK         0.0864 
      6 C6        -49.2794  -27.4829    6.4903 C.3       14 UNK        -0.0898 
      7 S7        -50.6782  -27.6541    7.6401 S.3       14 UNK        -0.2598 
      8 C8        -52.1145  -27.5492    6.5369 C.3       14 UNK         0.0286 
      9 C9        -53.3139  -27.0900    7.3457 C.ar      14 UNK        -0.0844 
     10 C10       -53.6663  -25.7396    7.3612 C.ar      14 UNK        -0.0881 
     11 C11       -54.6757  -25.2768    8.2103 C.ar      14 UNK        -0.0643 
     12 C12       -55.3754  -26.1928    9.0048 C.ar      14 UNK        -0.0930 
     13 C13       -55.0562  -27.5547    8.9679 C.ar      14 UNK        -0.0827 
     14 C14       -54.0223  -27.9966    8.1379 C.ar      14 UNK        -0.1249 
     15 C15       -55.8106  -28.5548    9.8306 C.3       14 UNK         0.0141 
     16 S16       -54.9108  -28.8924   11.3737 S.3       14 UNK        -0.2313 
     17 C17       -55.8589  -30.2952   12.0487 C.3       14 UNK        -0.0915 
     18 CA        -56.8690  -29.9039   13.1610 C.3       13 UNK         0.0968 
     19 C         -57.6143  -31.1785   13.6569 C.2       13 UNK         0.5732 
     20 N         -57.2638  -31.7451   14.8077 N.am      13 UNK        -0.7310 
     21 O         -58.5228  -31.6587   12.9834 O.2       13 UNK        -0.5035 
     22 N         -56.2268  -29.1375   14.2382 N.am      13 UNK        -0.4233 
     23 C         -56.8631  -28.5477   15.2597 C.2       13 UNK         0.4989 
     24 O         -58.0867  -28.4113   15.3066 O.2       13 UNK        -0.4996 
     25 CA        -55.9995  -28.0296   16.4333 C.3       12 UNK         0.0216 
     26 CB        -56.6400  -28.3508   17.8002 C.3       12 UNK        -0.1964 
     27 N         -54.5932  -28.4722   16.4089 N.am      12 UNK        -0.4276 
     28 C         -54.1363  -29.7348   16.4322 C.2       12 UNK         0.5020 
     29 O         -54.8691  -30.7230   16.5085 O.2       12 UNK        -0.5489 
     30 CA        -52.6247  -29.9491   16.2511 C.3       11 UNK         0.0294 
     31 CB        -52.3484  -30.5451   14.8588 C.3       11 UNK        -0.2019 
     32 N         -51.8243  -28.7297   16.4010 N.am      11 UNK        -0.4493 
     33 C         -51.3716  -28.2578   17.5706 C.2       11 UNK         0.4932 
     34 O         -51.6748  -28.7404   18.6617 O.2       11 UNK        -0.5029 
     35 CA        -50.4062  -27.0634   17.5231 C.3       10 UNK         0.0280 
     36 CB        -48.9914  -27.5322   17.1439 C.3       10 UNK        -0.1976 
     37 N         -50.8475  -26.0414   16.5721 N.am      10 UNK        -0.4242 
     38 C         -51.0900  -24.7580   16.8800 C.2       10 UNK         0.5072 
     39 O         -50.9294  -24.2798   18.0041 O.2       10 UNK        -0.5224 
     40 CA        -51.6022  -23.8350   15.7532 C.3       9 UNK         0.0343 
     41 CB        -50.4415  -23.0232   15.1558 C.3       9 UNK        -0.2003 
     42 N         -52.2917  -24.5400   14.6707 N.am      9 UNK        -0.4272 
     43 C         -53.4114  -25.2632   14.8175 C.2       9 UNK         0.4988 
     44 O         -54.0476  -25.3269   15.8678 O.2       9 UNK        -0.5108 
     45 CA        -53.8764  -26.1104   13.6192 C.3       8 UNK         0.0248 
     46 CB        -55.0325  -25.4072   12.8901 C.3       8 UNK        -0.2001 
     47 N         -52.8250  -26.4502   12.6552 N.am      8 UNK        -0.4140 
     48 C         -51.6474  -27.0390   12.9185 C.2       8 UNK         0.5028 
     49 O         -51.2990  -27.3994   14.0438 O.2       8 UNK        -0.5428 
     50 CA        -50.6694  -27.2002   11.7422 C.3       7 UNK         0.0264 
     51 CB        -50.7154  -28.6379   11.2032 C.3       7 UNK        -0.1988 
     52 N         -50.9230  -26.2578   10.6469 N.am      7 UNK        -0.4454 
     53 C         -50.8116  -24.9251   10.7406 C.2       7 UNK         0.5027 
     54 O         -50.4153  -24.3360   11.7489 O.2       7 UNK        -0.5083 
     55 CA        -51.3262  -24.1131    9.5382 C.3       6 UNK         0.0844 
     56 C56       -52.6796  -23.4465    9.9016 C.3       14 UNK        -0.0967 
     57 S57       -53.5136  -22.7263    8.4467 S.3       14 UNK        -0.2604 
     58 C58       -54.9973  -23.7868    8.2899 C.3       14 UNK         0.0134 
     59 N         -50.3445  -23.1285    9.0817 N.am      6 UNK        -0.4116 
     60 C         -49.1104  -23.3948    8.6349 C.2       5 UNK         0.5034 
     61 O         -48.6448  -24.5325    8.5418 O.2       5 UNK        -0.5045 
     62 CA        -48.2512  -22.1960    8.2008 C.3       5 UNK         0.0224 
     63 CB        -48.7819  -20.8218    8.6697 C.3       5 UNK        -0.1978 
     64 N         -46.8828  -22.3890    8.6754 N.am      5 UNK        -0.4737 
     65 C         -45.7830  -21.9272    8.0723 C.2       4 UNK         0.5027 
     66 O         -45.7977  -21.2877    7.0194 O.2       4 UNK        -0.5211 
     67 CA        -44.4288  -22.2044    8.7519 C.3       4 UNK         0.0297 
     68 CB        -44.5260  -22.4797   10.2716 C.3       4 UNK        -0.1993 
     69 N         -43.6876  -23.2635    8.0593 N.am      4 UNK        -0.4486 
     70 C         -44.0481  -24.5478    7.9399 C.2       3 UNK         0.4961 
     71 O         -45.0586  -25.0366    8.4507 O.2       3 UNK        -0.5105 
     72 CA        -43.1054  -25.4451    7.1293 C.3       3 UNK         0.0299 
     73 CB        -41.7948  -25.7184    7.8914 C.3       3 UNK        -0.1972 
     74 N         -43.7979  -26.7012    6.8714 N.am      3 UNK        -0.4305 
     75 C         -43.5625  -27.5534    5.8695 C.2       2 UNK         0.5006 
     76 O         -42.6755  -27.3930    5.0298 O.2       2 UNK        -0.5106 
     77 CA        -44.4559  -28.8057    5.7879 C.3       2 UNK         0.0296 
     78 CB        -43.6889  -30.0436    6.2820 C.3       2 UNK        -0.2002 
     79 N         -45.7040  -28.6859    6.5483 N.am      2 UNK        -0.4032 
     80 C         -46.7722  -27.9705    6.1715 C.2       1 UNK         0.5000 
     81 O         -46.8244  -27.3221    5.1238 O.2       1 UNK        -0.5238 
     82 H82       -47.1198  -27.2938   11.5064 H         1 UNK         0.0889 
     83 H83       -47.3615  -25.8616   10.5046 H         1 UNK         0.0889 
     84 H84       -45.7354  -26.5028   10.7445 H         1 UNK         0.0889 
     85 H85       -48.0176  -26.2741    8.3991 H         1 UNK         0.3028 
     86 H86       -48.1294  -29.0228    7.4266 H         1 UNK         0.0864 
     87 H87       -49.1974  -26.4356    6.1929 H         1 UNK         0.0720 
     88 H88       -49.4981  -28.0546    5.5864 H         1 UNK         0.0720 
     89 H89       -52.3054  -28.5221    6.0817 H         1 UNK         0.0814 
     90 H90       -51.9108  -26.8516    5.7228 H         1 UNK         0.0814 
     91 H91       -53.1155  -25.0358    6.7521 H         1 UNK         0.1469 
     92 H92       -56.1637  -25.8464    9.6591 H         1 UNK         0.1381 
     93 H93       -53.7468  -29.0426    8.1332 H         1 UNK         0.1206 
     94 H94       -55.9472  -29.4832    9.2739 H         1 UNK         0.0813 
     95 H95       -56.8090  -28.1841   10.0672 H         1 UNK         0.0813 
     96 H96       -55.1342  -31.0131   12.4378 H         1 UNK         0.0638 
     97 H97       -56.3711  -30.8039   11.2299 H         1 UNK         0.0638 
     98 H98       -57.6232  -29.2540   12.7137 H         1 UNK         0.0568 
     99 H99       -56.5056  -31.3663   15.3645 H         1 UNK         0.3450 
    100 H100      -57.7527  -32.5686   15.1198 H         1 UNK         0.3450 
    101 H101      -55.2231  -29.2079   14.2793 H         1 UNK         0.2987 
    102 H102      -55.9864  -26.9450   16.3295 H         1 UNK         0.0766 
    103 H103      -57.6305  -27.9023   17.8863 H         1 UNK         0.0798 
    104 H104      -56.0385  -27.9599   18.6209 H         1 UNK         0.0798 
    105 H105      -56.7566  -29.4244   17.9513 H         1 UNK         0.0798 
    106 H106      -53.9086  -27.7296   16.3554 H         1 UNK         0.3198 
    107 H107      -52.3084  -30.6774   17.0012 H         1 UNK         0.0843 
    108 H108      -52.6659  -29.8752   14.0586 H         1 UNK         0.0831 
    109 H109      -52.8797  -31.4883   14.7229 H         1 UNK         0.0831 
    110 H110      -51.2871  -30.7515   14.7193 H         1 UNK         0.0831 
    111 H111      -51.5334  -28.2769   15.5335 H         1 UNK         0.3133 
    112 H112      -50.3621  -26.6504   18.5330 H         1 UNK         0.0566 
    113 H113      -48.2780  -26.7092   17.1906 H         1 UNK         0.0814 
    114 H114      -48.9582  -27.9459   16.1349 H         1 UNK         0.0814 
    115 H115      -48.6386  -28.3058   17.8274 H         1 UNK         0.0814 
    116 H116      -51.0078  -26.3515   15.6174 H         1 UNK         0.3091 
    117 H117      -52.3146  -23.1392   16.2010 H         1 UNK         0.0702 
    118 H118      -50.7983  -22.3025   14.4197 H         1 UNK         0.0785 
    119 H119      -49.7102  -23.6673   14.6652 H         1 UNK         0.0785 
    120 H120      -49.9165  -22.4619   15.9301 H         1 UNK         0.0785 
    121 H121      -51.8269  -24.5479   13.7723 H         1 UNK         0.2998 
    122 H122      -54.2495  -27.0539   14.0156 H         1 UNK         0.0697 
    123 H123      -54.7179  -24.4612   12.4485 H         1 UNK         0.0825 
    124 H124      -55.8504  -25.1881   13.5782 H         1 UNK         0.0825 
    125 H125      -55.4443  -26.0301   12.0969 H         1 UNK         0.0825 
    126 H126      -53.0246  -26.2406   11.6890 H         1 UNK         0.3029 
    127 H127      -49.6666  -27.0064   12.1281 H         1 UNK         0.0897 
    128 H128      -51.6824  -28.8708   10.7546 H         1 UNK         0.0792 
    129 H129      -50.5426  -29.3614   12.0014 H         1 UNK         0.0792 
    130 H130      -49.9462  -28.8022   10.4482 H         1 UNK         0.0792 
    131 H131      -51.2199  -26.6621    9.7663 H         1 UNK         0.3086 
    132 H132      -51.4839  -24.8042    8.7095 H         1 UNK         0.0583 
    133 H133      -53.3545  -24.1643   10.3702 H         1 UNK         0.1020 
    134 H134      -52.5325  -22.6574   10.6421 H         1 UNK         0.1020 
    135 H135      -55.6573  -23.5813    9.1342 H         1 UNK         0.0694 
    136 H136      -55.5442  -23.4967    7.3920 H         1 UNK         0.0694 
    137 H137      -50.6379  -22.1647    9.1286 H         1 UNK         0.2989 
    138 H138      -48.2504  -22.2115    7.1085 H         1 UNK         0.1055 
    139 H139      -48.8548  -20.7649    9.7567 H         1 UNK         0.0806 
    140 H140      -49.7664  -20.6072    8.2520 H         1 UNK         0.0806 
    141 H141      -48.1255  -20.0149    8.3431 H         1 UNK         0.0806 
    142 H142      -46.7752  -23.0064    9.4691 H         1 UNK         0.3061 
    143 H143      -43.8412  -21.2928    8.6313 H         1 UNK         0.0734 
    144 H144      -45.0518  -23.4063   10.5024 H         1 UNK         0.0832 
    145 H145      -43.5340  -22.5485   10.7180 H         1 UNK         0.0832 
    146 H146      -45.0495  -21.6699   10.7816 H         1 UNK         0.0832 
    147 H147      -42.8523  -22.9599    7.5775 H         1 UNK         0.3156 
    148 H148      -42.8893  -24.9495    6.1806 H         1 UNK         0.0589 
    149 H149      -41.9826  -26.2024    8.8508 H         1 UNK         0.0808 
    150 H150      -41.1281  -26.3626    7.3178 H         1 UNK         0.0808 
    151 H151      -41.2524  -24.7939    8.0923 H         1 UNK         0.0808 
    152 H152      -44.5873  -26.8589    7.4865 H         1 UNK         0.3098 
    153 H153      -44.7077  -28.9573    4.7361 H         1 UNK         0.0720 
    154 H154      -44.2803  -30.9515    6.1612 H         1 UNK         0.0791 
    155 H155      -43.4177  -29.9562    7.3351 H         1 UNK         0.0791 
    156 H156      -42.7656  -30.1829    5.7178 H         1 UNK         0.0791 
    157 H157      -45.7358  -29.1245    7.4637 H         1 UNK         0.3028 
@<TRIPOS>BOND
     1    1    2 1    
     2    1   82 1    
     3    1   83 1    
     4    1   84 1    
     5    2    3 2    
     6    2    4 am   BACKBONE|DICT|INTERRES
     7    4    5 1    
     8    4   85 1    
     9    5    6 1    
    10    5   80 1    
    11    5   86 1    
    12    6    7 1    
    13    6   87 1    
    14    6   88 1    
    15    7    8 1    
    16    8    9 1    
    17    8   89 1    
    18    8   90 1    
    19    9   10 ar   
    20    9   14 ar   
    21   10   11 ar   
    22   10   91 1    
    23   11   12 ar   
    24   11   58 1    
    25   12   13 ar   
    26   12   92 1    
    27   13   14 ar   
    28   13   15 1    
    29   14   93 1    
    30   15   16 1    
    31   15   94 1    
    32   15   95 1    
    33   16   17 1    
    34   17   18 1    
    35   17   96 1    
    36   17   97 1    
    37   18   19 1    
    38   18   22 1    
    39   18   98 1    
    40   19   20 am   BACKBONE|DICT|INTERRES
    41   19   21 2    
    42   20   99 1    
    43   20  100 1    
    44   22   23 am   BACKBONE|DICT|INTERRES
    45   22  101 1    
    46   23   24 2    
    47   23   25 1    
    48   25   26 1    
    49   25   27 1    
    50   25  102 1    
    51   26  103 1    
    52   26  104 1    
    53   26  105 1    
    54   27   28 am   BACKBONE|DICT|INTERRES
    55   27  106 1    
    56   28   29 2    
    57   28   30 1    
    58   30   31 1    
    59   30   32 1    
    60   30  107 1    
    61   31  108 1    
    62   31  109 1    
    63   31  110 1    
    64   32   33 am   BACKBONE|DICT|INTERRES
    65   32  111 1    
    66   33   34 2    
    67   33   35 1    
    68   35   36 1    
    69   35   37 1    
    70   35  112 1    
    71   36  113 1    
    72   36  114 1    
    73   36  115 1    
    74   37   38 am   BACKBONE|DICT|INTERRES
    75   37  116 1    
    76   38   39 2    
    77   38   40 1    
    78   40   41 1    
    79   40   42 1    
    80   40  117 1    
    81   41  118 1    
    82   41  119 1    
    83   41  120 1    
    84   42   43 am   BACKBONE|DICT|INTERRES
    85   42  121 1    
    86   43   44 2    
    87   43   45 1    
    88   45   46 1    
    89   45   47 1    
    90   45  122 1    
    91   46  123 1    
    92   46  124 1    
    93   46  125 1    
    94   47   48 am   BACKBONE|DICT|INTERRES
    95   47  126 1    
    96   48   49 2    
    97   48   50 1    
    98   50   51 1    
    99   50   52 1    
   100   50  127 1    
   101   51  128 1    
   102   51  129 1    
   103   51  130 1    
   104   52   53 am   BACKBONE|DICT|INTERRES
   105   52  131 1    
   106   53   54 2    
   107   53   55 1    
   108   55   56 1    
   109   55   59 1    
   110   55  132 1    
   111   56   57 1    
   112   56  133 1    
   113   56  134 1    
   114   57   58 1    
   115   58  135 1    
   116   58  136 1    
   117   59   60 am   BACKBONE|DICT|INTERRES
   118   59  137 1    
   119   60   61 2    
   120   60   62 1    
   121   62   63 1    
   122   62   64 1    
   123   62  138 1    
   124   63  139 1    
   125   63  140 1    
   126   63  141 1    
   127   64   65 am   BACKBONE|DICT|INTERRES
   128   64  142 1    
   129   65   66 2    
   130   65   67 1    
   131   67   68 1    
   132   67   69 1    
   133   67  143 1    
   134   68  144 1    
   135   68  145 1    
   136   68  146 1    
   137   69   70 am   BACKBONE|DICT|INTERRES
   138   69  147 1    
   139   70   71 2    
   140   70   72 1    
   141   72   73 1    
   142   72   74 1    
   143   72  148 1    
   144   73  149 1    
   145   73  150 1    
   146   73  151 1    
   147   74   75 am   BACKBONE|DICT|INTERRES
   148   74  152 1    
   149   75   76 2    
   150   75   77 1    
   151   77   78 1    
   152   77   79 1    
   153   77  153 1    
   154   78  154 1    
   155   78  155 1    
   156   78  156 1    
   157   79   80 am   BACKBONE|DICT|INTERRES
   158   79  157 1    
   159   80   81 2    
@<TRIPOS>SUBSTRUCTURE
     1 UNK         1 GROUP             0       ****    0 ROOT    
