@<TRIPOS>MOLECULE
3R207
157   159    1
SMALL
USER_CHARGES


@<TRIPOS>ATOM
      1 CA        -47.7542  -29.2462    5.3572 C.3       0 UNK        -0.1975 
      2 C         -48.8369  -28.3520    4.7693 C.2       0 UNK         0.4852 
      3 O         -49.2476  -28.5627    3.6276 O.2       0 UNK        -0.5216 
      4 N         -49.3000  -27.3602    5.5391 N.am      1 UNK        -0.4461 
      5 CA        -50.3114  -26.3859    5.1203 C.3       1 UNK         0.0864 
      6 C6        -51.7736  -26.9068    5.2213 C.3       14 UNK        -0.0898 
      7 S7        -52.2584  -27.5138    6.8763 S.3       14 UNK        -0.2598 
      8 C8        -52.1367  -29.3195    6.6813 C.3       14 UNK         0.0286 
      9 C9        -51.6671  -29.9590    7.9781 C.ar      14 UNK        -0.0844 
     10 C10       -50.2998  -30.1013    8.2253 C.ar      14 UNK        -0.0881 
     11 C11       -49.8445  -30.6395    9.4311 C.ar      14 UNK        -0.0643 
     12 C12       -50.7702  -31.0541   10.3913 C.ar      14 UNK        -0.0930 
     13 C13       -52.1426  -30.9149   10.1576 C.ar      14 UNK        -0.0827 
     14 C14       -52.5870  -30.3745    8.9457 C.ar      14 UNK        -0.1249 
     15 C15       -53.1387  -31.2969   11.2401 C.3       14 UNK         0.0141 
     16 S16       -53.0980  -30.0594   12.5662 S.3       14 UNK        -0.2313 
     17 C17       -54.5913  -30.4591   13.5298 C.3       14 UNK        -0.0915 
     18 CA        -55.8772  -29.7509   13.0210 C.3       13 UNK         0.0968 
     19 C         -57.0736  -30.0330   13.9769 C.2       13 UNK         0.5732 
     20 N         -57.6502  -29.0385   14.6449 N.am      13 UNK        -0.7310 
     21 O         -57.4919  -31.1808   14.1096 O.2       13 UNK        -0.5035 
     22 N         -55.6677  -28.3228   12.7356 N.am      13 UNK        -0.4233 
     23 C         -56.4594  -27.5921   11.9394 C.2       13 UNK         0.4989 
     24 O         -57.3940  -28.0709   11.2935 O.2       13 UNK        -0.4996 
     25 CA        -56.1691  -26.0804   11.8350 C.3       12 UNK         0.0216 
     26 CB        -57.4338  -25.2575   11.5091 C.3       12 UNK        -0.1964 
     27 N         -55.4813  -25.5150   13.0005 N.am      12 UNK        -0.4276 
     28 C         -55.8902  -25.5062   14.2769 C.2       12 UNK         0.5020 
     29 O         -56.9338  -26.0264   14.6810 O.2       12 UNK        -0.5489 
     30 CA        -54.9344  -24.8216   15.2730 C.3       11 UNK         0.0294 
     31 CB        -55.7086  -23.9183   16.2487 C.3       11 UNK        -0.2019 
     32 N         -54.0817  -25.7332   16.0472 N.am      11 UNK        -0.4493 
     33 C         -53.4664  -26.8486   15.6282 C.2       11 UNK         0.4932 
     34 O         -53.6195  -27.3643   14.5230 O.2       11 UNK        -0.5029 
     35 CA        -52.4315  -27.4338   16.5961 C.3       10 UNK         0.0280 
     36 CB        -52.1289  -28.9179   16.3197 C.3       10 UNK        -0.1976 
     37 N         -51.2070  -26.6554   16.4351 N.am      10 UNK        -0.4242 
     38 C         -50.8795  -25.5901   17.1774 C.2       10 UNK         0.5072 
     39 O         -51.5171  -25.2193   18.1644 O.2       10 UNK        -0.5224 
     40 CA        -49.6590  -24.7781   16.7167 C.3       9 UNK         0.0343 
     41 CB        -48.3561  -25.5714   16.9127 C.3       9 UNK        -0.2003 
     42 N         -49.7707  -24.3593   15.3191 N.am      9 UNK        -0.4272 
     43 C         -50.6672  -23.4826   14.8397 C.2       9 UNK         0.4988 
     44 O         -51.4833  -22.8792   15.5363 O.2       9 UNK        -0.5108 
     45 CA        -50.6635  -23.2560   13.3195 C.3       8 UNK         0.0248 
     46 CB        -49.5024  -22.3441   12.8881 C.3       8 UNK        -0.2001 
     47 N         -50.5886  -24.5374   12.6173 N.am      8 UNK        -0.4140 
     48 C         -51.6590  -25.2961   12.3449 C.2       8 UNK         0.5028 
     49 O         -52.8180  -24.9083   12.5000 O.2       8 UNK        -0.5428 
     50 CA        -51.4192  -26.7175   11.8036 C.3       7 UNK         0.0264 
     51 CB        -51.9716  -26.8645   10.3802 C.3       7 UNK        -0.1988 
     52 N         -50.0174  -27.1499   11.8295 N.am      7 UNK        -0.4454 
     53 C         -49.3782  -27.5532   12.9353 C.2       7 UNK         0.5027 
     54 O         -49.8867  -27.5578   14.0571 O.2       7 UNK        -0.5083 
     55 CA        -47.8918  -27.9359   12.7786 C.3       6 UNK         0.0844 
     56 C56       -47.6987  -29.2882   12.0389 C.3       14 UNK        -0.0967 
     57 S57       -47.6568  -29.1539   10.2144 S.3       14 UNK        -0.2604 
     58 C58       -48.3515  -30.7512    9.6894 C.3       14 UNK         0.0134 
     59 N         -47.0739  -26.8563   12.2101 N.am      6 UNK        -0.4116 
     60 C         -47.0168  -25.5888   12.6362 C.2       5 UNK         0.5034 
     61 O         -47.6684  -25.1644   13.5896 O.2       5 UNK        -0.5045 
     62 CA        -46.1316  -24.5980   11.8627 C.3       5 UNK         0.0224 
     63 CB        -44.8265  -24.3036   12.6274 C.3       5 UNK        -0.1978 
     64 N         -45.8782  -24.9404   10.4550 N.am      5 UNK        -0.4737 
     65 C         -45.0994  -25.9039    9.9389 C.2       4 UNK         0.5027 
     66 O         -44.5156  -26.7389   10.6283 O.2       4 UNK        -0.5211 
     67 CA        -44.9679  -25.9807    8.4014 C.3       4 UNK         0.0297 
     68 CB        -45.3887  -27.3639    7.8776 C.3       4 UNK        -0.1993 
     69 N         -45.7467  -24.9617    7.6931 N.am      4 UNK        -0.4486 
     70 C         -45.4047  -23.6751    7.5434 C.2       3 UNK         0.4961 
     71 O         -44.3272  -23.2045    7.9073 O.2       3 UNK        -0.5105 
     72 CA        -46.4627  -22.7496    6.9105 C.3       3 UNK         0.0299 
     73 CB        -46.1641  -22.5366    5.4180 C.3       3 UNK        -0.1972 
     74 N         -47.8443  -23.2273    7.0593 N.am      3 UNK        -0.4305 
     75 C         -48.4931  -23.4170    8.2160 C.2       2 UNK         0.5006 
     76 O         -47.9856  -23.2112    9.3182 O.2       2 UNK        -0.5106 
     77 CA        -49.9252  -23.9794    8.1515 C.3       2 UNK         0.0296 
     78 CB        -50.9552  -22.8517    7.9535 C.3       2 UNK        -0.2002 
     79 N         -50.1301  -25.0765    7.1878 N.am      2 UNK        -0.4032 
     80 C         -50.0672  -25.0516    5.8464 C.2       1 UNK         0.5000 
     81 O         -49.7640  -24.0523    5.1921 O.2       1 UNK        -0.5238 
     82 H82       -46.8338  -29.1466    4.7824 H         1 UNK         0.0889 
     83 H83       -48.0677  -30.2892    5.3185 H         1 UNK         0.0889 
     84 H84       -47.5338  -28.9989    6.3947 H         1 UNK         0.0889 
     85 H85       -48.9088  -27.2189    6.4583 H         1 UNK         0.3028 
     86 H86       -50.1337  -26.1667    4.0645 H         1 UNK         0.0864 
     87 H87       -51.9279  -27.7032    4.4918 H         1 UNK         0.0720 
     88 H88       -52.4715  -26.1185    4.9333 H         1 UNK         0.0720 
     89 H89       -51.4427  -29.5697    5.8778 H         1 UNK         0.0814 
     90 H90       -53.1078  -29.7187    6.3850 H         1 UNK         0.0814 
     91 H91       -49.5852  -29.7700    7.4875 H         1 UNK         0.1469 
     92 H92       -50.4262  -31.4569   11.3338 H         1 UNK         0.1381 
     93 H93       -53.6459  -30.2452    8.7681 H         1 UNK         0.1206 
     94 H94       -54.1475  -31.3612   10.8297 H         1 UNK         0.0813 
     95 H95       -52.8974  -32.2805   11.6455 H         1 UNK         0.0813 
     96 H96       -54.3908  -30.1678   14.5617 H         1 UNK         0.0638 
     97 H97       -54.7253  -31.5423   13.5408 H         1 UNK         0.0638 
     98 H98       -56.1392  -30.2265   12.0743 H         1 UNK         0.0568 
     99 H99       -57.3220  -28.0838   14.5479 H         1 UNK         0.3450 
    100 H100      -58.4254  -29.2412   15.2550 H         1 UNK         0.3450 
    101 H101      -54.9182  -27.8740   13.2583 H         1 UNK         0.2987 
    102 H102      -55.4772  -25.9687   10.9992 H         1 UNK         0.0766 
    103 H103      -57.2034  -24.1961   11.4166 H         1 UNK         0.0798 
    104 H104      -58.1966  -25.3695   12.2805 H         1 UNK         0.0798 
    105 H105      -57.8773  -25.5731   10.5639 H         1 UNK         0.0798 
    106 H106      -54.5350  -25.1730   12.8139 H         1 UNK         0.3198 
    107 H107      -54.2600  -24.1784   14.7039 H         1 UNK         0.0843 
    108 H108      -56.3425  -24.5004   16.9190 H         1 UNK         0.0831 
    109 H109      -56.3557  -23.2252   15.7092 H         1 UNK         0.0831 
    110 H110      -55.0326  -23.3190   16.8589 H         1 UNK         0.0831 
    111 H111      -53.8354  -25.4073   16.9718 H         1 UNK         0.3133 
    112 H112      -52.8136  -27.3527   17.6159 H         1 UNK         0.0566 
    113 H113      -51.3721  -29.3010   17.0039 H         1 UNK         0.0814 
    114 H114      -53.0240  -29.5259   16.4516 H         1 UNK         0.0814 
    115 H115      -51.7701  -29.0805   15.3024 H         1 UNK         0.0814 
    116 H116      -50.6544  -26.8742   15.6070 H         1 UNK         0.3091 
    117 H117      -49.6041  -23.8781   17.3328 H         1 UNK         0.0702 
    118 H118      -47.4843  -24.9624   16.6723 H         1 UNK         0.0785 
    119 H119      -48.3224  -26.4602   16.2810 H         1 UNK         0.0785 
    120 H120      -48.2488  -25.8989   17.9476 H         1 UNK         0.0785 
    121 H121      -49.0966  -24.7676   14.6753 H         1 UNK         0.2998 
    122 H122      -51.5940  -22.7514   13.0497 H         1 UNK         0.0697 
    123 H123      -48.5348  -22.7236   13.2140 H         1 UNK         0.0825 
    124 H124      -49.6165  -21.3484   13.3184 H         1 UNK         0.0825 
    125 H125      -49.4693  -22.2271   11.8044 H         1 UNK         0.0825 
    126 H126      -49.6697  -24.9376   12.4931 H         1 UNK         0.3029 
    127 H127      -51.9880  -27.3886   12.4485 H         1 UNK         0.0897 
    128 H128      -51.8497  -27.8846   10.0197 H         1 UNK         0.0792 
    129 H129      -51.4765  -26.1972    9.6782 H         1 UNK         0.0792 
    130 H130      -53.0383  -26.6404   10.3482 H         1 UNK         0.0792 
    131 H131      -49.5265  -27.1933   10.9478 H         1 UNK         0.3086 
    132 H132      -47.5187  -28.0799   13.7949 H         1 UNK         0.0583 
    133 H133      -46.7479  -29.7268   12.3461 H         1 UNK         0.1020 
    134 H134      -48.4592  -30.0101   12.3441 H         1 UNK         0.1020 
    135 H135      -47.8491  -31.0653    8.7732 H         1 UNK         0.0694 
    136 H136      -48.1367  -31.5220   10.4311 H         1 UNK         0.0694 
    137 H137      -46.4679  -27.1160   11.4415 H         1 UNK         0.2989 
    138 H138      -46.6973  -23.6656   11.8252 H         1 UNK         0.1055 
    139 H139      -45.0408  -23.9221   13.6268 H         1 UNK         0.0806 
    140 H140      -44.2280  -23.5502   12.1152 H         1 UNK         0.0806 
    141 H141      -44.2122  -25.1960   12.7497 H         1 UNK         0.0806 
    142 H142      -46.3710  -24.3409    9.8001 H         1 UNK         0.3061 
    143 H143      -43.9110  -25.8366    8.1674 H         1 UNK         0.0734 
    144 H144      -45.2038  -27.4563    6.8073 H         1 UNK         0.0832 
    145 H145      -44.8296  -28.1613    8.3693 H         1 UNK         0.0832 
    146 H146      -46.4469  -27.5525    8.0543 H         1 UNK         0.0832 
    147 H147      -46.6518  -25.2431    7.3492 H         1 UNK         0.3156 
    148 H148      -46.3933  -21.7843    7.4159 H         1 UNK         0.0589 
    149 H149      -46.2485  -23.4658    4.8529 H         1 UNK         0.0808 
    150 H150      -46.8482  -21.8120    4.9759 H         1 UNK         0.0808 
    151 H151      -45.1522  -22.1557    5.2716 H         1 UNK         0.0808 
    152 H152      -48.3685  -23.4120    6.2057 H         1 UNK         0.3098 
    153 H153      -50.1154  -24.4120    9.1342 H         1 UNK         0.0720 
    154 H154      -51.9745  -23.2348    8.0055 H         1 UNK         0.0791 
    155 H155      -50.8342  -22.3493    6.9934 H         1 UNK         0.0791 
    156 H156      -50.8550  -22.0930    8.7310 H         1 UNK         0.0791 
    157 H157      -50.4304  -25.9509    7.5985 H         1 UNK         0.3028 
@<TRIPOS>BOND
     1    1    2 1    
     2    1   82 1    
     3    1   83 1    
     4    1   84 1    
     5    2    3 2    
     6    2    4 am   BACKBONE|DICT|INTERRES
     7    4    5 1    
     8    4   85 1    
     9    5    6 1    
    10    5   80 1    
    11    5   86 1    
    12    6    7 1    
    13    6   87 1    
    14    6   88 1    
    15    7    8 1    
    16    8    9 1    
    17    8   89 1    
    18    8   90 1    
    19    9   10 ar   
    20    9   14 ar   
    21   10   11 ar   
    22   10   91 1    
    23   11   12 ar   
    24   11   58 1    
    25   12   13 ar   
    26   12   92 1    
    27   13   14 ar   
    28   13   15 1    
    29   14   93 1    
    30   15   16 1    
    31   15   94 1    
    32   15   95 1    
    33   16   17 1    
    34   17   18 1    
    35   17   96 1    
    36   17   97 1    
    37   18   19 1    
    38   18   22 1    
    39   18   98 1    
    40   19   20 am   BACKBONE|DICT|INTERRES
    41   19   21 2    
    42   20   99 1    
    43   20  100 1    
    44   22   23 am   BACKBONE|DICT|INTERRES
    45   22  101 1    
    46   23   24 2    
    47   23   25 1    
    48   25   26 1    
    49   25   27 1    
    50   25  102 1    
    51   26  103 1    
    52   26  104 1    
    53   26  105 1    
    54   27   28 am   BACKBONE|DICT|INTERRES
    55   27  106 1    
    56   28   29 2    
    57   28   30 1    
    58   30   31 1    
    59   30   32 1    
    60   30  107 1    
    61   31  108 1    
    62   31  109 1    
    63   31  110 1    
    64   32   33 am   BACKBONE|DICT|INTERRES
    65   32  111 1    
    66   33   34 2    
    67   33   35 1    
    68   35   36 1    
    69   35   37 1    
    70   35  112 1    
    71   36  113 1    
    72   36  114 1    
    73   36  115 1    
    74   37   38 am   BACKBONE|DICT|INTERRES
    75   37  116 1    
    76   38   39 2    
    77   38   40 1    
    78   40   41 1    
    79   40   42 1    
    80   40  117 1    
    81   41  118 1    
    82   41  119 1    
    83   41  120 1    
    84   42   43 am   BACKBONE|DICT|INTERRES
    85   42  121 1    
    86   43   44 2    
    87   43   45 1    
    88   45   46 1    
    89   45   47 1    
    90   45  122 1    
    91   46  123 1    
    92   46  124 1    
    93   46  125 1    
    94   47   48 am   BACKBONE|DICT|INTERRES
    95   47  126 1    
    96   48   49 2    
    97   48   50 1    
    98   50   51 1    
    99   50   52 1    
   100   50  127 1    
   101   51  128 1    
   102   51  129 1    
   103   51  130 1    
   104   52   53 am   BACKBONE|DICT|INTERRES
   105   52  131 1    
   106   53   54 2    
   107   53   55 1    
   108   55   56 1    
   109   55   59 1    
   110   55  132 1    
   111   56   57 1    
   112   56  133 1    
   113   56  134 1    
   114   57   58 1    
   115   58  135 1    
   116   58  136 1    
   117   59   60 am   BACKBONE|DICT|INTERRES
   118   59  137 1    
   119   60   61 2    
   120   60   62 1    
   121   62   63 1    
   122   62   64 1    
   123   62  138 1    
   124   63  139 1    
   125   63  140 1    
   126   63  141 1    
   127   64   65 am   BACKBONE|DICT|INTERRES
   128   64  142 1    
   129   65   66 2    
   130   65   67 1    
   131   67   68 1    
   132   67   69 1    
   133   67  143 1    
   134   68  144 1    
   135   68  145 1    
   136   68  146 1    
   137   69   70 am   BACKBONE|DICT|INTERRES
   138   69  147 1    
   139   70   71 2    
   140   70   72 1    
   141   72   73 1    
   142   72   74 1    
   143   72  148 1    
   144   73  149 1    
   145   73  150 1    
   146   73  151 1    
   147   74   75 am   BACKBONE|DICT|INTERRES
   148   74  152 1    
   149   75   76 2    
   150   75   77 1    
   151   77   78 1    
   152   77   79 1    
   153   77  153 1    
   154   78  154 1    
   155   78  155 1    
   156   78  156 1    
   157   79   80 am   BACKBONE|DICT|INTERRES
   158   79  157 1    
   159   80   81 2    
@<TRIPOS>SUBSTRUCTURE
     1 UNK         1 GROUP             0       ****    0 ROOT    
