@<TRIPOS>MOLECULE
3R207
157   159    1
SMALL
USER_CHARGES


@<TRIPOS>ATOM
      1 CA        -52.7893  -25.0262    1.7287 C.3       0 UNK        -0.1975 
      2 C         -53.1226  -25.4826    3.1419 C.2       0 UNK         0.4852 
      3 O         -53.5714  -24.6746    3.9568 O.2       0 UNK        -0.5216 
      4 N         -52.9158  -26.7729    3.4379 N.am      1 UNK        -0.4461 
      5 CA        -53.1156  -27.3645    4.7615 C.3       1 UNK         0.0864 
      6 C6        -53.3214  -28.8993    4.6648 C.3       14 UNK        -0.0898 
      7 S7        -53.8099  -29.6605    6.2544 S.3       14 UNK        -0.2598 
      8 C8        -52.3253  -30.6371    6.6610 C.3       14 UNK         0.0286 
      9 C9        -52.0108  -30.5857    8.1480 C.ar      14 UNK        -0.0844 
     10 C10       -51.4009  -29.4515    8.6846 C.ar      14 UNK        -0.0881 
     11 C11       -51.0714  -29.3876   10.0404 C.ar      14 UNK        -0.0643 
     12 C12       -51.3381  -30.4857   10.8643 C.ar      14 UNK        -0.0930 
     13 C13       -51.9527  -31.6287   10.3387 C.ar      14 UNK        -0.0827 
     14 C14       -52.2930  -31.6700    8.9821 C.ar      14 UNK        -0.1249 
     15 C15       -52.2325  -32.8360   11.2206 C.3       14 UNK         0.0141 
     16 S16       -53.9304  -32.8184   11.8768 S.3       14 UNK        -0.2313 
     17 C17       -53.7644  -31.7155   13.3198 C.3       14 UNK        -0.0915 
     18 CA        -54.6504  -30.4460   13.2294 C.3       13 UNK         0.0968 
     19 C         -54.6029  -29.6635   14.5756 C.2       13 UNK         0.5732 
     20 N         -54.0249  -28.4712   14.6381 N.am      13 UNK        -0.7310 
     21 O         -55.1029  -30.1565   15.5840 O.2       13 UNK        -0.5035 
     22 N         -54.3307  -29.6360   12.0441 N.am      13 UNK        -0.4233 
     23 C         -55.1061  -28.6580   11.5651 C.2       13 UNK         0.4989 
     24 O         -56.2446  -28.4114   11.9690 O.2       13 UNK        -0.4996 
     25 CA        -54.4881  -27.7788   10.4673 C.3       12 UNK         0.0216 
     26 CB        -55.3315  -27.8003    9.1825 C.3       12 UNK        -0.1964 
     27 N         -54.3260  -26.3986   10.9283 N.am      12 UNK        -0.4276 
     28 C         -53.5357  -26.0106   11.9397 C.2       12 UNK         0.5020 
     29 O         -52.8209  -26.7856   12.5795 O.2       12 UNK        -0.5489 
     30 CA        -53.4881  -24.5037   12.2624 C.3       11 UNK         0.0294 
     31 CB        -54.6628  -23.6859   11.6768 C.3       11 UNK        -0.2019 
     32 N         -53.3314  -24.2550   13.7002 N.am      11 UNK        -0.4493 
     33 C         -54.2096  -24.5286   14.6758 C.2       11 UNK         0.4932 
     34 O         -55.3236  -25.0237   14.4978 O.2       11 UNK        -0.5029 
     35 CA        -53.7375  -24.1602   16.0908 C.3       10 UNK         0.0280 
     36 CB        -54.8504  -24.2196   17.1606 C.3       10 UNK        -0.1976 
     37 N         -52.5494  -24.9366   16.4588 N.am      10 UNK        -0.4242 
     38 C         -52.4685  -26.2227   16.8347 C.2       10 UNK         0.5072 
     39 O         -53.4497  -26.9450   17.0145 O.2       10 UNK        -0.5224 
     40 CA        -51.0602  -26.8302   17.0403 C.3       9 UNK         0.0343 
     41 CB        -50.9384  -28.1912   16.3308 C.3       9 UNK        -0.2003 
     42 N         -49.9673  -25.9680   16.5803 N.am      9 UNK        -0.4272 
     43 C         -49.4971  -24.8881   17.2243 C.2       9 UNK         0.4988 
     44 O         -49.8577  -24.5626   18.3551 O.2       9 UNK        -0.5108 
     45 CA        -48.5024  -23.9815   16.4675 C.3       8 UNK         0.0248 
     46 CB        -47.0655  -24.2472   16.9441 C.3       8 UNK        -0.2001 
     47 N         -48.5550  -24.1207   15.0080 N.am      8 UNK        -0.4140 
     48 C         -49.6362  -23.9293   14.2382 C.2       8 UNK         0.5028 
     49 O         -50.7041  -23.4769   14.6555 O.2       8 UNK        -0.5428 
     50 CA        -49.5496  -24.3804   12.7701 C.3       7 UNK         0.0264 
     51 CB        -49.4579  -23.1602   11.8405 C.3       7 UNK        -0.1988 
     52 N         -48.4730  -25.3279   12.4499 N.am      7 UNK        -0.4454 
     53 C         -48.2991  -26.5393   13.0063 C.2       7 UNK         0.5027 
     54 O         -48.9583  -26.9413   13.9657 O.2       7 UNK        -0.5083 
     55 CA        -47.2195  -27.4663   12.4113 C.3       6 UNK         0.0844 
     56 C56       -47.8281  -28.5532   11.4858 C.3       14 UNK        -0.0967 
     57 S57       -48.7407  -27.8915   10.0462 S.3       14 UNK        -0.2604 
     58 C58       -50.4605  -28.1139   10.6024 C.3       14 UNK         0.0134 
     59 N         -46.1412  -26.7204   11.7508 N.am      6 UNK        -0.4116 
     60 C         -44.8452  -26.8039   12.0878 C.2       5 UNK         0.5034 
     61 O         -44.4222  -27.4902   13.0192 O.2       5 UNK        -0.5045 
     62 CA        -43.8250  -26.0124   11.2464 C.3       5 UNK         0.0224 
     63 CB        -43.1738  -26.9301   10.1986 C.3       5 UNK        -0.1978 
     64 N         -44.3857  -24.8432   10.5686 N.am      5 UNK        -0.4737 
     65 C         -44.8071  -23.7288   11.1801 C.2       4 UNK         0.5027 
     66 O         -44.7076  -23.5354   12.3915 O.2       4 UNK        -0.5211 
     67 CA        -45.4764  -22.6570   10.2966 C.3       4 UNK         0.0297 
     68 CB        -44.4709  -21.5447    9.9582 C.3       4 UNK        -0.1993 
     69 N         -46.0853  -23.1519    9.0513 N.am      4 UNK        -0.4486 
     70 C         -47.0110  -24.1160    8.9698 C.2       3 UNK         0.4961 
     71 O         -47.3838  -24.7884    9.9350 O.2       3 UNK        -0.5105 
     72 CA        -47.5956  -24.4045    7.5841 C.3       3 UNK         0.0299 
     73 CB        -46.6766  -25.3418    6.7840 C.3       3 UNK        -0.1972 
     74 N         -48.8885  -25.0455    7.7868 N.am      3 UNK        -0.4305 
     75 C         -49.9864  -24.8771    7.0459 C.2       2 UNK         0.5006 
     76 O         -50.0382  -24.1986    6.0176 O.2       2 UNK        -0.5106 
     77 CA        -51.2559  -25.5404    7.6029 C.3       2 UNK         0.0296 
     78 CB        -51.9930  -24.5829    8.5527 C.3       2 UNK        -0.2002 
     79 N         -52.1866  -25.9971    6.5705 N.am      2 UNK        -0.4032 
     80 C         -51.9417  -26.9697    5.6822 C.2       1 UNK         0.5000 
     81 O         -50.8622  -27.5575    5.5788 O.2       1 UNK        -0.5238 
     82 H82       -52.4574  -25.8523    1.0999 H         1 UNK         0.0889 
     83 H83       -51.9967  -24.2796    1.7545 H         1 UNK         0.0889 
     84 H84       -53.6659  -24.5772    1.2623 H         1 UNK         0.0889 
     85 H85       -52.5204  -27.3856    2.7383 H         1 UNK         0.3028 
     86 H86       -54.0355  -26.9478    5.1800 H         1 UNK         0.0864 
     87 H87       -54.1224  -29.1117    3.9548 H         1 UNK         0.0720 
     88 H88       -52.4350  -29.3898    4.2585 H         1 UNK         0.0720 
     89 H89       -52.4734  -31.6662    6.3303 H         1 UNK         0.0814 
     90 H90       -51.4585  -30.2640    6.1139 H         1 UNK         0.0814 
     91 H91       -51.1775  -28.6177    8.0375 H         1 UNK         0.1469 
     92 H92       -51.0707  -30.4485   11.9116 H         1 UNK         0.1381 
     93 H93       -52.7647  -32.5535    8.5738 H         1 UNK         0.1206 
     94 H94       -51.5121  -32.8970   12.0377 H         1 UNK         0.0813 
     95 H95       -52.0972  -33.7485   10.6379 H         1 UNK         0.0813 
     96 H96       -52.7190  -31.4376   13.4615 H         1 UNK         0.0638 
     97 H97       -54.0363  -32.3057   14.1970 H         1 UNK         0.0638 
     98 H98       -55.6841  -30.7786   13.1177 H         1 UNK         0.0568 
     99 H99       -53.6183  -28.0313   13.8181 H         1 UNK         0.3450 
    100 H100      -53.9914  -27.9841   15.5283 H         1 UNK         0.3450 
    101 H101      -53.4160  -29.7822   11.6428 H         1 UNK         0.2987 
    102 H102      -53.4995  -28.1634   10.2200 H         1 UNK         0.0766 
    103 H103      -54.8495  -27.2395    8.3814 H         1 UNK         0.0798 
    104 H104      -56.3255  -27.3801    9.3410 H         1 UNK         0.0798 
    105 H105      -55.4628  -28.8223    8.8243 H         1 UNK         0.0798 
    106 H106      -54.9169  -25.7067   10.4922 H         1 UNK         0.3198 
    107 H107      -52.5773  -24.1289   11.7952 H         1 UNK         0.0843 
    108 H108      -54.6005  -22.6409   11.9807 H         1 UNK         0.0831 
    109 H109      -55.6315  -24.0654   12.0044 H         1 UNK         0.0831 
    110 H110      -54.6521  -23.6942   10.5863 H         1 UNK         0.0831 
    111 H111      -52.4226  -23.8960   13.9863 H         1 UNK         0.3133 
    112 H112      -53.4050  -23.1219   16.0431 H         1 UNK         0.0566 
    113 H113      -54.4664  -23.9665   18.1487 H         1 UNK         0.0814 
    114 H114      -55.6438  -23.5088   16.9276 H         1 UNK         0.0814 
    115 H115      -55.3152  -25.2037   17.2215 H         1 UNK         0.0814 
    116 H116      -51.6740  -24.4618   16.2721 H         1 UNK         0.3091 
    117 H117      -50.9389  -26.9965   18.1125 H         1 UNK         0.0702 
    118 H118      -51.6711  -28.9038   16.7119 H         1 UNK         0.0785 
    119 H119      -49.9525  -28.6316   16.4798 H         1 UNK         0.0785 
    120 H120      -51.1043  -28.0977   15.2563 H         1 UNK         0.0785 
    121 H121      -49.6025  -26.1805   15.6549 H         1 UNK         0.2998 
    122 H122      -48.7604  -22.9477   16.7061 H         1 UNK         0.0697 
    123 H123      -46.7437  -25.2628   16.7093 H         1 UNK         0.0825 
    124 H124      -46.9826  -24.1210   18.0247 H         1 UNK         0.0825 
    125 H125      -46.3591  -23.5553   16.4847 H         1 UNK         0.0825 
    126 H126      -47.7312  -24.4963   14.5613 H         1 UNK         0.3029 
    127 H127      -50.4829  -24.9035   12.5569 H         1 UNK         0.0897 
    128 H128      -49.5554  -23.4476   10.7944 H         1 UNK         0.0792 
    129 H129      -50.2533  -22.4434   12.0501 H         1 UNK         0.0792 
    130 H130      -48.5080  -22.6382   11.9581 H         1 UNK         0.0792 
    131 H131      -47.9315  -25.1013   11.6184 H         1 UNK         0.3086 
    132 H132      -46.8094  -27.9957   13.2736 H         1 UNK         0.0583 
    133 H133      -47.0311  -29.1961   11.1093 H         1 UNK         0.1020 
    134 H134      -48.4774  -29.2163   12.0606 H         1 UNK         0.1020 
    135 H135      -50.5166  -28.1038   11.6920 H         1 UNK         0.0694 
    136 H136      -51.0526  -27.2584   10.2788 H         1 UNK         0.0694 
    137 H137      -46.4136  -26.1265   10.9739 H         1 UNK         0.2989 
    138 H138      -43.0465  -25.6643   11.9292 H         1 UNK         0.1055 
    139 H139      -42.7158  -27.7999   10.6718 H         1 UNK         0.0806 
    140 H140      -42.3871  -26.4118    9.6500 H         1 UNK         0.0806 
    141 H141      -43.9025  -27.2990    9.4755 H         1 UNK         0.0806 
    142 H142      -44.5101  -24.9087    9.5688 H         1 UNK         0.3061 
    143 H143      -46.2794  -22.2174   10.8912 H         1 UNK         0.0734 
    144 H144      -44.9525  -20.7157    9.4393 H         1 UNK         0.0832 
    145 H145      -44.0197  -21.1365   10.8639 H         1 UNK         0.0832 
    146 H146      -43.6598  -21.9121    9.3284 H         1 UNK         0.0832 
    147 H147      -45.8213  -22.6694    8.2037 H         1 UNK         0.3156 
    148 H148      -47.7237  -23.4597    7.0523 H         1 UNK         0.0589 
    149 H149      -46.5133  -26.2861    7.3052 H         1 UNK         0.0808 
    150 H150      -47.1022  -25.5709    5.8069 H         1 UNK         0.0808 
    151 H151      -45.7003  -24.8870    6.6134 H         1 UNK         0.0808 
    152 H152      -48.9400  -25.5728    8.6511 H         1 UNK         0.3098 
    153 H153      -50.9504  -26.4172    8.1699 H         1 UNK         0.0720 
    154 H154      -52.8856  -25.0477    8.9674 H         1 UNK         0.0791 
    155 H155      -52.2979  -23.6677    8.0437 H         1 UNK         0.0791 
    156 H156      -51.3579  -24.2946    9.3906 H         1 UNK         0.0791 
    157 H157      -53.0683  -25.5080    6.5115 H         1 UNK         0.3028 
@<TRIPOS>BOND
     1    1    2 1    
     2    1   82 1    
     3    1   83 1    
     4    1   84 1    
     5    2    3 2    
     6    2    4 am   BACKBONE|DICT|INTERRES
     7    4    5 1    
     8    4   85 1    
     9    5    6 1    
    10    5   80 1    
    11    5   86 1    
    12    6    7 1    
    13    6   87 1    
    14    6   88 1    
    15    7    8 1    
    16    8    9 1    
    17    8   89 1    
    18    8   90 1    
    19    9   10 ar   
    20    9   14 ar   
    21   10   11 ar   
    22   10   91 1    
    23   11   12 ar   
    24   11   58 1    
    25   12   13 ar   
    26   12   92 1    
    27   13   14 ar   
    28   13   15 1    
    29   14   93 1    
    30   15   16 1    
    31   15   94 1    
    32   15   95 1    
    33   16   17 1    
    34   17   18 1    
    35   17   96 1    
    36   17   97 1    
    37   18   19 1    
    38   18   22 1    
    39   18   98 1    
    40   19   20 am   BACKBONE|DICT|INTERRES
    41   19   21 2    
    42   20   99 1    
    43   20  100 1    
    44   22   23 am   BACKBONE|DICT|INTERRES
    45   22  101 1    
    46   23   24 2    
    47   23   25 1    
    48   25   26 1    
    49   25   27 1    
    50   25  102 1    
    51   26  103 1    
    52   26  104 1    
    53   26  105 1    
    54   27   28 am   BACKBONE|DICT|INTERRES
    55   27  106 1    
    56   28   29 2    
    57   28   30 1    
    58   30   31 1    
    59   30   32 1    
    60   30  107 1    
    61   31  108 1    
    62   31  109 1    
    63   31  110 1    
    64   32   33 am   BACKBONE|DICT|INTERRES
    65   32  111 1    
    66   33   34 2    
    67   33   35 1    
    68   35   36 1    
    69   35   37 1    
    70   35  112 1    
    71   36  113 1    
    72   36  114 1    
    73   36  115 1    
    74   37   38 am   BACKBONE|DICT|INTERRES
    75   37  116 1    
    76   38   39 2    
    77   38   40 1    
    78   40   41 1    
    79   40   42 1    
    80   40  117 1    
    81   41  118 1    
    82   41  119 1    
    83   41  120 1    
    84   42   43 am   BACKBONE|DICT|INTERRES
    85   42  121 1    
    86   43   44 2    
    87   43   45 1    
    88   45   46 1    
    89   45   47 1    
    90   45  122 1    
    91   46  123 1    
    92   46  124 1    
    93   46  125 1    
    94   47   48 am   BACKBONE|DICT|INTERRES
    95   47  126 1    
    96   48   49 2    
    97   48   50 1    
    98   50   51 1    
    99   50   52 1    
   100   50  127 1    
   101   51  128 1    
   102   51  129 1    
   103   51  130 1    
   104   52   53 am   BACKBONE|DICT|INTERRES
   105   52  131 1    
   106   53   54 2    
   107   53   55 1    
   108   55   56 1    
   109   55   59 1    
   110   55  132 1    
   111   56   57 1    
   112   56  133 1    
   113   56  134 1    
   114   57   58 1    
   115   58  135 1    
   116   58  136 1    
   117   59   60 am   BACKBONE|DICT|INTERRES
   118   59  137 1    
   119   60   61 2    
   120   60   62 1    
   121   62   63 1    
   122   62   64 1    
   123   62  138 1    
   124   63  139 1    
   125   63  140 1    
   126   63  141 1    
   127   64   65 am   BACKBONE|DICT|INTERRES
   128   64  142 1    
   129   65   66 2    
   130   65   67 1    
   131   67   68 1    
   132   67   69 1    
   133   67  143 1    
   134   68  144 1    
   135   68  145 1    
   136   68  146 1    
   137   69   70 am   BACKBONE|DICT|INTERRES
   138   69  147 1    
   139   70   71 2    
   140   70   72 1    
   141   72   73 1    
   142   72   74 1    
   143   72  148 1    
   144   73  149 1    
   145   73  150 1    
   146   73  151 1    
   147   74   75 am   BACKBONE|DICT|INTERRES
   148   74  152 1    
   149   75   76 2    
   150   75   77 1    
   151   77   78 1    
   152   77   79 1    
   153   77  153 1    
   154   78  154 1    
   155   78  155 1    
   156   78  156 1    
   157   79   80 am   BACKBONE|DICT|INTERRES
   158   79  157 1    
   159   80   81 2    
@<TRIPOS>SUBSTRUCTURE
     1 UNK         1 GROUP             0       ****    0 ROOT    
