@<TRIPOS>MOLECULE
3R207
157   159    1
SMALL
USER_CHARGES


@<TRIPOS>ATOM
      1 CA        -51.2268  -29.6194    0.8953 C.3       0 UNK        -0.1975 
      2 C         -51.4891  -29.5652    2.3934 C.2       0 UNK         0.4852 
      3 O         -52.6479  -29.5200    2.8096 O.2       0 UNK        -0.5216 
      4 N         -50.4233  -29.5802    3.2038 N.am      1 UNK        -0.4461 
      5 CA        -50.4852  -29.4790    4.6651 C.3       1 UNK         0.0864 
      6 C6        -49.1809  -29.9896    5.3287 C.3       14 UNK        -0.0898 
      7 S7        -48.9569  -31.7991    5.2180 S.3       14 UNK        -0.2598 
      8 C8        -50.4090  -32.5002    6.0902 C.3       14 UNK         0.0286 
      9 C9        -50.8710  -31.6831    7.2932 C.ar      14 UNK        -0.0844 
     10 C10       -50.0016  -31.4296    8.3590 C.ar      14 UNK        -0.0881 
     11 C11       -50.4077  -30.6301    9.4317 C.ar      14 UNK        -0.0643 
     12 C12       -51.7007  -30.1022    9.4446 C.ar      14 UNK        -0.0930 
     13 C13       -52.5858  -30.3649    8.3960 C.ar      14 UNK        -0.0827 
     14 C14       -52.1695  -31.1630    7.3281 C.ar      14 UNK        -0.1249 
     15 C15       -53.9750  -29.7488    8.4067 C.3       14 UNK         0.0141 
     16 S16       -55.0057  -30.4606    9.7248 S.3       14 UNK        -0.2313 
     17 C17       -56.3259  -29.2061    9.8415 C.3       14 UNK        -0.0915 
     18 CA        -55.8822  -27.8989   10.5601 C.3       13 UNK         0.0968 
     19 C         -57.0297  -26.8501   10.6374 C.2       13 UNK         0.5732 
     20 N         -57.2252  -26.1479   11.7490 N.am      13 UNK        -0.7310 
     21 O         -57.7517  -26.6522    9.6630 O.2       13 UNK        -0.5035 
     22 N         -55.2714  -28.1642   11.8709 N.am      13 UNK        -0.4233 
     23 C         -54.0173  -27.8532   12.2101 C.2       13 UNK         0.4989 
     24 O         -53.1739  -27.3965   11.4354 O.2       13 UNK        -0.4996 
     25 CA        -53.6622  -28.0330   13.6942 C.3       12 UNK         0.0216 
     26 CB        -52.4231  -28.9250   13.8812 C.3       12 UNK        -0.1964 
     27 N         -53.4424  -26.7243   14.3125 N.am      12 UNK        -0.4276 
     28 C         -54.4078  -25.8080   14.4800 C.2       12 UNK         0.5020 
     29 O         -55.5924  -26.0147   14.1994 O.2       12 UNK        -0.5489 
     30 CA        -53.9800  -24.4363   15.0361 C.3       11 UNK         0.0294 
     31 CB        -55.1745  -23.4937   15.2988 C.3       11 UNK        -0.2019 
     32 N         -53.1226  -24.5268   16.2235 N.am      11 UNK        -0.4493 
     33 C         -53.4303  -25.1071   17.3944 C.2       11 UNK         0.4932 
     34 O         -54.4987  -25.6791   17.6195 O.2       11 UNK        -0.5029 
     35 CA        -52.3734  -25.0032   18.5127 C.3       10 UNK         0.0280 
     36 CB        -52.6922  -25.9017   19.7272 C.3       10 UNK        -0.1976 
     37 N         -51.0008  -25.2369   18.0527 N.am      10 UNK        -0.4242 
     38 C         -50.5060  -26.3294   17.4542 C.2       10 UNK         0.5072 
     39 O         -51.1818  -27.3173   17.1611 O.2       10 UNK        -0.5224 
     40 CA        -48.9906  -26.3117   17.1557 C.3       9 UNK         0.0343 
     41 CB        -48.5157  -27.5955   16.4497 C.3       9 UNK        -0.2003 
     42 N         -48.5803  -25.1494   16.3607 N.am      9 UNK        -0.4272 
     43 C         -48.4766  -23.8887   16.8049 C.2       9 UNK         0.4988 
     44 O         -48.6777  -23.5635   17.9763 O.2       9 UNK        -0.5108 
     45 CA        -48.1428  -22.7982   15.7717 C.3       8 UNK         0.0248 
     46 CB        -46.6224  -22.6752   15.5864 C.3       8 UNK        -0.2001 
     47 N         -48.7871  -23.0099   14.4719 N.am      8 UNK        -0.4140 
     48 C         -50.1138  -23.0394   14.2706 C.2       8 UNK         0.5028 
     49 O         -50.9496  -22.8534   15.1569 O.2       8 UNK        -0.5428 
     50 CA        -50.5893  -23.3935   12.8500 C.3       7 UNK         0.0264 
     51 CB        -50.4334  -22.2017   11.8927 C.3       7 UNK        -0.1988 
     52 N         -49.9006  -24.5665   12.3102 N.am      7 UNK        -0.4454 
     53 C         -49.9416  -25.7919   12.8556 C.2       7 UNK         0.5027 
     54 O         -50.6338  -26.0806   13.8323 O.2       7 UNK        -0.5083 
     55 CA        -49.0059  -26.8522   12.2424 C.3       6 UNK         0.0844 
     56 C56       -49.6513  -27.5276   11.0071 C.3       14 UNK        -0.0967 
     57 S57       -48.5474  -28.7695   10.2468 S.3       14 UNK        -0.2604 
     58 C58       -49.4400  -30.3227   10.5625 C.3       14 UNK         0.0134 
     59 N         -47.6938  -26.2726   11.9421 N.am      6 UNK        -0.4116 
     60 C         -46.7908  -25.8887   12.8531 C.2       5 UNK         0.5034 
     61 O         -46.9481  -26.0054   14.0666 O.2       5 UNK        -0.5045 
     62 CA        -45.5083  -25.2280   12.3189 C.3       5 UNK         0.0224 
     63 CB        -44.4697  -26.2952   11.9392 C.3       5 UNK        -0.1978 
     64 N         -45.7592  -24.3567   11.1674 N.am      5 UNK        -0.4737 
     65 C         -46.4746  -23.2241   11.2200 C.2       4 UNK         0.5027 
     66 O         -46.9352  -22.7571   12.2607 O.2       4 UNK        -0.5211 
     67 CA        -46.7787  -22.5323    9.8782 C.3       4 UNK         0.0297 
     68 CB        -45.6500  -21.5579    9.5075 C.3       4 UNK        -0.1993 
     69 N         -47.0059  -23.4721    8.7717 N.am      4 UNK        -0.4486 
     70 C         -47.9621  -24.4112    8.7559 C.2       3 UNK         0.4961 
     71 O         -48.7608  -24.5796    9.6794 O.2       3 UNK        -0.5105 
     72 CA        -47.9719  -25.3573    7.5420 C.3       3 UNK         0.0299 
     73 CB        -46.7739  -26.3214    7.6025 C.3       3 UNK        -0.1972 
     74 N         -49.1996  -26.1520    7.4599 N.am      3 UNK        -0.4305 
     75 C         -50.4114  -25.6724    7.1464 C.2       2 UNK         0.5006 
     76 O         -50.6285  -24.4946    6.8530 O.2       2 UNK        -0.5106 
     77 CA        -51.5613  -26.7029    7.1356 C.3       2 UNK         0.0296 
     78 CB        -52.8919  -26.1196    6.6153 C.3       2 UNK        -0.2002 
     79 N         -51.2242  -27.9351    6.4076 N.am      2 UNK        -0.4032 
     80 C         -50.8019  -28.0440    5.1357 C.2       1 UNK         0.5000 
     81 O         -50.6282  -27.0887    4.3734 O.2       1 UNK        -0.5238 
     82 H82       -50.1619  -29.6733    0.6693 H         1 UNK         0.0889 
     83 H83       -51.6314  -28.7306    0.4119 H         1 UNK         0.0889 
     84 H84       -51.7100  -30.4942    0.4611 H         1 UNK         0.0889 
     85 H85       -49.4956  -29.6016    2.8058 H         1 UNK         0.3028 
     86 H86       -51.3198  -30.0987    4.9903 H         1 UNK         0.0864 
     87 H87       -48.3132  -29.5114    4.8705 H         1 UNK         0.0720 
     88 H88       -49.1281  -29.7179    6.3839 H         1 UNK         0.0720 
     89 H89       -50.1657  -33.5110    6.4202 H         1 UNK         0.0814 
     90 H90       -51.2198  -32.6080    5.3680 H         1 UNK         0.0814 
     91 H91       -48.9965  -31.8286    8.3353 H         1 UNK         0.1469 
     92 H92       -52.0243  -29.4833   10.2693 H         1 UNK         0.1381 
     93 H93       -52.8519  -31.3616    6.5124 H         1 UNK         0.1206 
     94 H94       -53.8696  -28.6739    8.5511 H         1 UNK         0.0813 
     95 H95       -54.4754  -29.8847    7.4467 H         1 UNK         0.0813 
     96 H96       -56.6827  -28.9910    8.8326 H         1 UNK         0.0638 
     97 H97       -57.1658  -29.6587   10.3713 H         1 UNK         0.0638 
     98 H98       -55.1467  -27.4128    9.9193 H         1 UNK         0.0568 
     99 H99       -56.6189  -26.2459   12.5587 H         1 UNK         0.3450 
    100 H100      -57.9728  -25.4733   11.7708 H         1 UNK         0.3450 
    101 H101      -55.9049  -28.4939   12.5847 H         1 UNK         0.2987 
    102 H102      -54.4967  -28.5128   14.2101 H         1 UNK         0.0766 
    103 H103      -52.5923  -29.9179   13.4628 H         1 UNK         0.0798 
    104 H104      -52.1832  -29.0512   14.9374 H         1 UNK         0.0798 
    105 H105      -51.5433  -28.5126   13.3902 H         1 UNK         0.0798 
    106 H106      -52.4746  -26.4654   14.4872 H         1 UNK         0.3198 
    107 H107      -53.3772  -23.9734   14.2576 H         1 UNK         0.0843 
    108 H108      -55.7507  -23.3310   14.3871 H         1 UNK         0.0831 
    109 H109      -54.8398  -22.5169   15.6477 H         1 UNK         0.0831 
    110 H110      -55.8574  -23.9020   16.0444 H         1 UNK         0.0831 
    111 H111      -52.2159  -24.0764   16.1252 H         1 UNK         0.3133 
    112 H112      -52.4024  -23.9682   18.8560 H         1 UNK         0.0566 
    113 H113      -51.9497  -25.7820   20.5161 H         1 UNK         0.0814 
    114 H114      -52.7222  -26.9566   19.4516 H         1 UNK         0.0814 
    115 H115      -53.6624  -25.6502   20.1576 H         1 UNK         0.0814 
    116 H116      -50.3416  -24.4796   18.2166 H         1 UNK         0.3091 
    117 H117      -48.4799  -26.2612   18.1195 H         1 UNK         0.0702 
    118 H118      -47.4363  -27.5895   16.2977 H         1 UNK         0.0785 
    119 H119      -48.9914  -27.7154   15.4759 H         1 UNK         0.0785 
    120 H120      -48.7533  -28.4805   17.0413 H         1 UNK         0.0785 
    121 H121      -48.3520  -25.3361   15.3901 H         1 UNK         0.2998 
    122 H122      -48.5134  -21.8499   16.1661 H         1 UNK         0.0697 
    123 H123      -46.1906  -23.5881   15.1758 H         1 UNK         0.0825 
    124 H124      -46.1273  -22.4794   16.5385 H         1 UNK         0.0825 
    125 H125      -46.3696  -21.8546   14.9147 H         1 UNK         0.0825 
    126 H126      -48.1699  -23.1156   13.6697 H         1 UNK         0.3029 
    127 H127      -51.6492  -23.6412   12.8985 H         1 UNK         0.0897 
    128 H128      -49.3967  -21.8780   11.8086 H         1 UNK         0.0792 
    129 H129      -51.0125  -21.3461   12.2424 H         1 UNK         0.0792 
    130 H130      -50.7886  -22.4477   10.8916 H         1 UNK         0.0792 
    131 H131      -49.3522  -24.4350   11.4626 H         1 UNK         0.3086 
    132 H132      -48.8552  -27.6255   12.9986 H         1 UNK         0.0583 
    133 H133      -50.5921  -27.9973   11.2905 H         1 UNK         0.1020 
    134 H134      -49.9139  -26.7913   10.2477 H         1 UNK         0.1020 
    135 H135      -48.7117  -31.1297   10.6561 H         1 UNK         0.0694 
    136 H136      -49.9633  -30.2763   11.5188 H         1 UNK         0.0694 
    137 H137      -47.5064  -26.0921   10.9673 H         1 UNK         0.2989 
    138 H138      -45.0943  -24.6154   13.1230 H         1 UNK         0.1055 
    139 H139      -44.8186  -26.9307   11.1240 H         1 UNK         0.0806 
    140 H140      -43.5275  -25.8408   11.6324 H         1 UNK         0.0806 
    141 H141      -44.2521  -26.9453   12.7881 H         1 UNK         0.0806 
    142 H142      -45.4081  -24.6612   10.2712 H         1 UNK         0.3061 
    143 H143      -47.6964  -21.9554   10.0094 H         1 UNK         0.0734 
    144 H144      -44.7073  -22.0770    9.3300 H         1 UNK         0.0832 
    145 H145      -45.8949  -20.9876    8.6113 H         1 UNK         0.0832 
    146 H146      -45.4789  -20.8381   10.3094 H         1 UNK         0.0832 
    147 H147      -46.3847  -23.3978    7.9783 H         1 UNK         0.3156 
    148 H148      -47.8948  -24.7531    6.6358 H         1 UNK         0.0589 
    149 H149      -46.7664  -26.9975    6.7471 H         1 UNK         0.0808 
    150 H150      -45.8265  -25.7815    7.5879 H         1 UNK         0.0808 
    151 H151      -46.7876  -26.9298    8.5076 H         1 UNK         0.0808 
    152 H152      -49.1201  -27.1249    7.7154 H         1 UNK         0.3098 
    153 H153      -51.7166  -26.9928    8.1764 H         1 UNK         0.0720 
    154 H154      -53.6933  -26.8569    6.6586 H         1 UNK         0.0791 
    155 H155      -52.8063  -25.7786    5.5829 H         1 UNK         0.0791 
    156 H156      -53.2057  -25.2653    7.2163 H         1 UNK         0.0791 
    157 H157      -51.3124  -28.7876    6.9463 H         1 UNK         0.3028 
@<TRIPOS>BOND
     1    1    2 1    
     2    1   82 1    
     3    1   83 1    
     4    1   84 1    
     5    2    3 2    
     6    2    4 am   BACKBONE|DICT|INTERRES
     7    4    5 1    
     8    4   85 1    
     9    5    6 1    
    10    5   80 1    
    11    5   86 1    
    12    6    7 1    
    13    6   87 1    
    14    6   88 1    
    15    7    8 1    
    16    8    9 1    
    17    8   89 1    
    18    8   90 1    
    19    9   10 ar   
    20    9   14 ar   
    21   10   11 ar   
    22   10   91 1    
    23   11   12 ar   
    24   11   58 1    
    25   12   13 ar   
    26   12   92 1    
    27   13   14 ar   
    28   13   15 1    
    29   14   93 1    
    30   15   16 1    
    31   15   94 1    
    32   15   95 1    
    33   16   17 1    
    34   17   18 1    
    35   17   96 1    
    36   17   97 1    
    37   18   19 1    
    38   18   22 1    
    39   18   98 1    
    40   19   20 am   BACKBONE|DICT|INTERRES
    41   19   21 2    
    42   20   99 1    
    43   20  100 1    
    44   22   23 am   BACKBONE|DICT|INTERRES
    45   22  101 1    
    46   23   24 2    
    47   23   25 1    
    48   25   26 1    
    49   25   27 1    
    50   25  102 1    
    51   26  103 1    
    52   26  104 1    
    53   26  105 1    
    54   27   28 am   BACKBONE|DICT|INTERRES
    55   27  106 1    
    56   28   29 2    
    57   28   30 1    
    58   30   31 1    
    59   30   32 1    
    60   30  107 1    
    61   31  108 1    
    62   31  109 1    
    63   31  110 1    
    64   32   33 am   BACKBONE|DICT|INTERRES
    65   32  111 1    
    66   33   34 2    
    67   33   35 1    
    68   35   36 1    
    69   35   37 1    
    70   35  112 1    
    71   36  113 1    
    72   36  114 1    
    73   36  115 1    
    74   37   38 am   BACKBONE|DICT|INTERRES
    75   37  116 1    
    76   38   39 2    
    77   38   40 1    
    78   40   41 1    
    79   40   42 1    
    80   40  117 1    
    81   41  118 1    
    82   41  119 1    
    83   41  120 1    
    84   42   43 am   BACKBONE|DICT|INTERRES
    85   42  121 1    
    86   43   44 2    
    87   43   45 1    
    88   45   46 1    
    89   45   47 1    
    90   45  122 1    
    91   46  123 1    
    92   46  124 1    
    93   46  125 1    
    94   47   48 am   BACKBONE|DICT|INTERRES
    95   47  126 1    
    96   48   49 2    
    97   48   50 1    
    98   50   51 1    
    99   50   52 1    
   100   50  127 1    
   101   51  128 1    
   102   51  129 1    
   103   51  130 1    
   104   52   53 am   BACKBONE|DICT|INTERRES
   105   52  131 1    
   106   53   54 2    
   107   53   55 1    
   108   55   56 1    
   109   55   59 1    
   110   55  132 1    
   111   56   57 1    
   112   56  133 1    
   113   56  134 1    
   114   57   58 1    
   115   58  135 1    
   116   58  136 1    
   117   59   60 am   BACKBONE|DICT|INTERRES
   118   59  137 1    
   119   60   61 2    
   120   60   62 1    
   121   62   63 1    
   122   62   64 1    
   123   62  138 1    
   124   63  139 1    
   125   63  140 1    
   126   63  141 1    
   127   64   65 am   BACKBONE|DICT|INTERRES
   128   64  142 1    
   129   65   66 2    
   130   65   67 1    
   131   67   68 1    
   132   67   69 1    
   133   67  143 1    
   134   68  144 1    
   135   68  145 1    
   136   68  146 1    
   137   69   70 am   BACKBONE|DICT|INTERRES
   138   69  147 1    
   139   70   71 2    
   140   70   72 1    
   141   72   73 1    
   142   72   74 1    
   143   72  148 1    
   144   73  149 1    
   145   73  150 1    
   146   73  151 1    
   147   74   75 am   BACKBONE|DICT|INTERRES
   148   74  152 1    
   149   75   76 2    
   150   75   77 1    
   151   77   78 1    
   152   77   79 1    
   153   77  153 1    
   154   78  154 1    
   155   78  155 1    
   156   78  156 1    
   157   79   80 am   BACKBONE|DICT|INTERRES
   158   79  157 1    
   159   80   81 2    
@<TRIPOS>SUBSTRUCTURE
     1 UNK         1 GROUP             0       ****    0 ROOT    
