@<TRIPOS>MOLECULE
3R207
157   159    1
SMALL
USER_CHARGES


@<TRIPOS>ATOM
      1 CA        -46.7926  -31.8268    5.5096 C.3       0 UNK        -0.1975 
      2 C         -47.5386  -30.5889    5.9839 C.2       0 UNK         0.4852 
      3 O         -47.0696  -29.9100    6.8980 O.2       0 UNK        -0.5216 
      4 N         -48.6844  -30.2851    5.3566 N.am      1 UNK        -0.4461 
      5 CA        -49.6167  -29.1776    5.6323 C.3       1 UNK         0.0864 
      6 C6        -50.2286  -29.2025    7.0593 C.3       14 UNK        -0.0898 
      7 S7        -51.3392  -30.6271    7.2954 S.3       14 UNK        -0.2598 
      8 C8        -52.9224  -29.9507    6.6968 C.3       14 UNK         0.0286 
      9 C9        -53.6091  -29.0695    7.7317 C.ar      14 UNK        -0.0844 
     10 C10       -53.4227  -27.6838    7.7249 C.ar      14 UNK        -0.0881 
     11 C11       -54.0852  -26.8737    8.6505 C.ar      14 UNK        -0.0643 
     12 C12       -54.9420  -27.4622    9.5873 C.ar      14 UNK        -0.0930 
     13 C13       -55.1451  -28.8475    9.6072 C.ar      14 UNK        -0.0827 
     14 C14       -54.4734  -29.6423    8.6688 C.ar      14 UNK        -0.1249 
     15 C15       -56.1415  -29.4251   10.6154 C.3       14 UNK         0.0141 
     16 S16       -56.0947  -31.2387   10.8772 S.3       14 UNK        -0.2313 
     17 C17       -54.7439  -31.6837   12.0435 C.3       14 UNK        -0.0915 
     18 CA        -53.7683  -30.6138   12.6173 C.3       13 UNK         0.0968 
     19 C         -52.6811  -30.1423   11.6150 C.2       13 UNK         0.5732 
     20 N         -52.3928  -28.8527   11.4972 N.am      13 UNK        -0.7310 
     21 O         -52.0506  -30.9695   10.9624 O.2       13 UNK        -0.5035 
     22 N         -54.4445  -29.5505   13.3724 N.am      13 UNK        -0.4233 
     23 C         -54.9143  -29.6738   14.6191 C.2       13 UNK         0.4989 
     24 O         -54.7773  -30.6916   15.3007 O.2       13 UNK        -0.4996 
     25 CA        -55.6705  -28.4634   15.1976 C.3       12 UNK         0.0216 
     26 CB        -55.7649  -28.5042   16.7348 C.3       12 UNK        -0.1964 
     27 N         -55.0494  -27.2003   14.7910 N.am      12 UNK        -0.4276 
     28 C         -55.4804  -26.4148   13.7936 C.2       12 UNK         0.5020 
     29 O         -56.4399  -26.7077   13.0800 O.2       12 UNK        -0.5489 
     30 CA        -54.6970  -25.1225   13.4860 C.3       11 UNK         0.0294 
     31 CB        -55.6260  -23.9247   13.2010 C.3       11 UNK        -0.2019 
     32 N         -53.6641  -24.7755   14.4673 N.am      11 UNK        -0.4493 
     33 C         -53.8227  -24.4304   15.7536 C.2       11 UNK         0.4932 
     34 O         -54.9183  -24.2788   16.2959 O.2       11 UNK        -0.5029 
     35 CA        -52.5256  -24.2773   16.5755 C.3       10 UNK         0.0280 
     36 CB        -52.7726  -24.3280   18.0979 C.3       10 UNK        -0.1976 
     37 N         -51.4828  -25.2409   16.1929 N.am      10 UNK        -0.4242 
     38 C         -51.5834  -26.5813   16.1779 C.2       10 UNK         0.5072 
     39 O         -52.6063  -27.1818   16.5080 O.2       10 UNK        -0.5224 
     40 CA        -50.3850  -27.4073   15.6675 C.3       9 UNK         0.0343 
     41 CB        -50.8127  -28.3010   14.4922 C.3       9 UNK        -0.2003 
     42 N         -49.2464  -26.5941   15.2392 N.am      9 UNK        -0.4272 
     43 C         -48.3418  -26.0411   16.0571 C.2       9 UNK         0.4988 
     44 O         -48.3183  -26.2184   17.2752 O.2       9 UNK        -0.5108 
     45 CA        -47.3171  -25.0924   15.4103 C.3       8 UNK         0.0248 
     46 CB        -46.1028  -25.8816   14.8962 C.3       8 UNK        -0.2001 
     47 N         -47.8808  -24.2798   14.3242 N.am      8 UNK        -0.4140 
     48 C         -48.8837  -23.4005   14.4741 C.2       8 UNK         0.5028 
     49 O         -49.4248  -23.1628   15.5541 O.2       8 UNK        -0.5428 
     50 CA        -49.4109  -22.7014   13.2102 C.3       7 UNK         0.0264 
     51 CB        -48.4695  -21.5658   12.7795 C.3       7 UNK        -0.1988 
     52 N         -49.6355  -23.6204   12.0911 N.am      7 UNK        -0.4454 
     53 C         -50.5083  -24.6404   12.1053 C.2       7 UNK         0.5027 
     54 O         -51.2340  -24.9027   13.0660 O.2       7 UNK        -0.5083 
     55 CA        -50.5367  -25.5650   10.8662 C.3       6 UNK         0.0844 
     56 C56       -51.3170  -24.9589    9.6722 C.3       14 UNK        -0.0967 
     57 S57       -53.0824  -24.6627   10.0370 S.3       14 UNK        -0.2604 
     58 C58       -53.9360  -25.3586    8.5878 C.3       14 UNK         0.0134 
     59 N         -49.1865  -25.9743   10.4738 N.am      6 UNK        -0.4116 
     60 C         -48.3194  -26.6309   11.2589 C.2       5 UNK         0.5034 
     61 O         -48.5831  -27.0444   12.3875 O.2       5 UNK        -0.5045 
     62 CA        -46.8933  -26.7948   10.7148 C.3       5 UNK         0.0224 
     63 CB        -46.8139  -27.9542    9.7088 C.3       5 UNK        -0.1978 
     64 N         -46.3996  -25.5575   10.1032 N.am      5 UNK        -0.4737 
     65 C         -46.1116  -24.4423   10.7902 C.2       4 UNK         0.5027 
     66 O         -46.1939  -24.3546   12.0137 O.2       4 UNK        -0.5211 
     67 CA        -45.6951  -23.2058    9.9767 C.3       4 UNK         0.0297 
     68 CB        -44.1928  -23.2524    9.6567 C.3       4 UNK        -0.1993 
     69 N         -46.4583  -23.0578    8.7361 N.am      4 UNK        -0.4486 
     70 C         -47.7758  -22.8153    8.6763 C.2       3 UNK         0.4961 
     71 O         -48.4902  -22.6453    9.6630 O.2       3 UNK        -0.5105 
     72 CA        -48.4136  -22.8311    7.2766 C.3       3 UNK         0.0299 
     73 CB        -48.2541  -21.4651    6.5911 C.3       3 UNK        -0.1972 
     74 N         -47.8716  -23.8883    6.4149 N.am      3 UNK        -0.4305 
     75 C         -47.9410  -25.1964    6.6963 C.2       2 UNK         0.5006 
     76 O         -48.4770  -25.6490    7.7117 O.2       2 UNK        -0.5106 
     77 CA        -47.2342  -26.1480    5.7173 C.3       2 UNK         0.0296 
     78 CB        -45.7435  -26.2707    6.0742 C.3       2 UNK        -0.2002 
     79 N         -47.8371  -27.4789    5.7526 N.am      2 UNK        -0.4032 
     80 C         -49.0611  -27.7769    5.3046 C.2       1 UNK         0.5000 
     81 O         -49.7588  -26.9914    4.6592 O.2       1 UNK        -0.5238 
     82 H82       -47.3128  -32.3313    4.6956 H         1 UNK         0.0889 
     83 H83       -46.6826  -32.5339    6.3313 H         1 UNK         0.0889 
     84 H84       -45.7976  -31.5535    5.1595 H         1 UNK         0.0889 
     85 H85       -48.9780  -30.8856    4.5985 H         1 UNK         0.3028 
     86 H86       -50.4351  -29.3244    4.9256 H         1 UNK         0.0864 
     87 H87       -49.4479  -29.2450    7.8199 H         1 UNK         0.0720 
     88 H88       -50.7804  -28.2872    7.2706 H         1 UNK         0.0720 
     89 H89       -52.7647  -29.3981    5.7696 H         1 UNK         0.0814 
     90 H90       -53.5775  -30.7840    6.4379 H         1 UNK         0.0814 
     91 H91       -52.7815  -27.2309    6.9816 H         1 UNK         0.1469 
     92 H92       -55.4699  -26.8319   10.2908 H         1 UNK         0.1381 
     93 H93       -54.6214  -30.7124    8.6513 H         1 UNK         0.1206 
     94 H94       -57.1356  -29.1970   10.2290 H         1 UNK         0.0813 
     95 H95       -56.0897  -28.8991   11.5644 H         1 UNK         0.0813 
     96 H96       -54.1697  -32.4801   11.5671 H         1 UNK         0.0638 
     97 H97       -55.2334  -32.1765   12.8846 H         1 UNK         0.0638 
     98 H98       -53.1584  -31.1438   13.3518 H         1 UNK         0.0568 
     99 H99       -52.8602  -28.1464   12.0340 H         1 UNK         0.3450 
    100 H100      -51.6905  -28.5954   10.8243 H         1 UNK         0.3450 
    101 H101      -54.6214  -28.6932   12.8731 H         1 UNK         0.2987 
    102 H102      -56.6896  -28.5188   14.8095 H         1 UNK         0.0766 
    103 H103      -56.2841  -27.6278   17.1234 H         1 UNK         0.0798 
    104 H104      -54.7796  -28.5428   17.2002 H         1 UNK         0.0798 
    105 H105      -56.3182  -29.3822   17.0706 H         1 UNK         0.0798 
    106 H106      -54.2254  -26.9277   15.3206 H         1 UNK         0.3198 
    107 H107      -54.1526  -25.3376   12.5681 H         1 UNK         0.0843 
    108 H108      -55.0541  -23.0340   12.9412 H         1 UNK         0.0831 
    109 H109      -56.2553  -23.6850   14.0582 H         1 UNK         0.0831 
    110 H110      -56.2893  -24.1361   12.3613 H         1 UNK         0.0831 
    111 H111      -52.7091  -24.8525   14.1137 H         1 UNK         0.3133 
    112 H112      -52.1299  -23.2895   16.3360 H         1 UNK         0.0566 
    113 H113      -51.8443  -24.1983   18.6540 H         1 UNK         0.0814 
    114 H114      -53.4507  -23.5336   18.4119 H         1 UNK         0.0814 
    115 H115      -53.2177  -25.2757   18.4034 H         1 UNK         0.0814 
    116 H116      -50.6160  -24.8206   15.8737 H         1 UNK         0.3091 
    117 H117      -50.0672  -28.0535   16.4880 H         1 UNK         0.0702 
    118 H118      -51.6353  -28.9615   14.7694 H         1 UNK         0.0785 
    119 H119      -49.9915  -28.9323   14.1524 H         1 UNK         0.0785 
    120 H120      -51.1414  -27.6999   13.6448 H         1 UNK         0.0785 
    121 H121      -49.1526  -26.4444   14.2388 H         1 UNK         0.2998 
    122 H122      -46.9719  -24.4055   16.1857 H         1 UNK         0.0697 
    123 H123      -46.3768  -26.5605   14.0880 H         1 UNK         0.0825 
    124 H124      -45.6598  -26.4817   15.6921 H         1 UNK         0.0825 
    125 H125      -45.3255  -25.2144   14.5231 H         1 UNK         0.0825 
    126 H126      -47.4476  -24.3823   13.4083 H         1 UNK         0.3029 
    127 H127      -50.3770  -22.2589   13.4628 H         1 UNK         0.0897 
    128 H128      -48.8831  -21.0054   11.9408 H         1 UNK         0.0792 
    129 H129      -48.3113  -20.8589   13.5951 H         1 UNK         0.0792 
    130 H130      -47.4918  -21.9425   12.4792 H         1 UNK         0.0792 
    131 H131      -49.1083  -23.4347   11.2400 H         1 UNK         0.3086 
    132 H132      -51.0550  -26.4759   11.1665 H         1 UNK         0.0583 
    133 H133      -50.8661  -24.0178    9.3533 H         1 UNK         0.1020 
    134 H134      -51.2438  -25.6295    8.8143 H         1 UNK         0.1020 
    135 H135      -54.9311  -24.9152    8.5311 H         1 UNK         0.0694 
    136 H136      -53.4172  -25.0489    7.6791 H         1 UNK         0.0694 
    137 H137      -48.8829  -25.7117    9.5388 H         1 UNK         0.2989 
    138 H138      -46.2444  -27.0355   11.5600 H         1 UNK         0.1055 
    139 H139      -47.1406  -28.8889   10.1667 H         1 UNK         0.0806 
    140 H140      -45.7938  -28.1084    9.3569 H         1 UNK         0.0806 
    141 H141      -47.4463  -27.7876    8.8371 H         1 UNK         0.0806 
    142 H142      -46.3615  -25.5283    9.0955 H         1 UNK         0.3061 
    143 H143      -45.8848  -22.3244   10.5930 H         1 UNK         0.0734 
    144 H144      -43.8652  -22.3426    9.1532 H         1 UNK         0.0832 
    145 H145      -43.6039  -23.3438   10.5706 H         1 UNK         0.0832 
    146 H146      -43.9383  -24.1006    9.0199 H         1 UNK         0.0832 
    147 H147      -45.9545  -23.1786    7.8700 H         1 UNK         0.3156 
    148 H148      -49.4808  -23.0247    7.4033 H         1 UNK         0.0589 
    149 H149      -47.2072  -21.2228    6.4041 H         1 UNK         0.0808 
    150 H150      -48.7818  -21.4353    5.6376 H         1 UNK         0.0808 
    151 H151      -48.6668  -20.6682    7.2117 H         1 UNK         0.0808 
    152 H152      -47.4128  -23.5939    5.5642 H         1 UNK         0.3098 
    153 H153      -47.3291  -25.7505    4.7047 H         1 UNK         0.0720 
    154 H154      -45.2230  -26.9222    5.3718 H         1 UNK         0.0791 
    155 H155      -45.5989  -26.6799    7.0749 H         1 UNK         0.0791 
    156 H156      -45.2465  -25.3004    6.0408 H         1 UNK         0.0791 
    157 H157      -47.3592  -28.1991    6.2901 H         1 UNK         0.3028 
@<TRIPOS>BOND
     1    1    2 1    
     2    1   82 1    
     3    1   83 1    
     4    1   84 1    
     5    2    3 2    
     6    2    4 am   BACKBONE|DICT|INTERRES
     7    4    5 1    
     8    4   85 1    
     9    5    6 1    
    10    5   80 1    
    11    5   86 1    
    12    6    7 1    
    13    6   87 1    
    14    6   88 1    
    15    7    8 1    
    16    8    9 1    
    17    8   89 1    
    18    8   90 1    
    19    9   10 ar   
    20    9   14 ar   
    21   10   11 ar   
    22   10   91 1    
    23   11   12 ar   
    24   11   58 1    
    25   12   13 ar   
    26   12   92 1    
    27   13   14 ar   
    28   13   15 1    
    29   14   93 1    
    30   15   16 1    
    31   15   94 1    
    32   15   95 1    
    33   16   17 1    
    34   17   18 1    
    35   17   96 1    
    36   17   97 1    
    37   18   19 1    
    38   18   22 1    
    39   18   98 1    
    40   19   20 am   BACKBONE|DICT|INTERRES
    41   19   21 2    
    42   20   99 1    
    43   20  100 1    
    44   22   23 am   BACKBONE|DICT|INTERRES
    45   22  101 1    
    46   23   24 2    
    47   23   25 1    
    48   25   26 1    
    49   25   27 1    
    50   25  102 1    
    51   26  103 1    
    52   26  104 1    
    53   26  105 1    
    54   27   28 am   BACKBONE|DICT|INTERRES
    55   27  106 1    
    56   28   29 2    
    57   28   30 1    
    58   30   31 1    
    59   30   32 1    
    60   30  107 1    
    61   31  108 1    
    62   31  109 1    
    63   31  110 1    
    64   32   33 am   BACKBONE|DICT|INTERRES
    65   32  111 1    
    66   33   34 2    
    67   33   35 1    
    68   35   36 1    
    69   35   37 1    
    70   35  112 1    
    71   36  113 1    
    72   36  114 1    
    73   36  115 1    
    74   37   38 am   BACKBONE|DICT|INTERRES
    75   37  116 1    
    76   38   39 2    
    77   38   40 1    
    78   40   41 1    
    79   40   42 1    
    80   40  117 1    
    81   41  118 1    
    82   41  119 1    
    83   41  120 1    
    84   42   43 am   BACKBONE|DICT|INTERRES
    85   42  121 1    
    86   43   44 2    
    87   43   45 1    
    88   45   46 1    
    89   45   47 1    
    90   45  122 1    
    91   46  123 1    
    92   46  124 1    
    93   46  125 1    
    94   47   48 am   BACKBONE|DICT|INTERRES
    95   47  126 1    
    96   48   49 2    
    97   48   50 1    
    98   50   51 1    
    99   50   52 1    
   100   50  127 1    
   101   51  128 1    
   102   51  129 1    
   103   51  130 1    
   104   52   53 am   BACKBONE|DICT|INTERRES
   105   52  131 1    
   106   53   54 2    
   107   53   55 1    
   108   55   56 1    
   109   55   59 1    
   110   55  132 1    
   111   56   57 1    
   112   56  133 1    
   113   56  134 1    
   114   57   58 1    
   115   58  135 1    
   116   58  136 1    
   117   59   60 am   BACKBONE|DICT|INTERRES
   118   59  137 1    
   119   60   61 2    
   120   60   62 1    
   121   62   63 1    
   122   62   64 1    
   123   62  138 1    
   124   63  139 1    
   125   63  140 1    
   126   63  141 1    
   127   64   65 am   BACKBONE|DICT|INTERRES
   128   64  142 1    
   129   65   66 2    
   130   65   67 1    
   131   67   68 1    
   132   67   69 1    
   133   67  143 1    
   134   68  144 1    
   135   68  145 1    
   136   68  146 1    
   137   69   70 am   BACKBONE|DICT|INTERRES
   138   69  147 1    
   139   70   71 2    
   140   70   72 1    
   141   72   73 1    
   142   72   74 1    
   143   72  148 1    
   144   73  149 1    
   145   73  150 1    
   146   73  151 1    
   147   74   75 am   BACKBONE|DICT|INTERRES
   148   74  152 1    
   149   75   76 2    
   150   75   77 1    
   151   77   78 1    
   152   77   79 1    
   153   77  153 1    
   154   78  154 1    
   155   78  155 1    
   156   78  156 1    
   157   79   80 am   BACKBONE|DICT|INTERRES
   158   79  157 1    
   159   80   81 2    
@<TRIPOS>SUBSTRUCTURE
     1 UNK         1 GROUP             0       ****    0 ROOT    
