@<TRIPOS>MOLECULE
3R207
157   159    1
SMALL
USER_CHARGES


@<TRIPOS>ATOM
      1 CA        -51.5924  -24.6592    4.6686 C.3       0 UNK        -0.1975 
      2 C         -51.7613  -25.5128    3.4136 C.2       0 UNK         0.4852 
      3 O         -52.2797  -25.0178    2.4141 O.2       0 UNK        -0.5216 
      4 N         -51.3617  -26.7926    3.4130 N.am      1 UNK        -0.4461 
      5 CA        -50.6446  -27.4925    4.4828 C.3       1 UNK         0.0864 
      6 C6        -50.8489  -29.0233    4.3739 C.3       14 UNK        -0.0898 
      7 S7        -50.5411  -29.8954    5.9471 S.3       14 UNK        -0.2598 
      8 C8        -52.1899  -29.8802    6.7247 C.3       14 UNK         0.0286 
      9 C9        -52.1918  -29.0285    7.9845 C.ar      14 UNK        -0.0844 
     10 C10       -52.4609  -27.6574    7.9171 C.ar      14 UNK        -0.0881 
     11 C11       -52.4362  -26.8699    9.0719 C.ar      14 UNK        -0.0643 
     12 C12       -52.1861  -27.4766   10.3048 C.ar      14 UNK        -0.0930 
     13 C13       -51.9367  -28.8478   10.3911 C.ar      14 UNK        -0.0827 
     14 C14       -51.9269  -29.6170    9.2247 C.ar      14 UNK        -0.1249 
     15 C15       -51.6650  -29.4933   11.7414 C.3       14 UNK         0.0141 
     16 S16       -53.0750  -30.5082   12.2783 S.3       14 UNK        -0.2313 
     17 C17       -52.4959  -31.0631   13.9177 C.3       14 UNK        -0.0915 
     18 CA        -53.6520  -31.2717   14.9340 C.3       13 UNK         0.0968 
     19 C         -53.1012  -31.7514   16.3090 C.2       13 UNK         0.5732 
     20 N         -53.2723  -31.0067   17.3949 N.am      13 UNK        -0.7310 
     21 O         -52.5107  -32.8258   16.3910 O.2       13 UNK        -0.5035 
     22 N         -54.5456  -30.1035   14.9886 N.am      13 UNK        -0.4233 
     23 C         -55.7977  -30.1012   15.4644 C.2       13 UNK         0.4989 
     24 O         -56.3375  -31.0770   15.9862 O.2       13 UNK        -0.4996 
     25 CA        -56.5909  -28.7883   15.3270 C.3       12 UNK         0.0216 
     26 CB        -56.5754  -28.0043   16.6497 C.3       12 UNK        -0.1964 
     27 N         -56.0896  -27.9281   14.2509 N.am      12 UNK        -0.4276 
     28 C         -56.2781  -28.1410   12.9406 C.2       12 UNK         0.5020 
     29 O         -56.9618  -29.0656   12.4991 O.2       12 UNK        -0.5489 
     30 CA        -55.5582  -27.1980   11.9534 C.3       11 UNK         0.0294 
     31 CB        -56.4963  -26.6848   10.8418 C.3       11 UNK        -0.2019 
     32 N         -54.8255  -26.0915   12.5874 N.am      11 UNK        -0.4493 
     33 C         -55.3073  -25.0308   13.2487 C.2       11 UNK         0.4932 
     34 O         -56.5063  -24.8205   13.4327 O.2       11 UNK        -0.5029 
     35 CA        -54.2512  -24.0798   13.8494 C.3       10 UNK         0.0280 
     36 CB        -54.8767  -22.8061   14.4480 C.3       10 UNK        -0.1976 
     37 N         -53.4231  -24.7289   14.8741 N.am      10 UNK        -0.4242 
     38 C         -52.4601  -25.6279   14.6339 C.2       10 UNK         0.5072 
     39 O         -52.2128  -26.0775   13.5155 O.2       10 UNK        -0.5224 
     40 CA        -51.6716  -26.1534   15.8330 C.3       9 UNK         0.0343 
     41 CB        -52.1255  -27.5763   16.2057 C.3       9 UNK        -0.2003 
     42 N         -50.2540  -26.1464   15.4831 N.am      9 UNK        -0.4272 
     43 C         -49.2520  -26.0855   16.3686 C.2       9 UNK         0.4988 
     44 O         -49.4129  -26.1228   17.5896 O.2       9 UNK        -0.5108 
     45 CA        -47.8288  -25.9256   15.8085 C.3       8 UNK         0.0248 
     46 CB        -47.2654  -27.2770   15.3391 C.3       8 UNK        -0.2001 
     47 N         -47.7511  -24.9392   14.7267 N.am      8 UNK        -0.4140 
     48 C         -47.9507  -23.6213   14.8872 C.2       8 UNK         0.5028 
     49 O         -48.1779  -23.0902   15.9753 O.2       8 UNK        -0.5428 
     50 CA        -47.8853  -22.7369   13.6300 C.3       7 UNK         0.0264 
     51 CB        -46.4351  -22.3187   13.3398 C.3       7 UNK        -0.1988 
     52 N         -48.4636  -23.3837   12.4502 N.am      7 UNK        -0.4454 
     53 C         -49.7742  -23.6176   12.2842 C.2       7 UNK         0.5027 
     54 O         -50.6363  -23.2015   13.0586 O.2       7 UNK        -0.5083 
     55 CA        -50.2023  -24.4716   11.0705 C.3       6 UNK         0.0844 
     56 C56       -50.6127  -23.5822    9.8724 C.3       14 UNK        -0.0967 
     57 S57       -51.1804  -24.5024    8.3976 S.3       14 UNK        -0.2604 
     58 C58       -52.6764  -25.3688    8.9788 C.3       14 UNK         0.0134 
     59 N         -49.2102  -25.4920   10.7170 N.am      6 UNK        -0.4116 
     60 C         -48.8775  -26.5270   11.5027 C.2       5 UNK         0.5034 
     61 O         -49.3697  -26.7429   12.6095 O.2       5 UNK        -0.5045 
     62 CA        -47.7509  -27.4385   10.9988 C.3       5 UNK         0.0224 
     63 CB        -48.2501  -28.4015    9.9084 C.3       5 UNK        -0.1978 
     64 N         -46.6175  -26.6549   10.5048 N.am      5 UNK        -0.4737 
     65 C         -45.7937  -25.9516   11.2953 C.2       4 UNK         0.5027 
     66 O         -45.8830  -25.9264   12.5220 O.2       4 UNK        -0.5211 
     67 CA        -44.7081  -25.1095   10.6035 C.3       4 UNK         0.0297 
     68 CB        -43.4483  -25.9544   10.3572 C.3       4 UNK        -0.1993 
     69 N         -45.1574  -24.5196    9.3404 N.am      4 UNK        -0.4486 
     70 C         -46.1245  -23.5972    9.2351 C.2       3 UNK         0.4961 
     71 O         -46.7207  -23.1146   10.1955 O.2       3 UNK        -0.5105 
     72 CA        -46.5358  -23.1844    7.8128 C.3       3 UNK         0.0299 
     73 CB        -45.6241  -22.0635    7.2893 C.3       3 UNK        -0.1972 
     74 N         -46.5505  -24.2993    6.8590 N.am      3 UNK        -0.4305 
     75 C         -47.3029  -25.3994    6.9924 C.2       2 UNK         0.5006 
     76 O         -48.0200  -25.6313    7.9684 O.2       2 UNK        -0.5106 
     77 CA        -47.2208  -26.4341    5.8705 C.3       2 UNK         0.0296 
     78 CB        -46.2877  -27.5917    6.2634 C.3       2 UNK        -0.2002 
     79 N         -48.5697  -26.9433    5.6556 N.am      2 UNK        -0.4032 
     80 C         -49.1530  -27.1046    4.4644 C.2       1 UNK         0.5000 
     81 O         -48.5744  -26.9523    3.3848 O.2       1 UNK        -0.5238 
     82 H82       -51.9394  -23.6421    4.4875 H         1 UNK         0.0889 
     83 H83       -50.5490  -24.5985    4.9750 H         1 UNK         0.0889 
     84 H84       -52.1796  -25.0635    5.4922 H         1 UNK         0.0889 
     85 H85       -51.4601  -27.3174    2.5557 H         1 UNK         0.3028 
     86 H86       -51.0656  -27.1654    5.4323 H         1 UNK         0.0864 
     87 H87       -50.2031  -29.4518    3.6045 H         1 UNK         0.0720 
     88 H88       -51.8661  -29.2504    4.0512 H         1 UNK         0.0720 
     89 H89       -52.9509  -29.5194    6.0317 H         1 UNK         0.0814 
     90 H90       -52.4711  -30.9059    6.9682 H         1 UNK         0.0814 
     91 H91       -52.6816  -27.1958    6.9662 H         1 UNK         0.1469 
     92 H92       -52.1788  -26.8831   11.2032 H         1 UNK         0.1381 
     93 H93       -51.7222  -30.6771    9.2860 H         1 UNK         0.1206 
     94 H94       -50.7736  -30.1185   11.6779 H         1 UNK         0.0813 
     95 H95       -51.4574  -28.7300   12.4942 H         1 UNK         0.0813 
     96 H96       -51.7775  -30.3400   14.3063 H         1 UNK         0.0638 
     97 H97       -51.9420  -31.9928   13.7751 H         1 UNK         0.0638 
     98 H98       -54.2550  -32.1017   14.5611 H         1 UNK         0.0568 
     99 H99       -52.9131  -31.3344   18.2774 H         1 UNK         0.3450 
    100 H100      -53.7700  -30.1340   17.3442 H         1 UNK         0.3450 
    101 H101      -54.1951  -29.2658   14.5525 H         1 UNK         0.2987 
    102 H102      -57.6258  -29.0538   15.1002 H         1 UNK         0.0766 
    103 H103      -56.9720  -28.6100   17.4660 H         1 UNK         0.0798 
    104 H104      -57.1935  -27.1084   16.5858 H         1 UNK         0.0798 
    105 H105      -55.5685  -27.6974   16.9324 H         1 UNK         0.0798 
    106 H106      -55.5568  -27.1147   14.5197 H         1 UNK         0.3198 
    107 H107      -54.7982  -27.8155   11.4723 H         1 UNK         0.0843 
    108 H108      -57.3267  -26.1047   11.2448 H         1 UNK         0.0831 
    109 H109      -56.9256  -27.5152   10.2798 H         1 UNK         0.0831 
    110 H110      -55.9597  -26.0581   10.1295 H         1 UNK         0.0831 
    111 H111      -53.8110  -26.1906   12.6083 H         1 UNK         0.3133 
    112 H112      -53.5979  -23.7694   13.0306 H         1 UNK         0.0566 
    113 H113      -55.5272  -23.0322   15.2939 H         1 UNK         0.0814 
    114 H114      -55.4784  -22.2803   13.7053 H         1 UNK         0.0814 
    115 H115      -54.1095  -22.1108   14.7895 H         1 UNK         0.0814 
    116 H116      -53.5867  -24.4387   15.8276 H         1 UNK         0.3091 
    117 H117      -51.8344  -25.4862   16.6822 H         1 UNK         0.0702 
    118 H118      -51.5834  -27.9548   17.0724 H         1 UNK         0.0785 
    119 H119      -51.9638  -28.2712   15.3822 H         1 UNK         0.0785 
    120 H120      -53.1862  -27.5967   16.4539 H         1 UNK         0.0785 
    121 H121      -50.0523  -26.1410   14.4851 H         1 UNK         0.2998 
    122 H122      -47.1944  -25.5677   16.6222 H         1 UNK         0.0697 
    123 H123      -46.2320  -27.1813   15.0057 H         1 UNK         0.0825 
    124 H124      -47.8440  -27.6974   14.5169 H         1 UNK         0.0825 
    125 H125      -47.2779  -28.0059   16.1504 H         1 UNK         0.0825 
    126 H126      -47.5160  -25.2911   13.8056 H         1 UNK         0.3029 
    127 H127      -48.4619  -21.8320   13.8344 H         1 UNK         0.0897 
    128 H128      -45.8076  -23.1772   13.0996 H         1 UNK         0.0792 
    129 H129      -45.9917  -21.8214   14.2035 H         1 UNK         0.0792 
    130 H130      -46.3835  -21.6213   12.5036 H         1 UNK         0.0792 
    131 H131      -47.8187  -23.6450   11.7092 H         1 UNK         0.3086 
    132 H132      -51.0956  -25.0005   11.3951 H         1 UNK         0.0583 
    133 H133      -51.4059  -22.8918   10.1662 H         1 UNK         0.1020 
    134 H134      -49.7700  -22.9595    9.5651 H         1 UNK         0.1020 
    135 H135      -53.0067  -24.9660    9.9373 H         1 UNK         0.0694 
    136 H136      -53.4878  -25.1758    8.2757 H         1 UNK         0.0694 
    137 H137      -48.7802  -25.4138    9.7997 H         1 UNK         0.2989 
    138 H138      -47.4045  -28.0376   11.8443 H         1 UNK         0.1055 
    139 H139      -49.0034  -29.0784   10.3100 H         1 UNK         0.0806 
    140 H140      -47.4407  -29.0184    9.5186 H         1 UNK         0.0806 
    141 H141      -48.7096  -27.8777    9.0700 H         1 UNK         0.0806 
    142 H142      -46.5353  -26.5545    9.5027 H         1 UNK         0.3061 
    143 H143      -44.4440  -24.2925   11.2784 H         1 UNK         0.0734 
    144 H144      -43.6404  -26.7789    9.6693 H         1 UNK         0.0832 
    145 H145      -42.6396  -25.3515    9.9438 H         1 UNK         0.0832 
    146 H146      -43.0827  -26.3873   11.2896 H         1 UNK         0.0832 
    147 H147      -44.7251  -24.8587    8.4935 H         1 UNK         0.3156 
    148 H148      -47.5543  -22.7942    7.8705 H         1 UNK         0.0589 
    149 H149      -45.9687  -21.6884    6.3255 H         1 UNK         0.0808 
    150 H150      -44.5933  -22.4000    7.1710 H         1 UNK         0.0808 
    151 H151      -45.6133  -21.2172    7.9779 H         1 UNK         0.0808 
    152 H152      -45.9804  -24.1951    6.0315 H         1 UNK         0.3098 
    153 H153      -46.8423  -25.9506    4.9672 H         1 UNK         0.0720 
    154 H154      -45.2729  -27.2351    6.4436 H         1 UNK         0.0791 
    155 H155      -46.2333  -28.3384    5.4710 H         1 UNK         0.0791 
    156 H156      -46.6262  -28.0943    7.1704 H         1 UNK         0.0791 
    157 H157      -49.1154  -27.0442    6.5026 H         1 UNK         0.3028 
@<TRIPOS>BOND
     1    1    2 1    
     2    1   82 1    
     3    1   83 1    
     4    1   84 1    
     5    2    3 2    
     6    2    4 am   BACKBONE|DICT|INTERRES
     7    4    5 1    
     8    4   85 1    
     9    5    6 1    
    10    5   80 1    
    11    5   86 1    
    12    6    7 1    
    13    6   87 1    
    14    6   88 1    
    15    7    8 1    
    16    8    9 1    
    17    8   89 1    
    18    8   90 1    
    19    9   10 ar   
    20    9   14 ar   
    21   10   11 ar   
    22   10   91 1    
    23   11   12 ar   
    24   11   58 1    
    25   12   13 ar   
    26   12   92 1    
    27   13   14 ar   
    28   13   15 1    
    29   14   93 1    
    30   15   16 1    
    31   15   94 1    
    32   15   95 1    
    33   16   17 1    
    34   17   18 1    
    35   17   96 1    
    36   17   97 1    
    37   18   19 1    
    38   18   22 1    
    39   18   98 1    
    40   19   20 am   BACKBONE|DICT|INTERRES
    41   19   21 2    
    42   20   99 1    
    43   20  100 1    
    44   22   23 am   BACKBONE|DICT|INTERRES
    45   22  101 1    
    46   23   24 2    
    47   23   25 1    
    48   25   26 1    
    49   25   27 1    
    50   25  102 1    
    51   26  103 1    
    52   26  104 1    
    53   26  105 1    
    54   27   28 am   BACKBONE|DICT|INTERRES
    55   27  106 1    
    56   28   29 2    
    57   28   30 1    
    58   30   31 1    
    59   30   32 1    
    60   30  107 1    
    61   31  108 1    
    62   31  109 1    
    63   31  110 1    
    64   32   33 am   BACKBONE|DICT|INTERRES
    65   32  111 1    
    66   33   34 2    
    67   33   35 1    
    68   35   36 1    
    69   35   37 1    
    70   35  112 1    
    71   36  113 1    
    72   36  114 1    
    73   36  115 1    
    74   37   38 am   BACKBONE|DICT|INTERRES
    75   37  116 1    
    76   38   39 2    
    77   38   40 1    
    78   40   41 1    
    79   40   42 1    
    80   40  117 1    
    81   41  118 1    
    82   41  119 1    
    83   41  120 1    
    84   42   43 am   BACKBONE|DICT|INTERRES
    85   42  121 1    
    86   43   44 2    
    87   43   45 1    
    88   45   46 1    
    89   45   47 1    
    90   45  122 1    
    91   46  123 1    
    92   46  124 1    
    93   46  125 1    
    94   47   48 am   BACKBONE|DICT|INTERRES
    95   47  126 1    
    96   48   49 2    
    97   48   50 1    
    98   50   51 1    
    99   50   52 1    
   100   50  127 1    
   101   51  128 1    
   102   51  129 1    
   103   51  130 1    
   104   52   53 am   BACKBONE|DICT|INTERRES
   105   52  131 1    
   106   53   54 2    
   107   53   55 1    
   108   55   56 1    
   109   55   59 1    
   110   55  132 1    
   111   56   57 1    
   112   56  133 1    
   113   56  134 1    
   114   57   58 1    
   115   58  135 1    
   116   58  136 1    
   117   59   60 am   BACKBONE|DICT|INTERRES
   118   59  137 1    
   119   60   61 2    
   120   60   62 1    
   121   62   63 1    
   122   62   64 1    
   123   62  138 1    
   124   63  139 1    
   125   63  140 1    
   126   63  141 1    
   127   64   65 am   BACKBONE|DICT|INTERRES
   128   64  142 1    
   129   65   66 2    
   130   65   67 1    
   131   67   68 1    
   132   67   69 1    
   133   67  143 1    
   134   68  144 1    
   135   68  145 1    
   136   68  146 1    
   137   69   70 am   BACKBONE|DICT|INTERRES
   138   69  147 1    
   139   70   71 2    
   140   70   72 1    
   141   72   73 1    
   142   72   74 1    
   143   72  148 1    
   144   73  149 1    
   145   73  150 1    
   146   73  151 1    
   147   74   75 am   BACKBONE|DICT|INTERRES
   148   74  152 1    
   149   75   76 2    
   150   75   77 1    
   151   77   78 1    
   152   77   79 1    
   153   77  153 1    
   154   78  154 1    
   155   78  155 1    
   156   78  156 1    
   157   79   80 am   BACKBONE|DICT|INTERRES
   158   79  157 1    
   159   80   81 2    
@<TRIPOS>SUBSTRUCTURE
     1 UNK         1 GROUP             0       ****    0 ROOT    
