@<TRIPOS>MOLECULE
3R207
157   159    1
SMALL
USER_CHARGES


@<TRIPOS>ATOM
      1 CA        -44.8777  -31.0148    3.8207 C.3       0 UNK        -0.1975 
      2 C         -45.8917  -30.2621    4.6695 C.2       0 UNK         0.4852 
      3 O         -45.5788  -29.8775    5.7976 O.2       0 UNK        -0.5216 
      4 N         -47.0989  -30.0329    4.1310 N.am      1 UNK        -0.4461 
      5 CA        -48.2474  -29.3505    4.7509 C.3       1 UNK         0.0864 
      6 C6        -48.7068  -30.0254    6.0729 C.3       14 UNK        -0.0898 
      7 S7        -50.4896  -29.8121    6.3836 S.3       14 UNK        -0.2598 
      8 C8        -50.4649  -29.0329    8.0243 C.3       14 UNK         0.0286 
      9 C9        -51.7653  -28.3017    8.2975 C.ar      14 UNK        -0.0844 
     10 C10       -51.9386  -27.0159    7.7855 C.ar      14 UNK        -0.0881 
     11 C11       -53.0960  -26.2892    8.0681 C.ar      14 UNK        -0.0643 
     12 C12       -54.1108  -26.8797    8.8273 C.ar      14 UNK        -0.0930 
     13 C13       -53.9612  -28.1797    9.3229 C.ar      14 UNK        -0.0827 
     14 C14       -52.7790  -28.8835    9.0652 C.ar      14 UNK        -0.1249 
     15 C15       -55.0884  -28.8285   10.1133 C.3       14 UNK         0.0141 
     16 S16       -55.2495  -28.1219   11.7828 S.3       14 UNK        -0.2313 
     17 C17       -56.6256  -29.1256   12.4429 C.3       14 UNK        -0.0915 
     18 CA        -56.2217  -30.1542   13.5345 C.3       13 UNK         0.0968 
     19 C         -55.2678  -31.2649   13.0035 C.2       13 UNK         0.5732 
     20 N         -54.0881  -31.4633   13.5801 N.am      13 UNK        -0.7310 
     21 O         -55.6148  -31.9720   12.0604 O.2       13 UNK        -0.5035 
     22 N         -55.7821  -29.4966   14.7764 N.am      13 UNK        -0.4233 
     23 C         -55.9020  -30.0334   16.0002 C.2       13 UNK         0.4989 
     24 O         -56.4070  -31.1357   16.2165 O.2       13 UNK        -0.4996 
     25 CA        -55.3968  -29.2055   17.1921 C.3       12 UNK         0.0216 
     26 CB        -53.9050  -29.4779   17.4495 C.3       12 UNK        -0.1964 
     27 N         -55.6088  -27.7732   16.9708 N.am      12 UNK        -0.4276 
     28 C         -56.6271  -27.0623   17.4750 C.2       12 UNK         0.5020 
     29 O         -57.4596  -27.5356   18.2508 O.2       12 UNK        -0.5489 
     30 CA        -56.7925  -25.5923   17.0299 C.3       11 UNK         0.0294 
     31 CB        -56.9256  -24.6369   18.2354 C.3       11 UNK        -0.2019 
     32 N         -55.7859  -25.1142   16.0708 N.am      11 UNK        -0.4493 
     33 C         -54.4837  -24.8773   16.2820 C.2       11 UNK         0.4932 
     34 O         -53.9172  -24.9836   17.3710 O.2       11 UNK        -0.5029 
     35 CA        -53.6687  -24.5039   15.0315 C.3       10 UNK         0.0280 
     36 CB        -53.0559  -23.1020   15.1764 C.3       10 UNK        -0.1976 
     37 N         -52.6100  -25.4739   14.7364 N.am      10 UNK        -0.4242 
     38 C         -52.7646  -26.8013   14.6188 C.2       10 UNK         0.5072 
     39 O         -53.8452  -27.3746   14.7713 O.2       10 UNK        -0.5224 
     40 CA        -51.5321  -27.6518   14.2610 C.3       9 UNK         0.0343 
     41 CB        -51.7393  -28.3527   12.9077 C.3       9 UNK        -0.2003 
     42 N         -50.2737  -26.9026   14.2211 N.am      9 UNK        -0.4272 
     43 C         -49.5477  -26.5561   15.2925 C.2       9 UNK         0.4988 
     44 O         -49.8725  -26.8145   16.4516 O.2       9 UNK        -0.5108 
     45 CA        -48.2372  -25.7916   15.0288 C.3       8 UNK         0.0248 
     46 CB        -47.1129  -26.7612   14.6306 C.3       8 UNK        -0.2001 
     47 N         -48.3756  -24.7490   14.0078 N.am      8 UNK        -0.4140 
     48 C         -49.1014  -23.6327   14.1656 C.2       8 UNK         0.5028 
     49 O         -49.6855  -23.3403   15.2087 O.2       8 UNK        -0.5428 
     50 CA        -49.2242  -22.6940   12.9523 C.3       7 UNK         0.0264 
     51 CB        -48.0045  -21.7648   12.8482 C.3       7 UNK        -0.1988 
     52 N         -49.4110  -23.4097   11.6880 N.am      7 UNK        -0.4454 
     53 C         -50.4682  -24.1854   11.4042 C.2       7 UNK         0.5027 
     54 O         -51.4180  -24.3471   12.1691 O.2       7 UNK        -0.5083 
     55 CA        -50.4375  -24.9437   10.0610 C.3       6 UNK         0.0844 
     56 C56       -50.8396  -24.0253    8.8751 C.3       14 UNK        -0.0967 
     57 S57       -52.6322  -23.6701    8.8186 S.3       14 UNK        -0.2604 
     58 C58       -53.2296  -24.8582    7.5737 C.3       14 UNK         0.0134 
     59 N         -49.1479  -25.6112    9.8369 N.am      6 UNK        -0.4116 
     60 C         -48.6025  -26.5307   10.6487 C.2       5 UNK         0.5034 
     61 O         -49.1689  -26.9966   11.6332 O.2       5 UNK        -0.5045 
     62 CA        -47.1486  -26.9486   10.3741 C.3       5 UNK         0.0224 
     63 CB        -47.0562  -28.0970    9.3572 C.3       5 UNK        -0.1978 
     64 N         -46.3308  -25.8172    9.9375 N.am      5 UNK        -0.4737 
     65 C         -45.9666  -24.8060   10.7387 C.2       4 UNK         0.5027 
     66 O         -46.2187  -24.7652   11.9426 O.2       4 UNK        -0.5211 
     67 CA        -45.2474  -23.6218   10.0703 C.3       4 UNK         0.0297 
     68 CB        -43.7424  -23.9048    9.9434 C.3       4 UNK        -0.1993 
     69 N         -45.8035  -23.3046    8.7512 N.am      4 UNK        -0.4486 
     70 C         -47.0456  -22.8413    8.5477 C.2       3 UNK         0.4961 
     71 O         -47.8217  -22.5546    9.4580 O.2       3 UNK        -0.5105 
     72 CA        -47.5237  -22.7321    7.0879 C.3       3 UNK         0.0299 
     73 CB        -47.1789  -21.3505    6.5109 C.3       3 UNK        -0.1972 
     74 N         -46.9791  -23.7814    6.2180 N.am      3 UNK        -0.4305 
     75 C         -47.2033  -25.0945    6.3712 C.2       2 UNK         0.5006 
     76 O         -47.9326  -25.5622    7.2476 O.2       2 UNK        -0.5106 
     77 CA        -46.3990  -26.0222    5.4449 C.3       2 UNK         0.0296 
     78 CB        -44.9246  -26.0617    5.8857 C.3       2 UNK        -0.2002 
     79 N         -46.8928  -27.4000    5.3984 N.am      2 UNK        -0.4032 
     80 C         -48.0497  -27.8185    4.8701 C.2       1 UNK         0.5000 
     81 O         -48.9045  -27.0585    4.4103 O.2       1 UNK        -0.5238 
     82 H82       -45.2841  -31.2919    2.8479 H         1 UNK         0.0889 
     83 H83       -44.5664  -31.9264    4.3305 H         1 UNK         0.0889 
     84 H84       -43.9948  -30.3976    3.6566 H         1 UNK         0.0889 
     85 H85       -47.2667  -30.3503    3.1854 H         1 UNK         0.3028 
     86 H86       -49.0490  -29.4876    4.0225 H         1 UNK         0.0864 
     87 H87       -48.5356  -31.1018    6.0174 H         1 UNK         0.0720 
     88 H88       -48.1141  -29.6817    6.9217 H         1 UNK         0.0720 
     89 H89       -50.2710  -29.7861    8.7896 H         1 UNK         0.0814 
     90 H90       -49.6469  -28.3143    8.0761 H         1 UNK         0.0814 
     91 H91       -51.1525  -26.5724    7.1893 H         1 UNK         0.1469 
     92 H92       -55.0132  -26.3242    9.0433 H         1 UNK         0.1381 
     93 H93       -52.6499  -29.8839    9.4555 H         1 UNK         0.1206 
     94 H94       -54.9265  -29.9046   10.1927 H         1 UNK         0.0813 
     95 H95       -56.0276  -28.6970    9.5739 H         1 UNK         0.0813 
     96 H96       -57.1326  -29.6335   11.6206 H         1 UNK         0.0638 
     97 H97       -57.3661  -28.4370   12.8525 H         1 UNK         0.0638 
     98 H98       -57.1416  -30.6884   13.7798 H         1 UNK         0.0568 
     99 H99       -53.7986  -30.8926   14.3565 H         1 UNK         0.3450 
    100 H100      -53.4857  -32.1914   13.2316 H         1 UNK         0.3450 
    101 H101      -55.2675  -28.6273   14.6621 H         1 UNK         0.2987 
    102 H102      -55.9480  -29.5310   18.0770 H         1 UNK         0.0766 
    103 H103      -53.5400  -28.9030   18.3008 H         1 UNK         0.0798 
    104 H104      -53.2860  -29.2275   16.5886 H         1 UNK         0.0798 
    105 H105      -53.7364  -30.5320   17.6744 H         1 UNK         0.0798 
    106 H106      -54.9807  -27.3284   16.3063 H         1 UNK         0.3198 
    107 H107      -57.7406  -25.5605   16.4905 H         1 UNK         0.0843 
    108 H108      -57.0682  -23.6057   17.9127 H         1 UNK         0.0831 
    109 H109      -56.0481  -24.6701   18.8815 H         1 UNK         0.0831 
    110 H110      -57.7858  -24.9035   18.8508 H         1 UNK         0.0831 
    111 H111      -56.1219  -25.0207   15.1212 H         1 UNK         0.3133 
    112 H112      -54.3325  -24.4911   14.1647 H         1 UNK         0.0566 
    113 H113      -52.5313  -22.8020   14.2689 H         1 UNK         0.0814 
    114 H114      -53.8273  -22.3551   15.3679 H         1 UNK         0.0814 
    115 H115      -52.3455  -23.0581   16.0031 H         1 UNK         0.0814 
    116 H116      -51.6920  -25.0927   14.5544 H         1 UNK         0.3091 
    117 H117      -51.4447  -28.4248   15.0269 H         1 UNK         0.0702 
    118 H118      -52.6184  -28.9967   12.9289 H         1 UNK         0.0785 
    119 H119      -50.8876  -28.9817   12.6487 H         1 UNK         0.0785 
    120 H120      -51.8828  -27.6330   12.0999 H         1 UNK         0.0785 
    121 H121      -49.9030  -26.7070   13.2927 H         1 UNK         0.2998 
    122 H122      -47.9450  -25.3045   15.9616 H         1 UNK         0.0697 
    123 H123      -47.3436  -27.2901   13.7059 H         1 UNK         0.0825 
    124 H124      -46.9549  -27.5131   15.4048 H         1 UNK         0.0825 
    125 H125      -46.1676  -26.2368   14.4890 H         1 UNK         0.0825 
    126 H126      -47.8643  -24.8798   13.1402 H         1 UNK         0.3029 
    127 H127      -50.1093  -22.0734   13.1086 H         1 UNK         0.0897 
    128 H128      -48.1176  -21.0522   12.0308 H         1 UNK         0.0792 
    129 H129      -47.8740  -21.1893   13.7656 H         1 UNK         0.0792 
    130 H130      -47.0830  -22.3221   12.6792 H         1 UNK         0.0792 
    131 H131      -48.7013  -23.2714   10.9717 H         1 UNK         0.3086 
    132 H132      -51.1744  -25.7450   10.1409 H         1 UNK         0.0583 
    133 H133      -50.3106  -23.0727    8.9200 H         1 UNK         0.1020 
    134 H134      -50.5399  -24.4709    7.9263 H         1 UNK         0.1020 
    135 H135      -54.2750  -24.6405    7.3503 H         1 UNK         0.0694 
    136 H136      -52.6824  -24.7198    6.6398 H         1 UNK         0.0694 
    137 H137      -48.6302  -25.3471    9.0036 H         1 UNK         0.2989 
    138 H138      -46.7373  -27.3142   11.3176 H         1 UNK         0.1055 
    139 H139      -47.6790  -28.9390    9.6623 H         1 UNK         0.0806 
    140 H140      -46.0343  -28.4672    9.2734 H         1 UNK         0.0806 
    141 H141      -47.3774  -27.7930    8.3628 H         1 UNK         0.0806 
    142 H142      -46.1331  -25.7512    8.9502 H         1 UNK         0.3061 
    143 H143      -45.3792  -22.7480   10.7122 H         1 UNK         0.0734 
    144 H144      -43.2088  -23.0435    9.5410 H         1 UNK         0.0832 
    145 H145      -43.3059  -24.1268   10.9183 H         1 UNK         0.0832 
    146 H146      -43.5414  -24.7587    9.2951 H         1 UNK         0.0832 
    147 H147      -45.2228  -23.4942    7.9479 H         1 UNK         0.3156 
    148 H148      -48.6103  -22.8367    7.0882 H         1 UNK         0.0589 
    149 H149      -46.1014  -21.1902    6.4556 H         1 UNK         0.0808 
    150 H150      -47.5901  -21.2244    5.5091 H         1 UNK         0.0808 
    151 H151      -47.5949  -20.5551    7.1313 H         1 UNK         0.0808 
    152 H152      -46.3662  -23.4779    5.4742 H         1 UNK         0.3098 
    153 H153      -46.4548  -25.6174    4.4323 H         1 UNK         0.0720 
    154 H154      -44.3285  -26.6790    5.2129 H         1 UNK         0.0791 
    155 H155      -44.8155  -26.4690    6.8920 H         1 UNK         0.0791 
    156 H156      -44.4763  -25.0674    5.8833 H         1 UNK         0.0791 
    157 H157      -46.2643  -28.1256    5.7344 H         1 UNK         0.3028 
@<TRIPOS>BOND
     1    1    2 1    
     2    1   82 1    
     3    1   83 1    
     4    1   84 1    
     5    2    3 2    
     6    2    4 am   BACKBONE|DICT|INTERRES
     7    4    5 1    
     8    4   85 1    
     9    5    6 1    
    10    5   80 1    
    11    5   86 1    
    12    6    7 1    
    13    6   87 1    
    14    6   88 1    
    15    7    8 1    
    16    8    9 1    
    17    8   89 1    
    18    8   90 1    
    19    9   10 ar   
    20    9   14 ar   
    21   10   11 ar   
    22   10   91 1    
    23   11   12 ar   
    24   11   58 1    
    25   12   13 ar   
    26   12   92 1    
    27   13   14 ar   
    28   13   15 1    
    29   14   93 1    
    30   15   16 1    
    31   15   94 1    
    32   15   95 1    
    33   16   17 1    
    34   17   18 1    
    35   17   96 1    
    36   17   97 1    
    37   18   19 1    
    38   18   22 1    
    39   18   98 1    
    40   19   20 am   BACKBONE|DICT|INTERRES
    41   19   21 2    
    42   20   99 1    
    43   20  100 1    
    44   22   23 am   BACKBONE|DICT|INTERRES
    45   22  101 1    
    46   23   24 2    
    47   23   25 1    
    48   25   26 1    
    49   25   27 1    
    50   25  102 1    
    51   26  103 1    
    52   26  104 1    
    53   26  105 1    
    54   27   28 am   BACKBONE|DICT|INTERRES
    55   27  106 1    
    56   28   29 2    
    57   28   30 1    
    58   30   31 1    
    59   30   32 1    
    60   30  107 1    
    61   31  108 1    
    62   31  109 1    
    63   31  110 1    
    64   32   33 am   BACKBONE|DICT|INTERRES
    65   32  111 1    
    66   33   34 2    
    67   33   35 1    
    68   35   36 1    
    69   35   37 1    
    70   35  112 1    
    71   36  113 1    
    72   36  114 1    
    73   36  115 1    
    74   37   38 am   BACKBONE|DICT|INTERRES
    75   37  116 1    
    76   38   39 2    
    77   38   40 1    
    78   40   41 1    
    79   40   42 1    
    80   40  117 1    
    81   41  118 1    
    82   41  119 1    
    83   41  120 1    
    84   42   43 am   BACKBONE|DICT|INTERRES
    85   42  121 1    
    86   43   44 2    
    87   43   45 1    
    88   45   46 1    
    89   45   47 1    
    90   45  122 1    
    91   46  123 1    
    92   46  124 1    
    93   46  125 1    
    94   47   48 am   BACKBONE|DICT|INTERRES
    95   47  126 1    
    96   48   49 2    
    97   48   50 1    
    98   50   51 1    
    99   50   52 1    
   100   50  127 1    
   101   51  128 1    
   102   51  129 1    
   103   51  130 1    
   104   52   53 am   BACKBONE|DICT|INTERRES
   105   52  131 1    
   106   53   54 2    
   107   53   55 1    
   108   55   56 1    
   109   55   59 1    
   110   55  132 1    
   111   56   57 1    
   112   56  133 1    
   113   56  134 1    
   114   57   58 1    
   115   58  135 1    
   116   58  136 1    
   117   59   60 am   BACKBONE|DICT|INTERRES
   118   59  137 1    
   119   60   61 2    
   120   60   62 1    
   121   62   63 1    
   122   62   64 1    
   123   62  138 1    
   124   63  139 1    
   125   63  140 1    
   126   63  141 1    
   127   64   65 am   BACKBONE|DICT|INTERRES
   128   64  142 1    
   129   65   66 2    
   130   65   67 1    
   131   67   68 1    
   132   67   69 1    
   133   67  143 1    
   134   68  144 1    
   135   68  145 1    
   136   68  146 1    
   137   69   70 am   BACKBONE|DICT|INTERRES
   138   69  147 1    
   139   70   71 2    
   140   70   72 1    
   141   72   73 1    
   142   72   74 1    
   143   72  148 1    
   144   73  149 1    
   145   73  150 1    
   146   73  151 1    
   147   74   75 am   BACKBONE|DICT|INTERRES
   148   74  152 1    
   149   75   76 2    
   150   75   77 1    
   151   77   78 1    
   152   77   79 1    
   153   77  153 1    
   154   78  154 1    
   155   78  155 1    
   156   78  156 1    
   157   79   80 am   BACKBONE|DICT|INTERRES
   158   79  157 1    
   159   80   81 2    
@<TRIPOS>SUBSTRUCTURE
     1 UNK         1 GROUP             0       ****    0 ROOT    
