@<TRIPOS>MOLECULE
3R207
157   159    1
SMALL
USER_CHARGES


@<TRIPOS>ATOM
      1 CA        -48.9250  -27.5842    1.1206 C.3       0 UNK        -0.1975 
      2 C         -50.2507  -27.7624    1.8455 C.2       0 UNK         0.4852 
      3 O         -51.1236  -26.8996    1.7456 O.2       0 UNK        -0.5216 
      4 N         -50.4074  -28.8759    2.5737 N.am      1 UNK        -0.4461 
      5 CA        -51.5983  -29.2051    3.3694 C.3       1 UNK         0.0864 
      6 C6        -51.6451  -30.7148    3.7172 C.3       14 UNK        -0.0898 
      7 S7        -50.1914  -31.3187    4.6530 S.3       14 UNK        -0.2598 
      8 C8        -50.9670  -32.2122    6.0385 C.3       14 UNK         0.0286 
      9 C9        -51.3326  -31.2941    7.1980 C.ar      14 UNK        -0.0844 
     10 C10       -50.4390  -31.1112    8.2588 C.ar      14 UNK        -0.0881 
     11 C11       -50.7916  -30.3218    9.3584 C.ar      14 UNK        -0.0643 
     12 C12       -52.0404  -29.6971    9.3806 C.ar      14 UNK        -0.0930 
     13 C13       -52.9364  -29.8518    8.3174 C.ar      14 UNK        -0.0827 
     14 C14       -52.5798  -30.6638    7.2368 C.ar      14 UNK        -0.1249 
     15 C15       -54.2997  -29.1705    8.3447 C.3       14 UNK         0.0141 
     16 S16       -54.1538  -27.3622    8.5278 S.3       14 UNK        -0.2313 
     17 C17       -55.2952  -27.0374    9.9153 C.3       14 UNK        -0.0915 
     18 CA        -54.7247  -27.4870   11.2914 C.3       13 UNK         0.0968 
     19 C         -53.5617  -26.6193   11.8537 C.2       13 UNK         0.5732 
     20 N         -53.0606  -26.9547   13.0362 N.am      13 UNK        -0.7310 
     21 O         -53.1002  -25.6647   11.2346 O.2       13 UNK        -0.5035 
     22 N         -55.7618  -27.7381   12.2984 N.am      13 UNK        -0.4233 
     23 C         -56.5979  -26.8341   12.8200 C.2       13 UNK         0.4989 
     24 O         -56.7395  -25.6878   12.3942 O.2       13 UNK        -0.4996 
     25 CA        -57.3767  -27.2752   14.0714 C.3       12 UNK         0.0216 
     26 CB        -58.2861  -28.4922   13.8016 C.3       12 UNK        -0.1964 
     27 N         -56.4912  -27.4873   15.2256 N.am      12 UNK        -0.4276 
     28 C         -55.5313  -28.4087   15.3906 C.2       12 UNK         0.5020 
     29 O         -55.2918  -29.3094   14.5828 O.2       12 UNK        -0.5489 
     30 CA        -54.6325  -28.2305   16.6275 C.3       11 UNK         0.0294 
     31 CB        -53.7652  -29.4711   16.9108 C.3       11 UNK        -0.2019 
     32 N         -53.7544  -27.0707   16.4578 N.am      11 UNK        -0.4493 
     33 C         -54.1243  -25.7893   16.5877 C.2       11 UNK         0.4932 
     34 O         -55.2664  -25.4501   16.9058 O.2       11 UNK        -0.5029 
     35 CA        -53.0648  -24.7123   16.2783 C.3       10 UNK         0.0280 
     36 CB        -53.2796  -23.4227   17.0979 C.3       10 UNK        -0.1976 
     37 N         -51.6749  -25.1735   16.3899 N.am      10 UNK        -0.4242 
     38 C         -51.0394  -25.6119   17.4879 C.2       10 UNK         0.5072 
     39 O         -51.5724  -25.7625   18.5878 O.2       10 UNK        -0.5224 
     40 CA        -49.5414  -25.9250   17.3282 C.3       9 UNK         0.0343 
     41 CB        -49.3386  -27.3292   16.7355 C.3       9 UNK        -0.2003 
     42 N         -48.8438  -24.9323   16.5048 N.am      9 UNK        -0.4272 
     43 C         -48.6594  -23.6505   16.8587 C.2       9 UNK         0.4988 
     44 O         -48.9805  -23.1882   17.9543 O.2       9 UNK        -0.5108 
     45 CA        -48.0171  -22.7191   15.8169 C.3       8 UNK         0.0248 
     46 CB        -46.4862  -22.8559   15.8378 C.3       8 UNK        -0.2001 
     47 N         -48.5207  -22.9465   14.4600 N.am      8 UNK        -0.4140 
     48 C         -49.7780  -22.7012   14.0611 C.2       8 UNK         0.5028 
     49 O         -50.6359  -22.1838   14.7762 O.2       8 UNK        -0.5428 
     50 CA        -50.1561  -23.1284   12.6313 C.3       7 UNK         0.0264 
     51 CB        -49.7483  -22.0536   11.6116 C.3       7 UNK        -0.1988 
     52 N         -49.5785  -24.4168   12.2428 N.am      7 UNK        -0.4454 
     53 C         -49.8479  -25.5850   12.8443 C.2       7 UNK         0.5027 
     54 O         -50.6341  -25.7083   13.7856 O.2       7 UNK        -0.5083 
     55 CA        -49.0661  -26.8136   12.3430 C.3       6 UNK         0.0844 
     56 C56       -49.6870  -27.3732   11.0360 C.3       14 UNK        -0.0967 
     57 S57       -48.7212  -28.7535   10.3281 S.3       14 UNK        -0.2604 
     58 C58       -49.8371  -30.1740   10.5351 C.3       14 UNK         0.0134 
     59 N         -47.6419  -26.4939   12.2157 N.am      6 UNK        -0.4116 
     60 C         -46.8246  -26.2042   13.2379 C.2       5 UNK         0.5034 
     61 O         -47.1709  -26.2071   14.4189 O.2       5 UNK        -0.5045 
     62 CA        -45.3875  -25.7963   12.8732 C.3       5 UNK         0.0224 
     63 CB        -44.5104  -27.0395   12.6559 C.3       5 UNK        -0.1978 
     64 N         -45.3297  -24.9396   11.6851 N.am      5 UNK        -0.4737 
     65 C         -45.8525  -23.7066   11.6160 C.2       4 UNK         0.5027 
     66 O         -46.3852  -23.1376   12.5663 O.2       4 UNK        -0.5211 
     67 CA        -45.8287  -23.0166   10.2418 C.3       4 UNK         0.0297 
     68 CB        -44.5062  -22.2607   10.0408 C.3       4 UNK        -0.1993 
     69 N         -46.0443  -23.9451    9.1265 N.am      4 UNK        -0.4486 
     70 C         -47.1484  -24.6836    8.9549 C.2       3 UNK         0.4961 
     71 O         -48.1224  -24.6556    9.7134 O.2       3 UNK        -0.5105 
     72 CA        -47.1380  -25.6495    7.7673 C.3       3 UNK         0.0299 
     73 CB        -46.2164  -26.8537    8.0468 C.3       3 UNK        -0.1972 
     74 N         -48.5065  -26.0946    7.5193 N.am      3 UNK        -0.4305 
     75 C         -48.9475  -26.6402    6.3831 C.2       2 UNK         0.5006 
     76 O         -48.2198  -26.8834    5.4140 O.2       2 UNK        -0.5106 
     77 CA        -50.4520  -26.9403    6.2966 C.3       2 UNK         0.0296 
     78 CB        -51.2624  -25.6305    6.1980 C.3       2 UNK        -0.2002 
     79 N         -50.6405  -27.7734    5.1139 N.am      2 UNK        -0.4032 
     80 C         -51.7600  -28.3196    4.6262 C.2       1 UNK         0.5000 
     81 O         -52.8833  -28.1552    5.1034 O.2       1 UNK        -0.5238 
     82 H82       -49.0939  -27.4759    0.0496 H         1 UNK         0.0889 
     83 H83       -48.2585  -28.4328    1.2746 H         1 UNK         0.0889 
     84 H84       -48.4201  -26.6876    1.4794 H         1 UNK         0.0889 
     85 H85       -49.6597  -29.5547    2.6191 H         1 UNK         0.3028 
     86 H86       -52.4681  -28.9952    2.7426 H         1 UNK         0.0864 
     87 H87       -52.5650  -30.9484    4.2539 H         1 UNK         0.0720 
     88 H88       -51.7016  -31.2938    2.7941 H         1 UNK         0.0720 
     89 H89       -50.2711  -32.9777    6.3850 H         1 UNK         0.0814 
     90 H90       -51.8479  -32.7524    5.6880 H         1 UNK         0.0814 
     91 H91       -49.4742  -31.5995    8.2386 H         1 UNK         0.1469 
     92 H92       -52.3129  -29.0870   10.2274 H         1 UNK         0.1381 
     93 H93       -53.2777  -30.8042    6.4237 H         1 UNK         0.1206 
     94 H94       -54.8915  -29.5986    9.1542 H         1 UNK         0.0813 
     95 H95       -54.8515  -29.3733    7.4256 H         1 UNK         0.0813 
     96 H96       -56.2313  -27.5571    9.7052 H         1 UNK         0.0638 
     97 H97       -55.5389  -25.9740    9.9265 H         1 UNK         0.0638 
     98 H98       -54.2817  -28.4701   11.1436 H         1 UNK         0.0568 
     99 H99       -52.2744  -26.4233   13.3973 H         1 UNK         0.3450 
    100 H100      -53.4199  -27.7481   13.5415 H         1 UNK         0.3450 
    101 H101      -55.6707  -28.6086   12.8148 H         1 UNK         0.2987 
    102 H102      -58.0267  -26.4423   14.3452 H         1 UNK         0.0766 
    103 H103      -58.8925  -28.7303   14.6755 H         1 UNK         0.0798 
    104 H104      -57.7224  -29.3867   13.5364 H         1 UNK         0.0798 
    105 H105      -58.9721  -28.2876   12.9786 H         1 UNK         0.0798 
    106 H106      -56.5005  -26.7391   15.9136 H         1 UNK         0.3198 
    107 H107      -55.2792  -28.0682   17.4928 H         1 UNK         0.0843 
    108 H108      -53.0725  -29.6799   16.0944 H         1 UNK         0.0831 
    109 H109      -54.3868  -30.3575   17.0444 H         1 UNK         0.0831 
    110 H110      -53.1807  -29.3460   17.8225 H         1 UNK         0.0831 
    111 H111      -52.8026  -27.2583   16.1800 H         1 UNK         0.3133 
    112 H112      -53.2023  -24.4565   15.2266 H         1 UNK         0.0566 
    113 H113      -53.2225  -23.6107   18.1704 H         1 UNK         0.0814 
    114 H114      -52.5328  -22.6682   16.8494 H         1 UNK         0.0814 
    115 H115      -54.2582  -22.9858   16.8955 H         1 UNK         0.0814 
    116 H116      -51.1465  -25.1577   15.5200 H         1 UNK         0.3091 
    117 H117      -49.0914  -25.9093   18.3230 H         1 UNK         0.0702 
    118 H118      -48.2811  -27.5915   16.6965 H         1 UNK         0.0785 
    119 H119      -49.7364  -27.4055   15.7233 H         1 UNK         0.0785 
    120 H120      -49.8382  -28.0857   17.3422 H         1 UNK         0.0785 
    121 H121      -48.4802  -25.2525   15.6125 H         1 UNK         0.2998 
    122 H122      -48.2671  -21.6926   16.0934 H         1 UNK         0.0697 
    123 H123      -46.1654  -23.8545   15.5404 H         1 UNK         0.0825 
    124 H124      -46.0908  -22.6695   16.8372 H         1 UNK         0.0825 
    125 H125      -46.0153  -22.1395   15.1644 H         1 UNK         0.0825 
    126 H126      -47.8478  -23.2804   13.7740 H         1 UNK         0.3029 
    127 H127      -51.2427  -23.2367   12.5970 H         1 UNK         0.0897 
    128 H128      -50.2151  -21.0964   11.8475 H         1 UNK         0.0792 
    129 H129      -50.0573  -22.3266   10.6023 H         1 UNK         0.0792 
    130 H130      -48.6697  -21.8962   11.6004 H         1 UNK         0.0792 
    131 H131      -48.9425  -24.4150   11.4492 H         1 UNK         0.3086 
    132 H132      -49.1543  -27.5886   13.1076 H         1 UNK         0.0583 
    133 H133      -50.7098  -27.7000   11.2246 H         1 UNK         0.1020 
    134 H134      -49.7671  -26.5968   10.2750 H         1 UNK         0.1020 
    135 H135      -49.2317  -31.0768   10.6292 H         1 UNK         0.0694 
    136 H136      -50.3887  -30.0854   11.4724 H         1 UNK         0.0694 
    137 H137      -47.2832  -26.4360   11.2749 H         1 UNK         0.2989 
    138 H138      -44.9822  -25.2320   13.7161 H         1 UNK         0.1055 
    139 H139      -44.5252  -27.6845   13.5358 H         1 UNK         0.0806 
    140 H140      -43.4708  -26.7651   12.4761 H         1 UNK         0.0806 
    141 H141      -44.8523  -27.6362   11.8091 H         1 UNK         0.0806 
    142 H142      -44.9011  -25.3258   10.8566 H         1 UNK         0.3061 
    143 H143      -46.6426  -22.2889   10.2262 H         1 UNK         0.0734 
    144 H144      -44.3376  -21.5505   10.8518 H         1 UNK         0.0832 
    145 H145      -44.5109  -21.6911    9.1112 H         1 UNK         0.0832 
    146 H146      -43.6507  -22.9369   10.0177 H         1 UNK         0.0832 
    147 H147      -45.2938  -24.0301    8.4553 H         1 UNK         0.3156 
    148 H148      -46.7791  -25.1075    6.8899 H         1 UNK         0.0589 
    149 H149      -45.1833  -26.5364    8.1915 H         1 UNK         0.0808 
    150 H150      -46.5186  -27.3951    8.9427 H         1 UNK         0.0808 
    151 H151      -46.2172  -27.5605    7.2171 H         1 UNK         0.0808 
    152 H152      -49.1523  -25.8676    8.2651 H         1 UNK         0.3098 
    153 H153      -50.7555  -27.5092    7.1782 H         1 UNK         0.0720 
    154 H154      -52.3353  -25.8214    6.1873 H         1 UNK         0.0791 
    155 H155      -51.0124  -25.0712    5.2956 H         1 UNK         0.0791 
    156 H156      -51.0701  -24.9800    7.0519 H         1 UNK         0.0791 
    157 H157      -49.7674  -27.9609    4.6341 H         1 UNK         0.3028 
@<TRIPOS>BOND
     1    1    2 1    
     2    1   82 1    
     3    1   83 1    
     4    1   84 1    
     5    2    3 2    
     6    2    4 am   BACKBONE|DICT|INTERRES
     7    4    5 1    
     8    4   85 1    
     9    5    6 1    
    10    5   80 1    
    11    5   86 1    
    12    6    7 1    
    13    6   87 1    
    14    6   88 1    
    15    7    8 1    
    16    8    9 1    
    17    8   89 1    
    18    8   90 1    
    19    9   10 ar   
    20    9   14 ar   
    21   10   11 ar   
    22   10   91 1    
    23   11   12 ar   
    24   11   58 1    
    25   12   13 ar   
    26   12   92 1    
    27   13   14 ar   
    28   13   15 1    
    29   14   93 1    
    30   15   16 1    
    31   15   94 1    
    32   15   95 1    
    33   16   17 1    
    34   17   18 1    
    35   17   96 1    
    36   17   97 1    
    37   18   19 1    
    38   18   22 1    
    39   18   98 1    
    40   19   20 am   BACKBONE|DICT|INTERRES
    41   19   21 2    
    42   20   99 1    
    43   20  100 1    
    44   22   23 am   BACKBONE|DICT|INTERRES
    45   22  101 1    
    46   23   24 2    
    47   23   25 1    
    48   25   26 1    
    49   25   27 1    
    50   25  102 1    
    51   26  103 1    
    52   26  104 1    
    53   26  105 1    
    54   27   28 am   BACKBONE|DICT|INTERRES
    55   27  106 1    
    56   28   29 2    
    57   28   30 1    
    58   30   31 1    
    59   30   32 1    
    60   30  107 1    
    61   31  108 1    
    62   31  109 1    
    63   31  110 1    
    64   32   33 am   BACKBONE|DICT|INTERRES
    65   32  111 1    
    66   33   34 2    
    67   33   35 1    
    68   35   36 1    
    69   35   37 1    
    70   35  112 1    
    71   36  113 1    
    72   36  114 1    
    73   36  115 1    
    74   37   38 am   BACKBONE|DICT|INTERRES
    75   37  116 1    
    76   38   39 2    
    77   38   40 1    
    78   40   41 1    
    79   40   42 1    
    80   40  117 1    
    81   41  118 1    
    82   41  119 1    
    83   41  120 1    
    84   42   43 am   BACKBONE|DICT|INTERRES
    85   42  121 1    
    86   43   44 2    
    87   43   45 1    
    88   45   46 1    
    89   45   47 1    
    90   45  122 1    
    91   46  123 1    
    92   46  124 1    
    93   46  125 1    
    94   47   48 am   BACKBONE|DICT|INTERRES
    95   47  126 1    
    96   48   49 2    
    97   48   50 1    
    98   50   51 1    
    99   50   52 1    
   100   50  127 1    
   101   51  128 1    
   102   51  129 1    
   103   51  130 1    
   104   52   53 am   BACKBONE|DICT|INTERRES
   105   52  131 1    
   106   53   54 2    
   107   53   55 1    
   108   55   56 1    
   109   55   59 1    
   110   55  132 1    
   111   56   57 1    
   112   56  133 1    
   113   56  134 1    
   114   57   58 1    
   115   58  135 1    
   116   58  136 1    
   117   59   60 am   BACKBONE|DICT|INTERRES
   118   59  137 1    
   119   60   61 2    
   120   60   62 1    
   121   62   63 1    
   122   62   64 1    
   123   62  138 1    
   124   63  139 1    
   125   63  140 1    
   126   63  141 1    
   127   64   65 am   BACKBONE|DICT|INTERRES
   128   64  142 1    
   129   65   66 2    
   130   65   67 1    
   131   67   68 1    
   132   67   69 1    
   133   67  143 1    
   134   68  144 1    
   135   68  145 1    
   136   68  146 1    
   137   69   70 am   BACKBONE|DICT|INTERRES
   138   69  147 1    
   139   70   71 2    
   140   70   72 1    
   141   72   73 1    
   142   72   74 1    
   143   72  148 1    
   144   73  149 1    
   145   73  150 1    
   146   73  151 1    
   147   74   75 am   BACKBONE|DICT|INTERRES
   148   74  152 1    
   149   75   76 2    
   150   75   77 1    
   151   77   78 1    
   152   77   79 1    
   153   77  153 1    
   154   78  154 1    
   155   78  155 1    
   156   78  156 1    
   157   79   80 am   BACKBONE|DICT|INTERRES
   158   79  157 1    
   159   80   81 2    
@<TRIPOS>SUBSTRUCTURE
     1 UNK         1 GROUP             0       ****    0 ROOT    
