@<TRIPOS>MOLECULE
3R207
157   159    1
SMALL
USER_CHARGES


@<TRIPOS>ATOM
      1 CA        -48.6911  -22.6400    4.6920 C.3       0 UNK        -0.1975 
      2 C         -48.7980  -23.7709    5.7031 C.2       0 UNK         0.4852 
      3 O         -48.7317  -23.5200    6.9083 O.2       0 UNK        -0.5216 
      4 N         -48.9827  -25.0107    5.2248 N.am      1 UNK        -0.4461 
      5 CA        -49.0619  -26.2123    6.0605 C.3       1 UNK         0.0864 
      6 C6        -49.7576  -27.3883    5.3233 C.3       14 UNK        -0.0898 
      7 S7        -50.3071  -28.8183    6.3344 S.3       14 UNK        -0.2598 
      8 C8        -50.8187  -28.1711    7.9678 C.3       14 UNK         0.0286 
      9 C9        -52.2076  -27.5336    7.9820 C.ar      14 UNK        -0.0844 
     10 C10       -52.5176  -26.4462    7.1575 C.ar      14 UNK        -0.0881 
     11 C11       -53.7522  -25.8014    7.2527 C.ar      14 UNK        -0.0643 
     12 C12       -54.7037  -26.2691    8.1605 C.ar      14 UNK        -0.0930 
     13 C13       -54.4164  -27.3599    8.9841 C.ar      14 UNK        -0.0827 
     14 C14       -53.1716  -27.9900    8.8884 C.ar      14 UNK        -0.1249 
     15 C15       -55.4415  -27.8262   10.0025 C.3       14 UNK         0.0141 
     16 S16       -55.2282  -26.9282   11.5682 S.3       14 UNK        -0.2313 
     17 C17       -56.7617  -27.3768   12.4539 C.3       14 UNK        -0.0915 
     18 CA        -56.5878  -28.5281   13.4800 C.3       13 UNK         0.0968 
     19 C         -56.5269  -29.9256   12.7934 C.2       13 UNK         0.5732 
     20 N         -55.4572  -30.7019   12.9249 N.am      13 UNK        -0.7310 
     21 O         -57.4834  -30.3192   12.1300 O.2       13 UNK        -0.5035 
     22 N         -55.4921  -28.2437   14.4145 N.am      13 UNK        -0.4233 
     23 C         -55.3302  -28.8064   15.6169 C.2       13 UNK         0.4989 
     24 O         -56.1671  -29.5402   16.1463 O.2       13 UNK        -0.4996 
     25 CA        -53.9999  -28.5007   16.3363 C.3       12 UNK         0.0216 
     26 CB        -53.6448  -29.5630   17.3980 C.3       12 UNK        -0.1964 
     27 N         -52.8706  -28.2955   15.4164 N.am      12 UNK        -0.4276 
     28 C         -52.3994  -29.1560   14.4988 C.2       12 UNK         0.5020 
     29 O         -52.8940  -30.2601   14.2693 O.2       12 UNK        -0.5489 
     30 CA        -51.1822  -28.6964   13.6843 C.3       11 UNK         0.0294 
     31 CB        -51.6287  -27.8234   12.4995 C.3       11 UNK        -0.2019 
     32 N         -50.2317  -27.9594   14.5197 N.am      11 UNK        -0.4493 
     33 C         -49.2728  -28.5377   15.2592 C.2       11 UNK         0.4932 
     34 O         -49.0245  -29.7432   15.2399 O.2       11 UNK        -0.5029 
     35 CA        -48.4443  -27.6192   16.1776 C.3       10 UNK         0.0280 
     36 CB        -47.2432  -27.0350   15.4149 C.3       10 UNK        -0.1976 
     37 N         -49.2319  -26.5262   16.7500 N.am      10 UNK        -0.4242 
     38 C         -50.2250  -26.6763   17.6395 C.2       10 UNK         0.5072 
     39 O         -50.5021  -27.7455   18.1820 O.2       10 UNK        -0.5224 
     40 CA        -51.0747  -25.4295   17.9598 C.3       9 UNK         0.0343 
     41 CB        -50.6345  -24.8067   19.2944 C.3       9 UNK        -0.2003 
     42 N         -51.0486  -24.3987   16.9128 N.am      9 UNK        -0.4272 
     43 C         -51.4769  -24.5706   15.6549 C.2       9 UNK         0.4988 
     44 O         -51.9533  -25.6284   15.2346 O.2       9 UNK        -0.5108 
     45 CA        -51.2335  -23.3999   14.6945 C.3       8 UNK         0.0248 
     46 CB        -49.7674  -23.3922   14.2363 C.3       8 UNK        -0.2001 
     47 N         -52.0941  -23.4999   13.5164 N.am      8 UNK        -0.4140 
     48 C         -53.3492  -23.0339   13.4602 C.2       8 UNK         0.5028 
     49 O         -53.8891  -22.4404   14.3965 O.2       8 UNK        -0.5428 
     50 CA        -54.1536  -23.2725   12.1643 C.3       7 UNK         0.0264 
     51 CB        -55.0536  -22.0719   11.8020 C.3       7 UNK        -0.1988 
     52 N         -53.3526  -23.6866   11.0048 N.am      7 UNK        -0.4454 
     53 C         -52.3976  -22.9872   10.3713 C.2       7 UNK         0.5027 
     54 O         -52.0269  -21.8549   10.6890 O.2       7 UNK        -0.5083 
     55 CA        -51.7315  -23.7004    9.1762 C.3       6 UNK         0.0844 
     56 C56       -52.0752  -23.0361    7.8165 C.3       14 UNK        -0.0967 
     57 S57       -53.8594  -23.0441    7.4093 S.3       14 UNK        -0.2604 
     58 C58       -54.0330  -24.5627    6.4172 C.3       14 UNK         0.0134 
     59 N         -50.2827  -23.8400    9.3571 N.am      6 UNK        -0.4116 
     60 C         -49.6971  -24.4654   10.3868 C.2       5 UNK         0.5034 
     61 O         -50.3149  -24.9938   11.3158 O.2       5 UNK        -0.5045 
     62 CA        -48.1662  -24.5267   10.3868 C.3       5 UNK         0.0224 
     63 CB        -47.5485  -23.3952   11.2284 C.3       5 UNK        -0.1978 
     64 N         -47.7827  -25.8367   10.9028 N.am      5 UNK        -0.4737 
     65 C         -46.5953  -26.4264   10.7362 C.2       4 UNK         0.5027 
     66 O         -45.5951  -25.8482   10.3084 O.2       4 UNK        -0.5211 
     67 CA        -46.5184  -27.9342   11.0172 C.3       4 UNK         0.0297 
     68 CB        -47.7368  -28.5176   11.7640 C.3       4 UNK        -0.1993 
     69 N         -46.3823  -28.5802    9.7177 N.am      4 UNK        -0.4486 
     70 C         -45.7601  -29.7362    9.4615 C.2       3 UNK         0.4961 
     71 O         -45.2567  -30.4492   10.3304 O.2       3 UNK        -0.5105 
     72 CA        -45.6809  -30.1813    7.9847 C.3       3 UNK         0.0299 
     73 CB        -46.7886  -31.2021    7.6768 C.3       3 UNK        -0.1972 
     74 N         -45.7810  -29.0706    7.0320 N.am      3 UNK        -0.4305 
     75 C         -44.8715  -28.0955    6.8908 C.2       2 UNK         0.5006 
     76 O         -43.7665  -28.1185    7.4345 O.2       2 UNK        -0.5106 
     77 CA        -45.2428  -26.8756    6.0185 C.3       2 UNK         0.0296 
     78 CB        -44.4637  -26.9126    4.6928 C.3       2 UNK        -0.2002 
     79 N         -46.6697  -26.6695    5.7209 N.am      2 UNK        -0.4032 
     80 C         -47.6787  -26.6067    6.6044 C.2       1 UNK         0.5000 
     81 O         -47.5574  -26.8367    7.8044 O.2       1 UNK        -0.5238 
     82 H82       -48.7789  -22.9983    3.6666 H         1 UNK         0.0889 
     83 H83       -47.7304  -22.1365    4.7950 H         1 UNK         0.0889 
     84 H84       -49.4798  -21.9083    4.8649 H         1 UNK         0.0889 
     85 H85       -49.0477  -25.1520    4.2262 H         1 UNK         0.3028 
     86 H86       -49.6609  -25.9294    6.9242 H         1 UNK         0.0864 
     87 H87       -49.1110  -27.7746    4.5331 H         1 UNK         0.0720 
     88 H88       -50.6411  -27.0215    4.7992 H         1 UNK         0.0720 
     89 H89       -50.0854  -27.4807    8.3805 H         1 UNK         0.0814 
     90 H90       -50.8070  -29.0211    8.6518 H         1 UNK         0.0814 
     91 H91       -51.7931  -26.0586    6.4631 H         1 UNK         0.1469 
     92 H92       -55.6552  -25.7620    8.2481 H         1 UNK         0.1381 
     93 H93       -52.9464  -28.8204    9.5434 H         1 UNK         0.1206 
     94 H94       -56.4486  -27.6644    9.6152 H         1 UNK         0.0813 
     95 H95       -55.3431  -28.8985   10.1776 H         1 UNK         0.0813 
     96 H96       -57.5570  -27.5992   11.7401 H         1 UNK         0.0638 
     97 H97       -57.0952  -26.4819   12.9813 H         1 UNK         0.0638 
     98 H98       -57.5039  -28.5525   14.0729 H         1 UNK         0.0568 
     99 H99       -54.6500  -30.4136   13.4699 H         1 UNK         0.3450 
    100 H100      -55.4526  -31.6022   12.4743 H         1 UNK         0.3450 
    101 H101      -54.7515  -27.6647   14.0478 H         1 UNK         0.2987 
    102 H102      -54.1462  -27.5511   16.8532 H         1 UNK         0.0766 
    103 H103      -52.7107  -29.3209   17.9044 H         1 UNK         0.0798 
    104 H104      -53.5382  -30.5544   16.9564 H         1 UNK         0.0798 
    105 H105      -54.4184  -29.6283   18.1640 H         1 UNK         0.0798 
    106 H106      -52.4440  -27.3704   15.4514 H         1 UNK         0.3198 
    107 H107      -50.6957  -29.5869   13.2797 H         1 UNK         0.0843 
    108 H108      -52.0790  -26.8846   12.8240 H         1 UNK         0.0831 
    109 H109      -52.3690  -28.3436   11.8908 H         1 UNK         0.0831 
    110 H110      -50.7916  -27.5811   11.8470 H         1 UNK         0.0831 
    111 H111      -50.4113  -26.9702   14.6348 H         1 UNK         0.3133 
    112 H112      -48.0634  -28.2278   17.0005 H         1 UNK         0.0566 
    113 H113      -46.5957  -26.4596   16.0768 H         1 UNK         0.0814 
    114 H114      -46.6337  -27.8289   14.9805 H         1 UNK         0.0814 
    115 H115      -47.5563  -26.3805   14.6003 H         1 UNK         0.0814 
    116 H116      -49.0533  -25.5997   16.3935 H         1 UNK         0.3091 
    117 H117      -52.1087  -25.7654   18.0635 H         1 UNK         0.0702 
    118 H118      -51.2869  -23.9822   19.5827 H         1 UNK         0.0785 
    119 H119      -49.6128  -24.4278   19.2464 H         1 UNK         0.0785 
    120 H120      -50.6716  -25.5422   20.0994 H         1 UNK         0.0785 
    121 H121      -50.6593  -23.5036   17.1741 H         1 UNK         0.2998 
    122 H122      -51.4406  -22.4637   15.2174 H         1 UNK         0.0697 
    123 H123      -49.0898  -23.2178   15.0727 H         1 UNK         0.0825 
    124 H124      -49.5901  -22.5992   13.5095 H         1 UNK         0.0825 
    125 H125      -49.4834  -24.3398   13.7769 H         1 UNK         0.0825 
    126 H126      -51.7236  -24.0164   12.7272 H         1 UNK         0.3029 
    127 H127      -54.8126  -24.1121   12.3870 H         1 UNK         0.0897 
    128 H128      -55.6316  -22.2683   10.8988 H         1 UNK         0.0792 
    129 H129      -54.4717  -21.1646   11.6378 H         1 UNK         0.0792 
    130 H130      -55.7663  -21.8597   12.5999 H         1 UNK         0.0792 
    131 H131      -53.5519  -24.6185   10.6643 H         1 UNK         0.3086 
    132 H132      -52.1142  -24.7200    9.1598 H         1 UNK         0.0583 
    133 H133      -51.7260  -22.0018    7.8048 H         1 UNK         0.1020 
    134 H134      -51.5382  -23.5359    7.0102 H         1 UNK         0.1020 
    135 H135      -55.0486  -24.6135    6.0218 H         1 UNK         0.0694 
    136 H136      -53.3696  -24.5134    5.5523 H         1 UNK         0.0694 
    137 H137      -49.6981  -23.4727    8.6115 H         1 UNK         0.2989 
    138 H138      -47.8154  -24.4434    9.3552 H         1 UNK         0.1055 
    139 H139      -47.7211  -23.5442   12.2929 H         1 UNK         0.0806 
    140 H140      -46.4709  -23.3351   11.0763 H         1 UNK         0.0806 
    141 H141      -47.9668  -22.4254   10.9554 H         1 UNK         0.0806 
    142 H142      -48.5612  -26.3746   11.2618 H         1 UNK         0.3061 
    143 H143      -45.6189  -28.1064   11.6120 H         1 UNK         0.0734 
    144 H144      -47.5630  -29.5570   12.0429 H         1 UNK         0.0832 
    145 H145      -47.9329  -27.9706   12.6847 H         1 UNK         0.0832 
    146 H146      -48.6411  -28.4904   11.1554 H         1 UNK         0.0832 
    147 H147      -46.7348  -28.0258    8.9366 H         1 UNK         0.3156 
    148 H148      -44.7142  -30.6672    7.8374 H         1 UNK         0.0589 
    149 H149      -47.7823  -30.7658    7.7894 H         1 UNK         0.0808 
    150 H150      -46.7034  -31.5877    6.6606 H         1 UNK         0.0808 
    151 H151      -46.7298  -32.0570    8.3520 H         1 UNK         0.0808 
    152 H152      -46.6603  -28.9697    6.5470 H         1 UNK         0.3098 
    153 H153      -44.9163  -25.9956    6.5765 H         1 UNK         0.0720 
    154 H154      -44.5976  -25.9914    4.1253 H         1 UNK         0.0791 
    155 H155      -44.7799  -27.7458    4.0639 H         1 UNK         0.0791 
    156 H156      -43.3928  -27.0258    4.8685 H         1 UNK         0.0791 
    157 H157      -46.8864  -26.4696    4.7555 H         1 UNK         0.3028 
@<TRIPOS>BOND
     1    1    2 1    
     2    1   82 1    
     3    1   83 1    
     4    1   84 1    
     5    2    3 2    
     6    2    4 am   BACKBONE|DICT|INTERRES
     7    4    5 1    
     8    4   85 1    
     9    5    6 1    
    10    5   80 1    
    11    5   86 1    
    12    6    7 1    
    13    6   87 1    
    14    6   88 1    
    15    7    8 1    
    16    8    9 1    
    17    8   89 1    
    18    8   90 1    
    19    9   10 ar   
    20    9   14 ar   
    21   10   11 ar   
    22   10   91 1    
    23   11   12 ar   
    24   11   58 1    
    25   12   13 ar   
    26   12   92 1    
    27   13   14 ar   
    28   13   15 1    
    29   14   93 1    
    30   15   16 1    
    31   15   94 1    
    32   15   95 1    
    33   16   17 1    
    34   17   18 1    
    35   17   96 1    
    36   17   97 1    
    37   18   19 1    
    38   18   22 1    
    39   18   98 1    
    40   19   20 am   BACKBONE|DICT|INTERRES
    41   19   21 2    
    42   20   99 1    
    43   20  100 1    
    44   22   23 am   BACKBONE|DICT|INTERRES
    45   22  101 1    
    46   23   24 2    
    47   23   25 1    
    48   25   26 1    
    49   25   27 1    
    50   25  102 1    
    51   26  103 1    
    52   26  104 1    
    53   26  105 1    
    54   27   28 am   BACKBONE|DICT|INTERRES
    55   27  106 1    
    56   28   29 2    
    57   28   30 1    
    58   30   31 1    
    59   30   32 1    
    60   30  107 1    
    61   31  108 1    
    62   31  109 1    
    63   31  110 1    
    64   32   33 am   BACKBONE|DICT|INTERRES
    65   32  111 1    
    66   33   34 2    
    67   33   35 1    
    68   35   36 1    
    69   35   37 1    
    70   35  112 1    
    71   36  113 1    
    72   36  114 1    
    73   36  115 1    
    74   37   38 am   BACKBONE|DICT|INTERRES
    75   37  116 1    
    76   38   39 2    
    77   38   40 1    
    78   40   41 1    
    79   40   42 1    
    80   40  117 1    
    81   41  118 1    
    82   41  119 1    
    83   41  120 1    
    84   42   43 am   BACKBONE|DICT|INTERRES
    85   42  121 1    
    86   43   44 2    
    87   43   45 1    
    88   45   46 1    
    89   45   47 1    
    90   45  122 1    
    91   46  123 1    
    92   46  124 1    
    93   46  125 1    
    94   47   48 am   BACKBONE|DICT|INTERRES
    95   47  126 1    
    96   48   49 2    
    97   48   50 1    
    98   50   51 1    
    99   50   52 1    
   100   50  127 1    
   101   51  128 1    
   102   51  129 1    
   103   51  130 1    
   104   52   53 am   BACKBONE|DICT|INTERRES
   105   52  131 1    
   106   53   54 2    
   107   53   55 1    
   108   55   56 1    
   109   55   59 1    
   110   55  132 1    
   111   56   57 1    
   112   56  133 1    
   113   56  134 1    
   114   57   58 1    
   115   58  135 1    
   116   58  136 1    
   117   59   60 am   BACKBONE|DICT|INTERRES
   118   59  137 1    
   119   60   61 2    
   120   60   62 1    
   121   62   63 1    
   122   62   64 1    
   123   62  138 1    
   124   63  139 1    
   125   63  140 1    
   126   63  141 1    
   127   64   65 am   BACKBONE|DICT|INTERRES
   128   64  142 1    
   129   65   66 2    
   130   65   67 1    
   131   67   68 1    
   132   67   69 1    
   133   67  143 1    
   134   68  144 1    
   135   68  145 1    
   136   68  146 1    
   137   69   70 am   BACKBONE|DICT|INTERRES
   138   69  147 1    
   139   70   71 2    
   140   70   72 1    
   141   72   73 1    
   142   72   74 1    
   143   72  148 1    
   144   73  149 1    
   145   73  150 1    
   146   73  151 1    
   147   74   75 am   BACKBONE|DICT|INTERRES
   148   74  152 1    
   149   75   76 2    
   150   75   77 1    
   151   77   78 1    
   152   77   79 1    
   153   77  153 1    
   154   78  154 1    
   155   78  155 1    
   156   78  156 1    
   157   79   80 am   BACKBONE|DICT|INTERRES
   158   79  157 1    
   159   80   81 2    
@<TRIPOS>SUBSTRUCTURE
     1 UNK         1 GROUP             0       ****    0 ROOT    
