@<TRIPOS>MOLECULE
3R207
157   159    1
SMALL
USER_CHARGES


@<TRIPOS>ATOM
      1 CA        -51.5032  -22.5810    8.8375 C.3       0 UNK        -0.1975 
      2 C         -51.0562  -23.9388    8.3201 C.2       0 UNK         0.4852 
      3 O         -50.2730  -24.6164    8.9822 O.2       0 UNK        -0.5216 
      4 N         -51.5608  -24.3630    7.1571 N.am      1 UNK        -0.4461 
      5 CA        -51.1869  -25.6278    6.5229 C.3       1 UNK         0.0864 
      6 C6        -52.2924  -26.1521    5.5731 C.3       14 UNK        -0.0898 
      7 S7        -53.8226  -26.6092    6.4595 S.3       14 UNK        -0.2598 
      8 C8        -53.9156  -28.4097    6.1793 C.3       14 UNK         0.0286 
      9 C9        -53.1841  -29.2084    7.2516 C.ar      14 UNK        -0.0844 
     10 C10       -51.7881  -29.2345    7.2902 C.ar      14 UNK        -0.0881 
     11 C11       -51.1144  -29.9713    8.2686 C.ar      14 UNK        -0.0643 
     12 C12       -51.8483  -30.7235    9.1899 C.ar      14 UNK        -0.0930 
     13 C13       -53.2488  -30.7305    9.1496 C.ar      14 UNK        -0.0827 
     14 C14       -53.9061  -29.9573    8.1863 C.ar      14 UNK        -0.1249 
     15 C15       -54.0788  -31.6138   10.0810 C.3       14 UNK         0.0141 
     16 S16       -53.3846  -31.8445   11.7525 S.3       14 UNK        -0.2313 
     17 C17       -53.6445  -30.1934   12.4746 C.3       14 UNK        -0.0915 
     18 CA        -55.0351  -30.0221   13.1467 C.3       13 UNK         0.0968 
     19 C         -55.1142  -30.6530   14.5717 C.2       13 UNK         0.5732 
     20 N         -55.5006  -29.9256   15.6151 N.am      13 UNK        -0.7310 
     21 O         -54.8467  -31.8399   14.7395 O.2       13 UNK        -0.5035 
     22 N         -55.4305  -28.6106   13.1166 N.am      13 UNK        -0.4233 
     23 C         -56.6768  -28.1529   12.9536 C.2       13 UNK         0.4989 
     24 O         -57.6419  -28.8750   12.6971 O.2       13 UNK        -0.4996 
     25 CA        -56.8759  -26.6296   13.1001 C.3       12 UNK         0.0216 
     26 CB        -58.3178  -26.2494   13.5001 C.3       12 UNK        -0.1964 
     27 N         -55.8998  -25.9980   13.9979 N.am      12 UNK        -0.4276 
     28 C         -55.7133  -26.2475   15.3014 C.2       12 UNK         0.5020 
     29 O         -56.3685  -27.0609   15.9572 O.2       12 UNK        -0.5489 
     30 CA        -54.5536  -25.4920   15.9730 C.3       11 UNK         0.0294 
     31 CB        -55.0536  -24.6803   17.1791 C.3       11 UNK        -0.2019 
     32 N         -53.4576  -26.3677   16.4010 N.am      11 UNK        -0.4493 
     33 C         -52.8378  -27.2861   15.6474 C.2       11 UNK         0.4932 
     34 O         -53.1607  -27.5758   14.4966 O.2       11 UNK        -0.5029 
     35 CA        -51.5745  -27.9060   16.2488 C.3       10 UNK         0.0280 
     36 CB        -51.3298  -29.3429   15.7555 C.3       10 UNK        -0.1976 
     37 N         -50.4805  -27.0481   15.8119 N.am      10 UNK        -0.4242 
     38 C         -49.9050  -26.1076   16.5704 C.2       10 UNK         0.5072 
     39 O         -50.0597  -26.0126   17.7890 O.2       10 UNK        -0.5224 
     40 CA        -49.0646  -25.0548   15.8305 C.3       9 UNK         0.0343 
     41 CB        -47.7444  -25.6556   15.3192 C.3       9 UNK        -0.2003 
     42 N         -49.7916  -24.4485   14.7120 N.am      9 UNK        -0.4272 
     43 C         -50.9272  -23.7366   14.8049 C.2       9 UNK         0.4988 
     44 O         -51.4833  -23.4599   15.8674 O.2       9 UNK        -0.5108 
     45 CA        -51.5582  -23.2623   13.4869 C.3       8 UNK         0.0248 
     46 CB        -50.8350  -22.0148   12.9555 C.3       8 UNK        -0.2001 
     47 N         -51.5096  -24.3363   12.4935 N.am      8 UNK        -0.4140 
     48 C         -52.5289  -25.1671   12.2342 C.2       8 UNK         0.5028 
     49 O         -53.6779  -24.9763   12.6379 O.2       8 UNK        -0.5428 
     50 CA        -52.2393  -26.4273   11.3976 C.3       7 UNK         0.0264 
     51 CB        -53.1185  -26.4877   10.1390 C.3       7 UNK        -0.1988 
     52 N         -50.8286  -26.5732   11.0268 N.am      7 UNK        -0.4454 
     53 C         -49.9055  -27.1502   11.8089 C.2       7 UNK         0.5027 
     54 O         -50.1355  -27.5573   12.9483 O.2       7 UNK        -0.5083 
     55 CA        -48.4643  -27.2482   11.2631 C.3       6 UNK         0.0844 
     56 C56       -48.2757  -28.5074   10.3751 C.3       14 UNK        -0.0967 
     57 S57       -48.9314  -28.3268    8.6783 S.3       14 UNK        -0.2604 
     58 C58       -49.5938  -29.9775    8.2961 C.3       14 UNK         0.0134 
     59 N         -47.9584  -26.0239   10.6271 N.am      6 UNK        -0.4116 
     60 C         -48.0160  -24.7820   11.1281 C.2       5 UNK         0.5034 
     61 O         -48.5531  -24.4967   12.2000 O.2       5 UNK        -0.5045 
     62 CA        -47.3524  -23.6836   10.2782 C.3       5 UNK         0.0224 
     63 CB        -47.6146  -22.2583   10.8051 C.3       5 UNK        -0.1978 
     64 N         -45.9162  -23.9224   10.1092 N.am      5 UNK        -0.4737 
     65 C         -44.9706  -24.0221   11.0548 C.2       4 UNK         0.5027 
     66 O         -45.1795  -23.8513   12.2563 O.2       4 UNK        -0.5211 
     67 CA        -43.5518  -24.3954   10.5706 C.3       4 UNK         0.0297 
     68 CB        -42.6531  -24.9027   11.7143 C.3       4 UNK        -0.1993 
     69 N         -43.5835  -25.4079    9.5098 N.am      4 UNK        -0.4486 
     70 C         -43.7629  -25.1629    8.2058 C.2       3 UNK         0.4961 
     71 O         -43.8523  -24.0271    7.7366 O.2       3 UNK        -0.5105 
     72 CA        -43.9193  -26.3750    7.2658 C.3       3 UNK         0.0299 
     73 CB        -43.9290  -27.7439    7.9871 C.3       3 UNK        -0.1972 
     74 N         -45.1062  -26.2436    6.4107 N.am      3 UNK        -0.4305 
     75 C         -46.3789  -26.1107    6.8150 C.2       2 UNK         0.5006 
     76 O         -46.7227  -26.0490    7.9989 O.2       2 UNK        -0.5106 
     77 CA        -47.4406  -26.0408    5.7062 C.3       2 UNK         0.0296 
     78 CB        -47.3460  -27.2386    4.7382 C.3       2 UNK        -0.2002 
     79 N         -48.7744  -26.0173    6.3025 N.am      2 UNK        -0.4032 
     80 C         -49.8554  -25.4379    5.7714 C.2       1 UNK         0.5000 
     81 O         -49.8393  -24.7811    4.7270 O.2       1 UNK        -0.5238 
     82 H82       -52.1661  -22.0756    8.1357 H         1 UNK         0.0889 
     83 H83       -50.6375  -21.9423    9.0094 H         1 UNK         0.0889 
     84 H84       -52.0334  -22.7003    9.7819 H         1 UNK         0.0889 
     85 H85       -52.1956  -23.7775    6.6337 H         1 UNK         0.3028 
     86 H86       -51.0398  -26.3800    7.3014 H         1 UNK         0.0864 
     87 H87       -51.9325  -27.0119    5.0059 H         1 UNK         0.0720 
     88 H88       -52.5483  -25.3957    4.8287 H         1 UNK         0.0720 
     89 H89       -54.9695  -28.6914    6.1601 H         1 UNK         0.0814 
     90 H90       -53.5266  -28.6651    5.1929 H         1 UNK         0.0814 
     91 H91       -51.2177  -28.6785    6.5609 H         1 UNK         0.1469 
     92 H92       -51.3253  -31.3198    9.9241 H         1 UNK         0.1381 
     93 H93       -54.9869  -29.9601    8.1465 H         1 UNK         0.1206 
     94 H94       -55.0903  -31.2166   10.1794 H         1 UNK         0.0813 
     95 H95       -54.1799  -32.5946    9.6152 H         1 UNK         0.0813 
     96 H96       -53.5161  -29.4643   11.6731 H         1 UNK         0.0638 
     97 H97       -52.8411  -29.9892   13.1823 H         1 UNK         0.0638 
     98 H98       -55.7586  -30.5752   12.5459 H         1 UNK         0.0568 
     99 H99       -55.7560  -28.9491   15.5182 H         1 UNK         0.3450 
    100 H100      -55.5568  -30.3658   16.5189 H         1 UNK         0.3450 
    101 H101      -54.7029  -27.9660   13.4145 H         1 UNK         0.2987 
    102 H102      -56.6862  -26.2094   12.1114 H         1 UNK         0.0766 
    103 H103      -58.4342  -25.1689   13.5842 H         1 UNK         0.0798 
    104 H104      -58.6035  -26.6933   14.4542 H         1 UNK         0.0798 
    105 H105      -59.0355  -26.5934   12.7544 H         1 UNK         0.0798 
    106 H106      -55.1989  -25.4199   13.5296 H         1 UNK         0.3198 
    107 H107      -54.1316  -24.7870   15.2544 H         1 UNK         0.0843 
    108 H108      -55.4306  -25.3274   17.9723 H         1 UNK         0.0831 
    109 H109      -55.8662  -24.0126   16.8896 H         1 UNK         0.0831 
    110 H110      -54.2600  -24.0601   17.5967 H         1 UNK         0.0831 
    111 H111      -53.0876  -26.1910   17.3239 H         1 UNK         0.3133 
    112 H112      -51.6649  -27.9260   17.3368 H         1 UNK         0.0566 
    113 H113      -50.4618  -29.7832   16.2457 H         1 UNK         0.0814 
    114 H114      -52.1873  -29.9815   15.9712 H         1 UNK         0.0814 
    115 H115      -51.1548  -29.3798   14.6802 H         1 UNK         0.0814 
    116 H116      -50.3133  -27.0465   14.8076 H         1 UNK         0.3091 
    117 H117      -48.8261  -24.2587   16.5386 H         1 UNK         0.0702 
    118 H118      -47.1153  -24.8934   14.8580 H         1 UNK         0.0785 
    119 H119      -47.9146  -26.4363   14.5769 H         1 UNK         0.0785 
    120 H120      -47.1735  -26.0982   16.1365 H         1 UNK         0.0785 
    121 H121      -49.3663  -24.5596   13.7931 H         1 UNK         0.2998 
    122 H122      -52.5947  -22.9840   13.6888 H         1 UNK         0.0697 
    123 H123      -49.7642  -22.1822   12.8459 H         1 UNK         0.0825 
    124 H124      -50.9593  -21.1767   13.6423 H         1 UNK         0.0825 
    125 H125      -51.2307  -21.7038   11.9890 H         1 UNK         0.0825 
    126 H126      -50.5949  -24.5623   12.1185 H         1 UNK         0.3029 
    127 H127      -52.5164  -27.2810   12.0173 H         1 UNK         0.0897 
    128 H128      -52.8946  -27.3721    9.5425 H         1 UNK         0.0792 
    129 H129      -52.9894  -25.6127    9.5054 H         1 UNK         0.0792 
    130 H130      -54.1748  -26.5393   10.4056 H         1 UNK         0.0792 
    131 H131      -50.5383  -26.1573   10.1448 H         1 UNK         0.3086 
    132 H132      -47.8304  -27.3896   12.1407 H         1 UNK         0.0583 
    133 H133      -47.2108  -28.7282   10.2878 H         1 UNK         0.1020 
    134 H134      -48.7155  -29.3834   10.8562 H         1 UNK         0.1020 
    135 H135      -49.2262  -30.2787    7.3142 H         1 UNK         0.0694 
    136 H136      -49.2116  -30.7169    9.0011 H         1 UNK         0.0694 
    137 H137      -47.5254  -26.1445    9.7140 H         1 UNK         0.2989 
    138 H138      -47.7930  -23.7504    9.2822 H         1 UNK         0.1055 
    139 H139      -48.6802  -22.0317   10.7783 H         1 UNK         0.0806 
    140 H140      -47.1117  -21.5100   10.1929 H         1 UNK         0.0806 
    141 H141      -47.2753  -22.1338   11.8341 H         1 UNK         0.0806 
    142 H142      -45.6253  -24.1160    9.1583 H         1 UNK         0.3061 
    143 H143      -43.1013  -23.4813   10.1779 H         1 UNK         0.0734 
    144 H144      -41.6522  -25.1446   11.3563 H         1 UNK         0.0832 
    145 H145      -42.5406  -24.1443   12.4903 H         1 UNK         0.0832 
    146 H146      -43.0666  -25.7942   12.1874 H         1 UNK         0.0832 
    147 H147      -43.5676  -26.3718    9.8109 H         1 UNK         0.3156 
    148 H148      -43.0546  -26.3568    6.6010 H         1 UNK         0.0589 
    149 H149      -44.7559  -27.8336    8.6932 H         1 UNK         0.0808 
    150 H150      -44.0258  -28.5593    7.2700 H         1 UNK         0.0808 
    151 H151      -42.9996  -27.9150    8.5318 H         1 UNK         0.0808 
    152 H152      -44.9221  -26.2348    5.4174 H         1 UNK         0.3098 
    153 H153      -47.2727  -25.1126    5.1562 H         1 UNK         0.0720 
    154 H154      -48.1251  -27.1955    3.9768 H         1 UNK         0.0791 
    155 H155      -47.4508  -28.1873    5.2667 H         1 UNK         0.0791 
    156 H156      -46.3920  -27.2589    4.2110 H         1 UNK         0.0791 
    157 H157      -48.8320  -26.4585    7.2143 H         1 UNK         0.3028 
@<TRIPOS>BOND
     1    1    2 1    
     2    1   82 1    
     3    1   83 1    
     4    1   84 1    
     5    2    3 2    
     6    2    4 am   BACKBONE|DICT|INTERRES
     7    4    5 1    
     8    4   85 1    
     9    5    6 1    
    10    5   80 1    
    11    5   86 1    
    12    6    7 1    
    13    6   87 1    
    14    6   88 1    
    15    7    8 1    
    16    8    9 1    
    17    8   89 1    
    18    8   90 1    
    19    9   10 ar   
    20    9   14 ar   
    21   10   11 ar   
    22   10   91 1    
    23   11   12 ar   
    24   11   58 1    
    25   12   13 ar   
    26   12   92 1    
    27   13   14 ar   
    28   13   15 1    
    29   14   93 1    
    30   15   16 1    
    31   15   94 1    
    32   15   95 1    
    33   16   17 1    
    34   17   18 1    
    35   17   96 1    
    36   17   97 1    
    37   18   19 1    
    38   18   22 1    
    39   18   98 1    
    40   19   20 am   BACKBONE|DICT|INTERRES
    41   19   21 2    
    42   20   99 1    
    43   20  100 1    
    44   22   23 am   BACKBONE|DICT|INTERRES
    45   22  101 1    
    46   23   24 2    
    47   23   25 1    
    48   25   26 1    
    49   25   27 1    
    50   25  102 1    
    51   26  103 1    
    52   26  104 1    
    53   26  105 1    
    54   27   28 am   BACKBONE|DICT|INTERRES
    55   27  106 1    
    56   28   29 2    
    57   28   30 1    
    58   30   31 1    
    59   30   32 1    
    60   30  107 1    
    61   31  108 1    
    62   31  109 1    
    63   31  110 1    
    64   32   33 am   BACKBONE|DICT|INTERRES
    65   32  111 1    
    66   33   34 2    
    67   33   35 1    
    68   35   36 1    
    69   35   37 1    
    70   35  112 1    
    71   36  113 1    
    72   36  114 1    
    73   36  115 1    
    74   37   38 am   BACKBONE|DICT|INTERRES
    75   37  116 1    
    76   38   39 2    
    77   38   40 1    
    78   40   41 1    
    79   40   42 1    
    80   40  117 1    
    81   41  118 1    
    82   41  119 1    
    83   41  120 1    
    84   42   43 am   BACKBONE|DICT|INTERRES
    85   42  121 1    
    86   43   44 2    
    87   43   45 1    
    88   45   46 1    
    89   45   47 1    
    90   45  122 1    
    91   46  123 1    
    92   46  124 1    
    93   46  125 1    
    94   47   48 am   BACKBONE|DICT|INTERRES
    95   47  126 1    
    96   48   49 2    
    97   48   50 1    
    98   50   51 1    
    99   50   52 1    
   100   50  127 1    
   101   51  128 1    
   102   51  129 1    
   103   51  130 1    
   104   52   53 am   BACKBONE|DICT|INTERRES
   105   52  131 1    
   106   53   54 2    
   107   53   55 1    
   108   55   56 1    
   109   55   59 1    
   110   55  132 1    
   111   56   57 1    
   112   56  133 1    
   113   56  134 1    
   114   57   58 1    
   115   58  135 1    
   116   58  136 1    
   117   59   60 am   BACKBONE|DICT|INTERRES
   118   59  137 1    
   119   60   61 2    
   120   60   62 1    
   121   62   63 1    
   122   62   64 1    
   123   62  138 1    
   124   63  139 1    
   125   63  140 1    
   126   63  141 1    
   127   64   65 am   BACKBONE|DICT|INTERRES
   128   64  142 1    
   129   65   66 2    
   130   65   67 1    
   131   67   68 1    
   132   67   69 1    
   133   67  143 1    
   134   68  144 1    
   135   68  145 1    
   136   68  146 1    
   137   69   70 am   BACKBONE|DICT|INTERRES
   138   69  147 1    
   139   70   71 2    
   140   70   72 1    
   141   72   73 1    
   142   72   74 1    
   143   72  148 1    
   144   73  149 1    
   145   73  150 1    
   146   73  151 1    
   147   74   75 am   BACKBONE|DICT|INTERRES
   148   74  152 1    
   149   75   76 2    
   150   75   77 1    
   151   77   78 1    
   152   77   79 1    
   153   77  153 1    
   154   78  154 1    
   155   78  155 1    
   156   78  156 1    
   157   79   80 am   BACKBONE|DICT|INTERRES
   158   79  157 1    
   159   80   81 2    
@<TRIPOS>SUBSTRUCTURE
     1 UNK         1 GROUP             0       ****    0 ROOT    
