@<TRIPOS>MOLECULE
3R207
157   159    1
SMALL
USER_CHARGES


@<TRIPOS>ATOM
      1 CA        -51.3346  -26.1647    7.6304 C.3       0 UNK        -0.1975 
      2 C         -52.1169  -25.9716    6.3355 C.2       0 UNK         0.4852 
      3 O         -52.8950  -25.0247    6.2356 O.2       0 UNK        -0.5216 
      4 N         -51.9574  -26.8349    5.3235 N.am      1 UNK        -0.4461 
      5 CA        -51.0130  -27.9532    5.2579 C.3       1 UNK         0.0864 
      6 C6        -51.5301  -29.0348    4.2712 C.3       14 UNK        -0.0898 
      7 S7        -50.5372  -30.5705    4.2609 S.3       14 UNK        -0.2598 
      8 C8        -51.4690  -31.6409    5.4000 C.3       14 UNK         0.0286 
      9 C9        -51.5402  -31.0527    6.8012 C.ar      14 UNK        -0.0844 
     10 C10       -50.3985  -31.0057    7.6076 C.ar      14 UNK        -0.0881 
     11 C11       -50.4637  -30.4659    8.8951 C.ar      14 UNK        -0.0643 
     12 C12       -51.6911  -30.0063    9.3823 C.ar      14 UNK        -0.0930 
     13 C13       -52.8306  -29.9979    8.5701 C.ar      14 UNK        -0.0827 
     14 C14       -52.7468  -30.5377    7.2838 C.ar      14 UNK        -0.1249 
     15 C15       -54.1610  -29.4157    9.0474 C.3       14 UNK         0.0141 
     16 S16       -53.9929  -27.9694   10.1531 S.3       14 UNK        -0.2313 
     17 C17       -54.0872  -28.7677   11.7924 C.3       14 UNK        -0.0915 
     18 CA        -55.4861  -28.5739   12.4375 C.3       13 UNK         0.0968 
     19 C         -55.7197  -29.5290   13.6448 C.2       13 UNK         0.5732 
     20 N         -56.1298  -29.0576   14.8177 N.am      13 UNK        -0.7310 
     21 O         -55.5479  -30.7379   13.5091 O.2       13 UNK        -0.5035 
     22 N         -55.7379  -27.1598   12.7490 N.am      13 UNK        -0.4233 
     23 C         -56.9348  -26.5627   12.6816 C.2       13 UNK         0.4989 
     24 O         -57.9489  -27.1169   12.2528 O.2       13 UNK        -0.4996 
     25 CA        -57.0164  -25.1018   13.1797 C.3       12 UNK         0.0216 
     26 CB        -58.4432  -24.7020   13.6143 C.3       12 UNK        -0.1964 
     27 N         -56.0483  -24.7800   14.2387 N.am      12 UNK        -0.4276 
     28 C         -55.9185  -25.3945   15.4231 C.2       12 UNK         0.5020 
     29 O         -56.6358  -26.3203   15.8106 O.2       12 UNK        -0.5489 
     30 CA        -54.7480  -24.9296   16.3042 C.3       11 UNK         0.0294 
     31 CB        -55.2631  -24.2884   17.6031 C.3       11 UNK        -0.2019 
     32 N         -53.8395  -26.0325   16.6307 N.am      11 UNK        -0.4493 
     33 C         -53.2056  -26.8033   15.7361 C.2       11 UNK         0.4932 
     34 O         -53.3109  -26.6739   14.5147 O.2       11 UNK        -0.5029 
     35 CA        -52.2905  -27.8884   16.3108 C.3       10 UNK         0.0280 
     36 CB        -52.4613  -29.2352   15.5867 C.3       10 UNK        -0.1976 
     37 N         -50.9093  -27.4433   16.1691 N.am      10 UNK        -0.4242 
     38 C         -49.9778  -27.5057   17.1278 C.2       10 UNK         0.5072 
     39 O         -50.1862  -27.9363   18.2634 O.2       10 UNK        -0.5224 
     40 CA        -48.5663  -27.0172   16.7633 C.3       9 UNK         0.0343 
     41 CB        -47.8140  -28.0903   15.9594 C.3       9 UNK        -0.2003 
     42 N         -48.5674  -25.7545   16.0226 N.am      9 UNK        -0.4272 
     43 C         -48.8838  -24.5634   16.5530 C.2       9 UNK         0.4988 
     44 O         -49.1843  -24.3966   17.7356 O.2       9 UNK        -0.5108 
     45 CA        -48.8588  -23.3489   15.6080 C.3       8 UNK         0.0248 
     46 CB        -47.4214  -22.8448   15.4027 C.3       8 UNK        -0.2001 
     47 N         -49.4704  -23.6408   14.3115 N.am      8 UNK        -0.4140 
     48 C         -50.7768  -23.8765   14.1273 C.2       8 UNK         0.5028 
     49 O         -51.6246  -23.7481   15.0099 O.2       8 UNK        -0.5428 
     50 CA        -51.2112  -24.3481   12.7289 C.3       7 UNK         0.0264 
     51 CB        -51.5790  -23.1528   11.8354 C.3       7 UNK        -0.1988 
     52 N         -50.1980  -25.1670   12.0580 N.am      7 UNK        -0.4454 
     53 C         -49.8225  -26.3908   12.4593 C.2       7 UNK         0.5027 
     54 O         -50.2791  -26.9621   13.4479 O.2       7 UNK        -0.5083 
     55 CA        -48.7282  -27.0850   11.6260 C.3       6 UNK         0.0844 
     56 C56       -49.3304  -27.5968   10.2976 C.3       14 UNK        -0.0967 
     57 S57       -48.2843  -28.8263    9.4487 S.3       14 UNK        -0.2604 
     58 C58       -49.2084  -30.3724    9.7544 C.3       14 UNK         0.0134 
     59 N         -47.5798  -26.1981   11.4182 N.am      6 UNK        -0.4116 
     60 C         -46.8030  -25.7178   12.4028 C.2       5 UNK         0.5034 
     61 O         -46.9221  -26.0346   13.5854 O.2       5 UNK        -0.5045 
     62 CA        -45.7524  -24.6582   12.0228 C.3       5 UNK         0.0224 
     63 CB        -44.4288  -25.3323   11.6290 C.3       5 UNK        -0.1978 
     64 N         -46.1856  -23.7701   10.9415 N.am      5 UNK        -0.4737 
     65 C         -47.2903  -23.0095   10.9537 C.2       4 UNK         0.5027 
     66 O         -48.0172  -22.8855   11.9380 O.2       4 UNK        -0.5211 
     67 CA        -47.6868  -22.3199    9.6337 C.3       4 UNK         0.0297 
     68 CB        -47.3339  -20.8254    9.6855 C.3       4 UNK        -0.1993 
     69 N         -47.0838  -22.9229    8.4366 N.am      4 UNK        -0.4486 
     70 C         -47.2602  -24.1901    8.0376 C.2       3 UNK         0.4961 
     71 O         -47.9870  -25.0004    8.6190 O.2       3 UNK        -0.5105 
     72 CA        -46.4179  -24.6445    6.8429 C.3       3 UNK         0.0299 
     73 CB        -44.9297  -24.7437    7.2430 C.3       3 UNK        -0.1972 
     74 N         -46.9072  -25.9447    6.3951 N.am      3 UNK        -0.4305 
     75 C         -46.5829  -26.5465    5.2461 C.2       2 UNK         0.5006 
     76 O         -45.8405  -26.0530    4.3957 O.2       2 UNK        -0.5106 
     77 CA        -47.1748  -27.9433    5.0019 C.3       2 UNK         0.0296 
     78 CB        -46.3274  -29.0170    5.7047 C.3       2 UNK        -0.2002 
     79 N         -48.5737  -28.0936    5.4087 N.am      2 UNK        -0.4032 
     80 C         -49.6112  -27.4461    4.8593 C.2       1 UNK         0.5000 
     81 O         -49.5020  -26.5338    4.0356 O.2       1 UNK        -0.5238 
     82 H82       -50.2627  -26.1186    7.4446 H         1 UNK         0.0889 
     83 H83       -51.5781  -27.1219    8.0912 H         1 UNK         0.0889 
     84 H84       -51.5800  -25.3816    8.3476 H         1 UNK         0.0889 
     85 H85       -52.4625  -26.6576    4.4673 H         1 UNK         0.3028 
     86 H86       -50.9468  -28.4064    6.2473 H         1 UNK         0.0864 
     87 H87       -51.5552  -28.6419    3.2529 H         1 UNK         0.0720 
     88 H88       -52.5626  -29.2939    4.5113 H         1 UNK         0.0720 
     89 H89       -50.9855  -32.6178    5.4437 H         1 UNK         0.0814 
     90 H90       -52.4680  -31.8135    4.9964 H         1 UNK         0.0814 
     91 H91       -49.4572  -31.3795    7.2275 H         1 UNK         0.1469 
     92 H92       -51.7532  -29.6290   10.3916 H         1 UNK         0.1381 
     93 H93       -53.6246  -30.5524    6.6519 H         1 UNK         0.1206 
     94 H94       -54.7477  -30.1977    9.5310 H         1 UNK         0.0813 
     95 H95       -54.7443  -29.0917    8.1842 H         1 UNK         0.0813 
     96 H96       -53.8440  -29.8261   11.6851 H         1 UNK         0.0638 
     97 H97       -53.3074  -28.3449   12.4272 H         1 UNK         0.0638 
     98 H98       -56.2193  -28.8953   11.6955 H         1 UNK         0.0568 
     99 H99       -56.2959  -28.0674   14.9672 H         1 UNK         0.3450 
    100 H100      -56.2903  -29.7056   15.5713 H         1 UNK         0.3450 
    101 H101      -54.9578  -26.6688   13.1706 H         1 UNK         0.2987 
    102 H102      -56.7477  -24.4818   12.3232 H         1 UNK         0.0766 
    103 H103      -59.1495  -24.8053   12.7895 H         1 UNK         0.0798 
    104 H104      -58.8054  -25.3255   14.4325 H         1 UNK         0.0798 
    105 H105      -58.4822  -23.6632   13.9420 H         1 UNK         0.0798 
    106 H106      -55.3837  -24.0530   14.0098 H         1 UNK         0.3198 
    107 H107      -54.1688  -24.1805   15.7609 H         1 UNK         0.0843 
    108 H108      -55.8208  -25.0016   18.2118 H         1 UNK         0.0831 
    109 H109      -55.9312  -23.4536   17.3867 H         1 UNK         0.0831 
    110 H110      -54.4435  -23.8975   18.2064 H         1 UNK         0.0831 
    111 H111      -53.6995  -26.2213   17.6123 H         1 UNK         0.3133 
    112 H112      -52.5443  -28.0339   17.3628 H         1 UNK         0.0566 
    113 H113      -52.2357  -29.1549   14.5225 H         1 UNK         0.0814 
    114 H114      -51.8048  -29.9960   16.0087 H         1 UNK         0.0814 
    115 H115      -53.4828  -29.6017   15.6827 H         1 UNK         0.0814 
    116 H116      -50.6588  -27.0914   15.2448 H         1 UNK         0.3091 
    117 H117      -48.0216  -26.8569   17.6963 H         1 UNK         0.0702 
    118 H118      -46.7783  -27.7987   15.7839 H         1 UNK         0.0785 
    119 H119      -48.2788  -28.2684   14.9888 H         1 UNK         0.0785 
    120 H120      -47.7971  -29.0407   16.4943 H         1 UNK         0.0785 
    121 H121      -48.2720  -25.7996   15.0525 H         1 UNK         0.2998 
    122 H122      -49.4346  -22.5477   16.0762 H         1 UNK         0.0697 
    123 H123      -46.7827  -23.6117   14.9651 H         1 UNK         0.0825 
    124 H124      -46.9732  -22.5521   16.3530 H         1 UNK         0.0825 
    125 H125      -47.3952  -21.9733   14.7481 H         1 UNK         0.0825 
    126 H126      -48.8596  -23.6513   13.4990 H         1 UNK         0.3029 
    127 H127      -52.1036  -24.9645   12.8562 H         1 UNK         0.0897 
    128 H128      -50.7228  -22.5014   11.6567 H         1 UNK         0.0792 
    129 H129      -52.3575  -22.5462   12.3001 H         1 UNK         0.0792 
    130 H130      -51.9601  -23.4821   10.8686 H         1 UNK         0.0792 
    131 H131      -49.7310  -24.7509   11.2652 H         1 UNK         0.3086 
    132 H132      -48.3829  -27.9464   12.2022 H         1 UNK         0.0583 
    133 H133      -50.3139  -28.0243   10.4732 H         1 UNK         0.1020 
    134 H134      -49.5032  -26.7660    9.6169 H         1 UNK         0.1020 
    135 H135      -48.5540  -31.2188    9.5404 H         1 UNK         0.0694 
    136 H136      -49.4610  -30.4452   10.8135 H         1 UNK         0.0694 
    137 H137      -47.4404  -25.8622   10.4722 H         1 UNK         0.2989 
    138 H138      -45.5756  -24.0399   12.9050 H         1 UNK         0.1055 
    139 H139      -44.0699  -25.9818   12.4289 H         1 UNK         0.0806 
    140 H140      -43.6481  -24.5955   11.4388 H         1 UNK         0.0806 
    141 H141      -44.5373  -25.9472   10.7346 H         1 UNK         0.0806 
    142 H142      -45.6456  -23.7959   10.0897 H         1 UNK         0.3061 
    143 H143      -48.7706  -22.4133    9.5381 H         1 UNK         0.0734 
    144 H144      -46.2574  -20.6660    9.7592 H         1 UNK         0.0832 
    145 H145      -47.6936  -20.3001    8.8007 H         1 UNK         0.0832 
    146 H146      -47.7933  -20.3466   10.5518 H         1 UNK         0.0832 
    147 H147      -46.4639  -22.3314    7.9009 H         1 UNK         0.3156 
    148 H148      -46.5422  -23.9197    6.0359 H         1 UNK         0.0589 
    149 H149      -44.7762  -25.4739    8.0387 H         1 UNK         0.0808 
    150 H150      -44.3053  -25.0383    6.3998 H         1 UNK         0.0808 
    151 H151      -44.5446  -23.7868    7.5969 H         1 UNK         0.0808 
    152 H152      -47.5458  -26.3913    7.0422 H         1 UNK         0.3098 
    153 H153      -47.1294  -28.1303    3.9268 H         1 UNK         0.0720 
    154 H154      -46.6669  -30.0211    5.4492 H         1 UNK         0.0791 
    155 H155      -46.3645  -28.9159    6.7903 H         1 UNK         0.0791 
    156 H156      -45.2804  -28.9455    5.4064 H         1 UNK         0.0791 
    157 H157      -48.7656  -28.8361    6.0658 H         1 UNK         0.3028 
@<TRIPOS>BOND
     1    1    2 1    
     2    1   82 1    
     3    1   83 1    
     4    1   84 1    
     5    2    3 2    
     6    2    4 am   BACKBONE|DICT|INTERRES
     7    4    5 1    
     8    4   85 1    
     9    5    6 1    
    10    5   80 1    
    11    5   86 1    
    12    6    7 1    
    13    6   87 1    
    14    6   88 1    
    15    7    8 1    
    16    8    9 1    
    17    8   89 1    
    18    8   90 1    
    19    9   10 ar   
    20    9   14 ar   
    21   10   11 ar   
    22   10   91 1    
    23   11   12 ar   
    24   11   58 1    
    25   12   13 ar   
    26   12   92 1    
    27   13   14 ar   
    28   13   15 1    
    29   14   93 1    
    30   15   16 1    
    31   15   94 1    
    32   15   95 1    
    33   16   17 1    
    34   17   18 1    
    35   17   96 1    
    36   17   97 1    
    37   18   19 1    
    38   18   22 1    
    39   18   98 1    
    40   19   20 am   BACKBONE|DICT|INTERRES
    41   19   21 2    
    42   20   99 1    
    43   20  100 1    
    44   22   23 am   BACKBONE|DICT|INTERRES
    45   22  101 1    
    46   23   24 2    
    47   23   25 1    
    48   25   26 1    
    49   25   27 1    
    50   25  102 1    
    51   26  103 1    
    52   26  104 1    
    53   26  105 1    
    54   27   28 am   BACKBONE|DICT|INTERRES
    55   27  106 1    
    56   28   29 2    
    57   28   30 1    
    58   30   31 1    
    59   30   32 1    
    60   30  107 1    
    61   31  108 1    
    62   31  109 1    
    63   31  110 1    
    64   32   33 am   BACKBONE|DICT|INTERRES
    65   32  111 1    
    66   33   34 2    
    67   33   35 1    
    68   35   36 1    
    69   35   37 1    
    70   35  112 1    
    71   36  113 1    
    72   36  114 1    
    73   36  115 1    
    74   37   38 am   BACKBONE|DICT|INTERRES
    75   37  116 1    
    76   38   39 2    
    77   38   40 1    
    78   40   41 1    
    79   40   42 1    
    80   40  117 1    
    81   41  118 1    
    82   41  119 1    
    83   41  120 1    
    84   42   43 am   BACKBONE|DICT|INTERRES
    85   42  121 1    
    86   43   44 2    
    87   43   45 1    
    88   45   46 1    
    89   45   47 1    
    90   45  122 1    
    91   46  123 1    
    92   46  124 1    
    93   46  125 1    
    94   47   48 am   BACKBONE|DICT|INTERRES
    95   47  126 1    
    96   48   49 2    
    97   48   50 1    
    98   50   51 1    
    99   50   52 1    
   100   50  127 1    
   101   51  128 1    
   102   51  129 1    
   103   51  130 1    
   104   52   53 am   BACKBONE|DICT|INTERRES
   105   52  131 1    
   106   53   54 2    
   107   53   55 1    
   108   55   56 1    
   109   55   59 1    
   110   55  132 1    
   111   56   57 1    
   112   56  133 1    
   113   56  134 1    
   114   57   58 1    
   115   58  135 1    
   116   58  136 1    
   117   59   60 am   BACKBONE|DICT|INTERRES
   118   59  137 1    
   119   60   61 2    
   120   60   62 1    
   121   62   63 1    
   122   62   64 1    
   123   62  138 1    
   124   63  139 1    
   125   63  140 1    
   126   63  141 1    
   127   64   65 am   BACKBONE|DICT|INTERRES
   128   64  142 1    
   129   65   66 2    
   130   65   67 1    
   131   67   68 1    
   132   67   69 1    
   133   67  143 1    
   134   68  144 1    
   135   68  145 1    
   136   68  146 1    
   137   69   70 am   BACKBONE|DICT|INTERRES
   138   69  147 1    
   139   70   71 2    
   140   70   72 1    
   141   72   73 1    
   142   72   74 1    
   143   72  148 1    
   144   73  149 1    
   145   73  150 1    
   146   73  151 1    
   147   74   75 am   BACKBONE|DICT|INTERRES
   148   74  152 1    
   149   75   76 2    
   150   75   77 1    
   151   77   78 1    
   152   77   79 1    
   153   77  153 1    
   154   78  154 1    
   155   78  155 1    
   156   78  156 1    
   157   79   80 am   BACKBONE|DICT|INTERRES
   158   79  157 1    
   159   80   81 2    
@<TRIPOS>SUBSTRUCTURE
     1 UNK         1 GROUP             0       ****    0 ROOT    
