@<TRIPOS>MOLECULE
3R207
157   159    1
SMALL
USER_CHARGES


@<TRIPOS>ATOM
      1 CA        -46.6001  -28.3443    4.9676 C.3       0 UNK        -0.1975 
      2 C         -47.7145  -27.4097    5.4118 C.2       0 UNK         0.4852 
      3 O         -47.6660  -26.2171    5.1062 O.2       0 UNK        -0.5216 
      4 N         -48.7111  -27.9394    6.1372 N.am      1 UNK        -0.4461 
      5 CA        -49.8605  -27.2146    6.6924 C.3       1 UNK         0.0864 
      6 C6        -50.7768  -28.1495    7.5191 C.3       14 UNK        -0.0898 
      7 S7        -51.7837  -29.2502    6.4724 S.3       14 UNK        -0.2598 
      8 C8        -53.1607  -28.1584    5.9686 C.3       14 UNK         0.0286 
      9 C9        -53.9808  -27.6574    7.1509 C.ar      14 UNK        -0.0844 
     10 C10       -53.7616  -26.3786    7.6720 C.ar      14 UNK        -0.0881 
     11 C11       -54.4869  -25.9314    8.7788 C.ar      14 UNK        -0.0643 
     12 C12       -55.4638  -26.7566    9.3414 C.ar      14 UNK        -0.0930 
     13 C13       -55.7011  -28.0399    8.8294 C.ar      14 UNK        -0.0827 
     14 C14       -54.9559  -28.4753    7.7281 C.ar      14 UNK        -0.1249 
     15 C15       -56.7221  -29.0051    9.4355 C.3       14 UNK         0.0141 
     16 S16       -57.4043  -28.5185   11.0621 S.3       14 UNK        -0.2313 
     17 C17       -57.6324  -30.1402   11.8681 C.3       14 UNK        -0.0915 
     18 CA        -56.6829  -30.3555   13.0882 C.3       13 UNK         0.0968 
     19 C         -56.9091  -31.7126   13.8236 C.2       13 UNK         0.5732 
     20 N         -58.1378  -32.2103   13.8851 N.am      13 UNK        -0.7310 
     21 O         -55.9914  -32.3019   14.3917 O.2       13 UNK        -0.5035 
     22 N         -55.2659  -30.0899   12.7844 N.am      13 UNK        -0.4233 
     23 C         -54.4936  -30.7609   11.9170 C.2       13 UNK         0.4989 
     24 O         -54.8866  -31.6968   11.2191 O.2       13 UNK        -0.4996 
     25 CA        -53.0263  -30.3047   11.7933 C.3       12 UNK         0.0216 
     26 CB        -52.8685  -29.3103   10.6307 C.3       12 UNK        -0.1964 
     27 N         -52.5057  -29.6909   13.0167 N.am      12 UNK        -0.4276 
     28 C         -52.2740  -30.3367   14.1685 C.2       12 UNK         0.5020 
     29 O         -52.4012  -31.5534   14.3061 O.2       12 UNK        -0.5489 
     30 CA        -51.8196  -29.4895   15.3711 C.3       11 UNK         0.0294 
     31 CB        -50.3757  -29.8326   15.7765 C.3       11 UNK        -0.2019 
     32 N         -51.9126  -28.0465   15.1344 N.am      11 UNK        -0.4493 
     33 C         -53.0409  -27.3253   15.1772 C.2       11 UNK         0.4932 
     34 O         -54.1521  -27.8218   15.3686 O.2       11 UNK        -0.5029 
     35 CA        -52.9006  -25.8069   14.9354 C.3       10 UNK         0.0280 
     36 CB        -54.0846  -25.0006   15.5083 C.3       10 UNK        -0.1976 
     37 N         -51.6192  -25.2510   15.3987 N.am      10 UNK        -0.4242 
     38 C         -51.1329  -25.2640   16.6507 C.2       10 UNK         0.5072 
     39 O         -51.7190  -25.7491   17.6192 O.2       10 UNK        -0.5224 
     40 CA        -49.7425  -24.6367   16.8601 C.3       9 UNK         0.0343 
     41 CB        -48.6478  -25.7013   16.6787 C.3       9 UNK        -0.2003 
     42 N         -49.4540  -23.4996   15.9806 N.am      9 UNK        -0.4272 
     43 C         -50.1062  -22.3293   15.9698 C.2       9 UNK         0.4988 
     44 O         -51.0554  -22.0746   16.7115 O.2       9 UNK        -0.5108 
     45 CA        -49.6439  -21.2536   14.9653 C.3       8 UNK         0.0248 
     46 CB        -48.6917  -20.2448   15.6374 C.3       8 UNK        -0.2001 
     47 N         -49.0814  -21.7685   13.7059 N.am      8 UNK        -0.4140 
     48 C         -47.9436  -22.4456   13.4979 C.2       8 UNK         0.5028 
     49 O         -47.1693  -22.7755   14.3977 O.2       8 UNK        -0.5428 
     50 CA        -47.6871  -22.9102   12.0522 C.3       7 UNK         0.0264 
     51 CB        -46.1994  -23.2192   11.8012 C.3       7 UNK        -0.1988 
     52 N         -48.4972  -24.0969   11.7546 N.am      7 UNK        -0.4454 
     53 C         -49.8252  -24.0689   11.5490 C.2       7 UNK         0.5027 
     54 O         -50.4547  -23.0126   11.4701 O.2       7 UNK        -0.5083 
     55 CA        -50.5926  -25.4074   11.4568 C.3       6 UNK         0.0844 
     56 C56       -51.6998  -25.4095   10.3709 C.3       14 UNK        -0.0967 
     57 S57       -53.2816  -24.7148   10.9557 S.3       14 UNK        -0.2604 
     58 C58       -54.2010  -24.5672    9.3895 C.3       14 UNK         0.0134 
     59 N         -49.6879  -26.5501   11.3094 N.am      6 UNK        -0.4116 
     60 C         -49.3350  -27.3762   12.3021 C.2       5 UNK         0.5034 
     61 O         -49.7666  -27.2784   13.4512 O.2       5 UNK        -0.5045 
     62 CA        -48.3303  -28.4998   11.9833 C.3       5 UNK         0.0224 
     63 CB        -49.0562  -29.8396   11.7849 C.3       5 UNK        -0.1978 
     64 N         -47.4575  -28.2657   10.8276 N.am      5 UNK        -0.4737 
     65 C         -46.5839  -27.2587   10.7030 C.2       4 UNK         0.5027 
     66 O         -46.5004  -26.3382   11.5138 O.2       4 UNK        -0.5211 
     67 CA        -45.6450  -27.2763    9.4877 C.3       4 UNK         0.0297 
     68 CB        -45.7402  -28.5515    8.6231 C.3       4 UNK        -0.1993 
     69 N         -45.9179  -26.1068    8.6577 N.am      4 UNK        -0.4486 
     70 C         -44.9865  -25.3287    8.0888 C.2       3 UNK         0.4961 
     71 O         -43.7763  -25.5047    8.2377 O.2       3 UNK        -0.5105 
     72 CA        -45.4549  -24.1751    7.1781 C.3       3 UNK         0.0299 
     73 CB        -44.8438  -24.3079    5.7719 C.3       3 UNK        -0.1972 
     74 N         -46.9123  -24.1117    7.0517 N.am      3 UNK        -0.4305 
     75 C         -47.7120  -23.3507    7.8127 C.2       2 UNK         0.5006 
     76 O         -47.2965  -22.5332    8.6325 O.2       2 UNK        -0.5106 
     77 CA        -49.2347  -23.5278    7.6535 C.3       2 UNK         0.0296 
     78 CB        -49.8328  -22.3638    6.8476 C.3       2 UNK        -0.2002 
     79 N         -49.6414  -24.7955    7.0377 N.am      2 UNK        -0.4032 
     80 C         -49.4133  -26.0140    7.5471 C.2       1 UNK         0.5000 
     81 O         -48.8495  -26.2129    8.6253 O.2       1 UNK        -0.5238 
     82 H82       -45.6390  -27.9755    5.3250 H         1 UNK         0.0889 
     83 H83       -46.5635  -28.3921    3.8797 H         1 UNK         0.0889 
     84 H84       -46.7384  -29.3558    5.3489 H         1 UNK         0.0889 
     85 H85       -48.6977  -28.9292    6.3364 H         1 UNK         0.3028 
     86 H86       -50.4310  -26.8259    5.8470 H         1 UNK         0.0864 
     87 H87       -50.1815  -28.7662    8.1953 H         1 UNK         0.0720 
     88 H88       -51.4467  -27.5901    8.1678 H         1 UNK         0.0720 
     89 H89       -53.8104  -28.7102    5.2876 H         1 UNK         0.0814 
     90 H90       -52.7695  -27.3198    5.3914 H         1 UNK         0.0814 
     91 H91       -53.0072  -25.7406    7.2331 H         1 UNK         0.1469 
     92 H92       -56.0132  -26.3908   10.1965 H         1 UNK         0.1381 
     93 H93       -55.1206  -29.4667    7.3277 H         1 UNK         0.1206 
     94 H94       -57.5495  -29.1327    8.7366 H         1 UNK         0.0813 
     95 H95       -56.2431  -29.9804    9.5262 H         1 UNK         0.0813 
     96 H96       -58.6743  -30.1792   12.1883 H         1 UNK         0.0638 
     97 H97       -57.5158  -30.9448   11.1407 H         1 UNK         0.0638 
     98 H98       -56.9441  -29.6018   13.8317 H         1 UNK         0.0568 
     99 H99       -58.2884  -33.0767   14.3778 H         1 UNK         0.3450 
    100 H100      -58.9155  -31.7392   13.4511 H         1 UNK         0.3450 
    101 H101      -54.8382  -29.3635   13.3396 H         1 UNK         0.2987 
    102 H102      -52.4218  -31.1878   11.5758 H         1 UNK         0.0766 
    103 H103      -53.1946  -29.7569    9.6904 H         1 UNK         0.0798 
    104 H104      -51.8321  -29.0049   10.4964 H         1 UNK         0.0798 
    105 H105      -53.4645  -28.4101   10.7859 H         1 UNK         0.0798 
    106 H106      -52.3504  -28.6940   13.0021 H         1 UNK         0.3198 
    107 H107      -52.4756  -29.7442   16.2064 H         1 UNK         0.0843 
    108 H108      -49.6612  -29.5776   14.9940 H         1 UNK         0.0831 
    109 H109      -50.2686  -30.8986   15.9818 H         1 UNK         0.0831 
    110 H110      -50.0830  -29.2994   16.6812 H         1 UNK         0.0831 
    111 H111      -51.0504  -27.5823   14.8594 H         1 UNK         0.3133 
    112 H112      -52.9183  -25.6769   13.8538 H         1 UNK         0.0566 
    113 H113      -53.9710  -23.9348   15.3098 H         1 UNK         0.0814 
    114 H114      -55.0270  -25.3137   15.0572 H         1 UNK         0.0814 
    115 H115      -54.1803  -25.1329   16.5864 H         1 UNK         0.0814 
    116 H116      -51.0335  -24.8389   14.6880 H         1 UNK         0.3091 
    117 H117      -49.7003  -24.2742   17.8893 H         1 UNK         0.0702 
    118 H118      -48.8256  -26.5609   17.3266 H         1 UNK         0.0785 
    119 H119      -47.6639  -25.3048   16.9305 H         1 UNK         0.0785 
    120 H120      -48.6073  -26.0693   15.6527 H         1 UNK         0.0785 
    121 H121      -48.6275  -23.5657   15.3931 H         1 UNK         0.2998 
    122 H122      -50.5423  -20.7069   14.6742 H         1 UNK         0.0697 
    123 H123      -47.7721  -20.7177   15.9831 H         1 UNK         0.0825 
    124 H124      -49.1638  -19.7854   16.5069 H         1 UNK         0.0825 
    125 H125      -48.4194  -19.4401   14.9545 H         1 UNK         0.0825 
    126 H126      -49.6914  -21.6755   12.8996 H         1 UNK         0.3029 
    127 H127      -47.9752  -22.1039   11.3737 H         1 UNK         0.0897 
    128 H128      -46.0310  -23.5696   10.7831 H         1 UNK         0.0792 
    129 H129      -45.8202  -23.9832   12.4808 H         1 UNK         0.0792 
    130 H130      -45.5892  -22.3268   11.9434 H         1 UNK         0.0792 
    131 H131      -48.0111  -24.9879   11.7967 H         1 UNK         0.3086 
    132 H132      -51.0961  -25.4990   12.4186 H         1 UNK         0.0583 
    133 H133      -51.3820  -24.8880    9.4685 H         1 UNK         0.1020 
    134 H134      -51.9156  -26.4339   10.0700 H         1 UNK         0.1020 
    135 H135      -55.1430  -24.0510    9.5797 H         1 UNK         0.0694 
    136 H136      -53.6406  -23.9372    8.6969 H         1 UNK         0.0694 
    137 H137      -49.2554  -26.6562   10.3940 H         1 UNK         0.2989 
    138 H138      -47.6863  -28.5901   12.8608 H         1 UNK         0.1055 
    139 H139      -49.6650  -29.8410   10.8809 H         1 UNK         0.0806 
    140 H140      -49.7136  -30.0622   12.6243 H         1 UNK         0.0806 
    141 H141      -48.3484  -30.6653   11.7109 H         1 UNK         0.0806 
    142 H142      -47.4725  -28.9687   10.1035 H         1 UNK         0.3061 
    143 H143      -44.6334  -27.2176    9.8948 H         1 UNK         0.0734 
    144 H144      -45.0137  -28.5244    7.8110 H         1 UNK         0.0832 
    145 H145      -45.5227  -29.4456    9.2091 H         1 UNK         0.0832 
    146 H146      -46.7276  -28.6707    8.1770 H         1 UNK         0.0832 
    147 H147      -46.9010  -25.8765    8.5484 H         1 UNK         0.3156 
    148 H148      -45.0812  -23.2478    7.6171 H         1 UNK         0.0589 
    149 H149      -45.1257  -25.2469    5.2947 H         1 UNK         0.0808 
    150 H150      -45.1626  -23.4928    5.1221 H         1 UNK         0.0808 
    151 H151      -43.7541  -24.2789    5.8130 H         1 UNK         0.0808 
    152 H152      -47.3278  -24.7530    6.3802 H         1 UNK         0.3098 
    153 H153      -49.6598  -23.4934    8.6570 H         1 UNK         0.0720 
    154 H154      -49.5758  -21.4041    7.2985 H         1 UNK         0.0791 
    155 H155      -50.9211  -22.4209    6.8143 H         1 UNK         0.0791 
    156 H156      -49.4630  -22.3510    5.8215 H         1 UNK         0.0791 
    157 H157      -50.0636  -24.7270    6.1224 H         1 UNK         0.3028 
@<TRIPOS>BOND
     1    1    2 1    
     2    1   82 1    
     3    1   83 1    
     4    1   84 1    
     5    2    3 2    
     6    2    4 am   BACKBONE|DICT|INTERRES
     7    4    5 1    
     8    4   85 1    
     9    5    6 1    
    10    5   80 1    
    11    5   86 1    
    12    6    7 1    
    13    6   87 1    
    14    6   88 1    
    15    7    8 1    
    16    8    9 1    
    17    8   89 1    
    18    8   90 1    
    19    9   10 ar   
    20    9   14 ar   
    21   10   11 ar   
    22   10   91 1    
    23   11   12 ar   
    24   11   58 1    
    25   12   13 ar   
    26   12   92 1    
    27   13   14 ar   
    28   13   15 1    
    29   14   93 1    
    30   15   16 1    
    31   15   94 1    
    32   15   95 1    
    33   16   17 1    
    34   17   18 1    
    35   17   96 1    
    36   17   97 1    
    37   18   19 1    
    38   18   22 1    
    39   18   98 1    
    40   19   20 am   BACKBONE|DICT|INTERRES
    41   19   21 2    
    42   20   99 1    
    43   20  100 1    
    44   22   23 am   BACKBONE|DICT|INTERRES
    45   22  101 1    
    46   23   24 2    
    47   23   25 1    
    48   25   26 1    
    49   25   27 1    
    50   25  102 1    
    51   26  103 1    
    52   26  104 1    
    53   26  105 1    
    54   27   28 am   BACKBONE|DICT|INTERRES
    55   27  106 1    
    56   28   29 2    
    57   28   30 1    
    58   30   31 1    
    59   30   32 1    
    60   30  107 1    
    61   31  108 1    
    62   31  109 1    
    63   31  110 1    
    64   32   33 am   BACKBONE|DICT|INTERRES
    65   32  111 1    
    66   33   34 2    
    67   33   35 1    
    68   35   36 1    
    69   35   37 1    
    70   35  112 1    
    71   36  113 1    
    72   36  114 1    
    73   36  115 1    
    74   37   38 am   BACKBONE|DICT|INTERRES
    75   37  116 1    
    76   38   39 2    
    77   38   40 1    
    78   40   41 1    
    79   40   42 1    
    80   40  117 1    
    81   41  118 1    
    82   41  119 1    
    83   41  120 1    
    84   42   43 am   BACKBONE|DICT|INTERRES
    85   42  121 1    
    86   43   44 2    
    87   43   45 1    
    88   45   46 1    
    89   45   47 1    
    90   45  122 1    
    91   46  123 1    
    92   46  124 1    
    93   46  125 1    
    94   47   48 am   BACKBONE|DICT|INTERRES
    95   47  126 1    
    96   48   49 2    
    97   48   50 1    
    98   50   51 1    
    99   50   52 1    
   100   50  127 1    
   101   51  128 1    
   102   51  129 1    
   103   51  130 1    
   104   52   53 am   BACKBONE|DICT|INTERRES
   105   52  131 1    
   106   53   54 2    
   107   53   55 1    
   108   55   56 1    
   109   55   59 1    
   110   55  132 1    
   111   56   57 1    
   112   56  133 1    
   113   56  134 1    
   114   57   58 1    
   115   58  135 1    
   116   58  136 1    
   117   59   60 am   BACKBONE|DICT|INTERRES
   118   59  137 1    
   119   60   61 2    
   120   60   62 1    
   121   62   63 1    
   122   62   64 1    
   123   62  138 1    
   124   63  139 1    
   125   63  140 1    
   126   63  141 1    
   127   64   65 am   BACKBONE|DICT|INTERRES
   128   64  142 1    
   129   65   66 2    
   130   65   67 1    
   131   67   68 1    
   132   67   69 1    
   133   67  143 1    
   134   68  144 1    
   135   68  145 1    
   136   68  146 1    
   137   69   70 am   BACKBONE|DICT|INTERRES
   138   69  147 1    
   139   70   71 2    
   140   70   72 1    
   141   72   73 1    
   142   72   74 1    
   143   72  148 1    
   144   73  149 1    
   145   73  150 1    
   146   73  151 1    
   147   74   75 am   BACKBONE|DICT|INTERRES
   148   74  152 1    
   149   75   76 2    
   150   75   77 1    
   151   77   78 1    
   152   77   79 1    
   153   77  153 1    
   154   78  154 1    
   155   78  155 1    
   156   78  156 1    
   157   79   80 am   BACKBONE|DICT|INTERRES
   158   79  157 1    
   159   80   81 2    
@<TRIPOS>SUBSTRUCTURE
     1 UNK         1 GROUP             0       ****    0 ROOT    
