@<TRIPOS>MOLECULE
3R207
157   159    1
SMALL
USER_CHARGES


@<TRIPOS>ATOM
      1 CA        -48.7270  -30.7308    8.4409 C.3       0 UNK        -0.1975 
      2 C         -48.9427  -30.2154    7.0279 C.2       0 UNK         0.4852 
      3 O         -48.1265  -30.4891    6.1474 O.2       0 UNK        -0.5216 
      4 N         -50.0415  -29.4825    6.8029 N.am      1 UNK        -0.4461 
      5 CA        -50.4467  -28.9843    5.4816 C.3       1 UNK         0.0864 
      6 C6        -51.9540  -28.6361    5.4233 C.3       14 UNK        -0.0898 
      7 S7        -52.9926  -30.0594    5.9066 S.3       14 UNK        -0.2598 
      8 C8        -54.1259  -29.3326    7.1336 C.3       14 UNK         0.0286 
      9 C9        -53.4104  -28.7150    8.3289 C.ar      14 UNK        -0.0844 
     10 C10       -53.5001  -27.3407    8.5585 C.ar      14 UNK        -0.0881 
     11 C11       -52.8976  -26.7652    9.6790 C.ar      14 UNK        -0.0643 
     12 C12       -52.2042  -27.5779   10.5840 C.ar      14 UNK        -0.0930 
     13 C13       -52.1059  -28.9576   10.3662 C.ar      14 UNK        -0.0827 
     14 C14       -52.6967  -29.5144    9.2256 C.ar      14 UNK        -0.1249 
     15 C15       -51.3553  -29.8438   11.3559 C.3       14 UNK         0.0141 
     16 S16       -52.4333  -30.5245   12.6610 S.3       14 UNK        -0.2313 
     17 C17       -53.4400  -31.7447   11.7287 C.3       14 UNK        -0.0915 
     18 CA        -54.9458  -31.3730   11.5531 C.3       13 UNK         0.0968 
     19 C         -55.8241  -32.0110   12.6640 C.2       13 UNK         0.5732 
     20 N         -56.4193  -33.1661   12.3978 N.am      13 UNK        -0.7310 
     21 O         -55.9310  -31.4981   13.7750 O.2       13 UNK        -0.5035 
     22 N         -55.1303  -29.9228   11.4516 N.am      13 UNK        -0.4233 
     23 C         -56.2562  -29.2642   11.1625 C.2       13 UNK         0.4989 
     24 O         -57.2927  -29.7999   10.7653 O.2       13 UNK        -0.4996 
     25 CA        -56.1874  -27.7412   11.3972 C.3       12 UNK         0.0216 
     26 CB        -57.5282  -27.0173   11.1500 C.3       12 UNK        -0.1964 
     27 N         -55.6400  -27.4358   12.7301 N.am      12 UNK        -0.4276 
     28 C         -56.1674  -27.7847   13.9158 C.2       12 UNK         0.5020 
     29 O         -57.2905  -28.2706   14.0557 O.2       12 UNK        -0.5489 
     30 CA        -55.2926  -27.5908   15.1675 C.3       11 UNK         0.0294 
     31 CB        -54.8165  -28.9507   15.7050 C.3       11 UNK        -0.2019 
     32 N         -54.1167  -26.7432   14.9567 N.am      11 UNK        -0.4493 
     33 C         -54.1242  -25.4058   15.0230 C.2       11 UNK         0.4932 
     34 O         -55.1575  -24.7441   15.1291 O.2       11 UNK        -0.5029 
     35 CA        -52.7630  -24.6783   14.9569 C.3       10 UNK         0.0280 
     36 CB        -52.7175  -23.4770   15.9266 C.3       10 UNK        -0.1976 
     37 N         -51.5806  -25.5390   15.1441 N.am      10 UNK        -0.4242 
     38 C         -51.2544  -26.2521   16.2344 C.2       10 UNK         0.5072 
     39 O         -51.9237  -26.2895   17.2668 O.2       10 UNK        -0.5224 
     40 CA        -49.9788  -27.0972   16.1402 C.3       9 UNK         0.0343 
     41 CB        -50.2219  -28.3447   15.2710 C.3       9 UNK        -0.2003 
     42 N         -48.8509  -26.3350   15.6007 N.am      9 UNK        -0.4272 
     43 C         -47.9668  -25.6630   16.3503 C.2       9 UNK         0.4988 
     44 O         -48.0525  -25.5466   17.5737 O.2       9 UNK        -0.5108 
     45 CA        -46.7515  -25.0626   15.6232 C.3       8 UNK         0.0248 
     46 CB        -45.8684  -26.1691   15.0210 C.3       8 UNK        -0.2001 
     47 N         -47.1096  -24.0967   14.5839 N.am      8 UNK        -0.4140 
     48 C         -47.5810  -22.8638   14.8212 C.2       8 UNK         0.5028 
     49 O         -47.7871  -22.4104   15.9476 O.2       8 UNK        -0.5428 
     50 CA        -47.8608  -21.9782   13.5937 C.3       7 UNK         0.0264 
     51 CB        -46.5632  -21.3496   13.0602 C.3       7 UNK        -0.1988 
     52 N         -48.5302  -22.7156   12.5217 N.am      7 UNK        -0.4454 
     53 C         -49.8004  -23.1354   12.5861 C.2       7 UNK         0.5027 
     54 O         -50.5639  -22.8277   13.4980 O.2       7 UNK        -0.5083 
     55 CA        -50.3069  -24.0810   11.4791 C.3       6 UNK         0.0844 
     56 C56       -51.0361  -23.2985   10.3622 C.3       14 UNK        -0.0967 
     57 S57       -51.6807  -24.3796    9.0427 S.3       14 UNK        -0.2604 
     58 C58       -53.0178  -25.2661    9.9030 C.3       14 UNK         0.0134 
     59 N         -49.2527  -24.9643   10.9756 N.am      6 UNK        -0.4116 
     60 C         -48.6990  -25.9512   11.6918 C.2       5 UNK         0.5034 
     61 O         -49.0645  -26.2611   12.8253 O.2       5 UNK        -0.5045 
     62 CA        -47.5096  -26.6852   11.0603 C.3       5 UNK         0.0224 
     63 CB        -47.9898  -27.8513   10.1865 C.3       5 UNK        -0.1978 
     64 N         -46.6733  -25.7780   10.2726 N.am      5 UNK        -0.4737 
     65 C         -45.8592  -24.8600   10.8125 C.2       4 UNK         0.5027 
     66 O         -45.7023  -24.7213   12.0250 O.2       4 UNK        -0.5211 
     67 CA        -45.1405  -23.9067    9.8419 C.3       4 UNK         0.0297 
     68 CB        -43.8465  -24.5474    9.3167 C.3       4 UNK        -0.1993 
     69 N         -45.9833  -23.5029    8.7128 N.am      4 UNK        -0.4486 
     70 C         -47.1081  -22.7826    8.8275 C.2       3 UNK         0.4961 
     71 O         -47.5197  -22.3282    9.8931 O.2       3 UNK        -0.5105 
     72 CA        -47.9442  -22.5688    7.5539 C.3       3 UNK         0.0299 
     73 CB        -47.5423  -21.2554    6.8651 C.3       3 UNK        -0.1972 
     74 N         -47.8771  -23.6708    6.5870 N.am      3 UNK        -0.4305 
     75 C         -48.2038  -24.9452    6.8411 C.2       2 UNK         0.5006 
     76 O         -48.5236  -25.3700    7.9545 O.2       2 UNK        -0.5106 
     77 CA        -48.1036  -25.9159    5.6629 C.3       2 UNK         0.0296 
     78 CB        -46.6537  -26.3973    5.4733 C.3       2 UNK        -0.2002 
     79 N         -48.9691  -27.0607    5.9239 N.am      2 UNK        -0.4032 
     80 C         -49.5858  -27.7998    4.9936 C.2       1 UNK         0.5000 
     81 O         -49.4914  -27.5869    3.7827 O.2       1 UNK        -0.5238 
     82 H82       -48.9494  -31.7963    8.4895 H         1 UNK         0.0889 
     83 H83       -49.3664  -30.2145    9.1530 H         1 UNK         0.0889 
     84 H84       -47.6909  -30.5847    8.7444 H         1 UNK         0.0889 
     85 H85       -50.6989  -29.3098    7.5516 H         1 UNK         0.3028 
     86 H86       -50.2778  -29.7930    4.7666 H         1 UNK         0.0864 
     87 H87       -52.2396  -28.3475    4.4100 H         1 UNK         0.0720 
     88 H88       -52.1728  -27.7744    6.0554 H         1 UNK         0.0720 
     89 H89       -54.7562  -28.5954    6.6338 H         1 UNK         0.0814 
     90 H90       -54.7997  -30.1118    7.4926 H         1 UNK         0.0814 
     91 H91       -54.0452  -26.7130    7.8666 H         1 UNK         0.1469 
     92 H92       -51.7377  -27.1371   11.4541 H         1 UNK         0.1381 
     93 H93       -52.6217  -30.5752    9.0352 H         1 UNK         0.1206 
     94 H94       -50.8667  -30.6688   10.8375 H         1 UNK         0.0813 
     95 H95       -50.5594  -29.2706   11.8330 H         1 UNK         0.0813 
     96 H96       -53.3271  -32.7132   12.2200 H         1 UNK         0.0638 
     97 H97       -52.9911  -31.8963   10.7491 H         1 UNK         0.0638 
     98 H98       -55.2775  -31.7894   10.5999 H         1 UNK         0.0568 
     99 H99       -56.9782  -33.6027   13.1139 H         1 UNK         0.3450 
    100 H100      -56.3282  -33.6063   11.4955 H         1 UNK         0.3450 
    101 H101      -54.3296  -29.3911   11.7588 H         1 UNK         0.2987 
    102 H102      -55.4744  -27.3517   10.6713 H         1 UNK         0.0766 
    103 H103      -57.4366  -25.9448   11.3211 H         1 UNK         0.0798 
    104 H104      -58.3225  -27.3936   11.7949 H         1 UNK         0.0798 
    105 H105      -57.8576  -27.1547   10.1194 H         1 UNK         0.0798 
    106 H106      -54.7203  -27.0202   12.7462 H         1 UNK         0.3198 
    107 H107      -55.9236  -27.1314   15.9320 H         1 UNK         0.0843 
    108 H108      -54.1885  -29.4742   14.9834 H         1 UNK         0.0831 
    109 H109      -55.6642  -29.6017   15.9240 H         1 UNK         0.0831 
    110 H110      -54.2489  -28.8385   16.6290 H         1 UNK         0.0831 
    111 H111      -53.2259  -27.2108   14.8811 H         1 UNK         0.3133 
    112 H112      -52.6936  -24.2883   13.9415 H         1 UNK         0.0566 
    113 H113      -51.7514  -22.9735   15.8938 H         1 UNK         0.0814 
    114 H114      -53.4745  -22.7356   15.6686 H         1 UNK         0.0814 
    115 H115      -52.8995  -23.7814   16.9577 H         1 UNK         0.0814 
    116 H116      -50.9409  -25.5779   14.3618 H         1 UNK         0.3091 
    117 H117      -49.7331  -27.4428   17.1470 H         1 UNK         0.0702 
    118 H118      -51.0423  -28.9446   15.6678 H         1 UNK         0.0785 
    119 H119      -50.4752  -28.0881   14.2419 H         1 UNK         0.0785 
    120 H120      -49.3394  -28.9840   15.2445 H         1 UNK         0.0785 
    121 H121      -48.7410  -26.3428   14.5880 H         1 UNK         0.2998 
    122 H122      -46.1516  -24.5376   16.3699 H         1 UNK         0.0697 
    123 H123      -46.3802  -26.7122   14.2265 H         1 UNK         0.0825 
    124 H124      -45.5798  -26.8965   15.7810 H         1 UNK         0.0825 
    125 H125      -44.9500  -25.7571   14.6023 H         1 UNK         0.0825 
    126 H126      -46.9005  -24.3599   13.6260 H         1 UNK         0.3029 
    127 H127      -48.5205  -21.1679   13.9125 H         1 UNK         0.0897 
    128 H128      -46.7637  -20.6771   12.2258 H         1 UNK         0.0792 
    129 H129      -45.8563  -22.1048   12.7164 H         1 UNK         0.0792 
    130 H130      -46.0657  -20.7660   13.8359 H         1 UNK         0.0792 
    131 H131      -47.9960  -22.8943   11.6757 H         1 UNK         0.3086 
    132 H132      -51.0422  -24.7252   11.9621 H         1 UNK         0.0583 
    133 H133      -51.8668  -22.7222   10.7748 H         1 UNK         0.1020 
    134 H134      -50.3626  -22.5717    9.9048 H         1 UNK         0.1020 
    135 H135      -53.0232  -25.0456   10.9701 H         1 UNK         0.0694 
    136 H136      -53.9757  -24.9063    9.5241 H         1 UNK         0.0694 
    137 H137      -48.9426  -24.8174   10.0220 H         1 UNK         0.2989 
    138 H138      -46.9012  -27.0965   11.8684 H         1 UNK         0.1055 
    139 H139      -48.4783  -28.6084   10.7996 H         1 UNK         0.0806 
    140 H140      -47.1553  -28.3343    9.6785 H         1 UNK         0.0806 
    141 H141      -48.7077  -27.5319    9.4306 H         1 UNK         0.0806 
    142 H142      -46.8284  -25.7703    9.2724 H         1 UNK         0.3061 
    143 H143      -44.8747  -23.0064   10.4001 H         1 UNK         0.0734 
    144 H144      -43.2834  -23.8526    8.6933 H         1 UNK         0.0832 
    145 H145      -43.1953  -24.8397   10.1418 H         1 UNK         0.0832 
    146 H146      -44.0467  -25.4432    8.7273 H         1 UNK         0.0832 
    147 H147      -45.7173  -23.8322    7.7965 H         1 UNK         0.3156 
    148 H148      -48.9871  -22.4820    7.8648 H         1 UNK         0.0589 
    149 H149      -46.5181  -21.2909    6.4916 H         1 UNK         0.0808 
    150 H150      -48.1997  -21.0287    6.0255 H         1 UNK         0.0808 
    151 H151      -47.6070  -20.4156    7.5587 H         1 UNK         0.0808 
    152 H152      -47.6060  -23.4231    5.6458 H         1 UNK         0.3098 
    153 H153      -48.4423  -25.3990    4.7624 H         1 UNK         0.0720 
    154 H154      -46.2830  -26.9150    6.3591 H         1 UNK         0.0791 
    155 H155      -45.9813  -25.5619    5.2745 H         1 UNK         0.0791 
    156 H156      -46.5725  -27.0833    4.6298 H         1 UNK         0.0791 
    157 H157      -49.1405  -27.2447    6.9041 H         1 UNK         0.3028 
@<TRIPOS>BOND
     1    1    2 1    
     2    1   82 1    
     3    1   83 1    
     4    1   84 1    
     5    2    3 2    
     6    2    4 am   BACKBONE|DICT|INTERRES
     7    4    5 1    
     8    4   85 1    
     9    5    6 1    
    10    5   80 1    
    11    5   86 1    
    12    6    7 1    
    13    6   87 1    
    14    6   88 1    
    15    7    8 1    
    16    8    9 1    
    17    8   89 1    
    18    8   90 1    
    19    9   10 ar   
    20    9   14 ar   
    21   10   11 ar   
    22   10   91 1    
    23   11   12 ar   
    24   11   58 1    
    25   12   13 ar   
    26   12   92 1    
    27   13   14 ar   
    28   13   15 1    
    29   14   93 1    
    30   15   16 1    
    31   15   94 1    
    32   15   95 1    
    33   16   17 1    
    34   17   18 1    
    35   17   96 1    
    36   17   97 1    
    37   18   19 1    
    38   18   22 1    
    39   18   98 1    
    40   19   20 am   BACKBONE|DICT|INTERRES
    41   19   21 2    
    42   20   99 1    
    43   20  100 1    
    44   22   23 am   BACKBONE|DICT|INTERRES
    45   22  101 1    
    46   23   24 2    
    47   23   25 1    
    48   25   26 1    
    49   25   27 1    
    50   25  102 1    
    51   26  103 1    
    52   26  104 1    
    53   26  105 1    
    54   27   28 am   BACKBONE|DICT|INTERRES
    55   27  106 1    
    56   28   29 2    
    57   28   30 1    
    58   30   31 1    
    59   30   32 1    
    60   30  107 1    
    61   31  108 1    
    62   31  109 1    
    63   31  110 1    
    64   32   33 am   BACKBONE|DICT|INTERRES
    65   32  111 1    
    66   33   34 2    
    67   33   35 1    
    68   35   36 1    
    69   35   37 1    
    70   35  112 1    
    71   36  113 1    
    72   36  114 1    
    73   36  115 1    
    74   37   38 am   BACKBONE|DICT|INTERRES
    75   37  116 1    
    76   38   39 2    
    77   38   40 1    
    78   40   41 1    
    79   40   42 1    
    80   40  117 1    
    81   41  118 1    
    82   41  119 1    
    83   41  120 1    
    84   42   43 am   BACKBONE|DICT|INTERRES
    85   42  121 1    
    86   43   44 2    
    87   43   45 1    
    88   45   46 1    
    89   45   47 1    
    90   45  122 1    
    91   46  123 1    
    92   46  124 1    
    93   46  125 1    
    94   47   48 am   BACKBONE|DICT|INTERRES
    95   47  126 1    
    96   48   49 2    
    97   48   50 1    
    98   50   51 1    
    99   50   52 1    
   100   50  127 1    
   101   51  128 1    
   102   51  129 1    
   103   51  130 1    
   104   52   53 am   BACKBONE|DICT|INTERRES
   105   52  131 1    
   106   53   54 2    
   107   53   55 1    
   108   55   56 1    
   109   55   59 1    
   110   55  132 1    
   111   56   57 1    
   112   56  133 1    
   113   56  134 1    
   114   57   58 1    
   115   58  135 1    
   116   58  136 1    
   117   59   60 am   BACKBONE|DICT|INTERRES
   118   59  137 1    
   119   60   61 2    
   120   60   62 1    
   121   62   63 1    
   122   62   64 1    
   123   62  138 1    
   124   63  139 1    
   125   63  140 1    
   126   63  141 1    
   127   64   65 am   BACKBONE|DICT|INTERRES
   128   64  142 1    
   129   65   66 2    
   130   65   67 1    
   131   67   68 1    
   132   67   69 1    
   133   67  143 1    
   134   68  144 1    
   135   68  145 1    
   136   68  146 1    
   137   69   70 am   BACKBONE|DICT|INTERRES
   138   69  147 1    
   139   70   71 2    
   140   70   72 1    
   141   72   73 1    
   142   72   74 1    
   143   72  148 1    
   144   73  149 1    
   145   73  150 1    
   146   73  151 1    
   147   74   75 am   BACKBONE|DICT|INTERRES
   148   74  152 1    
   149   75   76 2    
   150   75   77 1    
   151   77   78 1    
   152   77   79 1    
   153   77  153 1    
   154   78  154 1    
   155   78  155 1    
   156   78  156 1    
   157   79   80 am   BACKBONE|DICT|INTERRES
   158   79  157 1    
   159   80   81 2    
@<TRIPOS>SUBSTRUCTURE
     1 UNK         1 GROUP             0       ****    0 ROOT    
