@<TRIPOS>MOLECULE
3R207
157   159    1
SMALL
USER_CHARGES


@<TRIPOS>ATOM
      1 CA        -53.3903  -23.6260    2.4898 C.3       0 UNK        -0.1975 
      2 C         -52.9005  -23.7937    3.9208 C.2       0 UNK         0.4852 
      3 O         -52.5331  -22.8063    4.5580 O.2       0 UNK        -0.5216 
      4 N         -52.9020  -25.0348    4.4271 N.am      1 UNK        -0.4461 
      5 CA        -52.4316  -25.4089    5.7659 C.3       1 UNK         0.0864 
      6 C6        -52.9005  -26.8433    6.1229 C.3       14 UNK        -0.0898 
      7 S7        -52.6670  -27.2894    7.8751 S.3       14 UNK        -0.2598 
      8 C8        -51.6209  -28.7725    7.6993 C.3       14 UNK         0.0286 
      9 C9        -51.1290  -29.3359    9.0284 C.ar      14 UNK        -0.0844 
     10 C10       -49.7795  -29.6685    9.1908 C.ar      14 UNK        -0.0881 
     11 C11       -49.3278  -30.2663   10.3722 C.ar      14 UNK        -0.0643 
     12 C12       -50.2338  -30.5084   11.4094 C.ar      14 UNK        -0.0930 
     13 C13       -51.5839  -30.1735   11.2641 C.ar      14 UNK        -0.0827 
     14 C14       -52.0235  -29.5893   10.0723 C.ar      14 UNK        -0.1249 
     15 C15       -52.5666  -30.4225   12.3977 C.3       14 UNK         0.0141 
     16 S16       -53.9372  -31.5154   11.9078 S.3       14 UNK        -0.2313 
     17 C17       -55.1721  -31.0986   13.1862 C.3       14 UNK        -0.0915 
     18 CA        -56.1971  -30.0420   12.6888 C.3       13 UNK         0.0968 
     19 C         -57.3845  -29.8628   13.6793 C.2       13 UNK         0.5732 
     20 N         -57.7799  -28.6491   14.0498 N.am      13 UNK        -0.7310 
     21 O         -57.9836  -30.8481   14.1045 O.2       13 UNK        -0.5035 
     22 N         -55.5345  -28.7715   12.3661 N.am      13 UNK        -0.4233 
     23 C         -55.6584  -28.0947   11.2183 C.2       13 UNK         0.4989 
     24 O         -56.3183  -28.4960   10.2580 O.2       13 UNK        -0.4996 
     25 CA        -54.9144  -26.7444   11.1163 C.3       12 UNK         0.0216 
     26 CB        -55.6272  -25.7463   10.1808 C.3       12 UNK        -0.1964 
     27 N         -54.6165  -26.1094   12.4070 N.am      12 UNK        -0.4276 
     28 C         -55.4763  -25.7815   13.3806 C.2       12 UNK         0.5020 
     29 O         -56.6919  -25.9800   13.3157 O.2       12 UNK        -0.5489 
     30 CA        -54.8556  -25.1903   14.6635 C.3       11 UNK         0.0294 
     31 CB        -55.8880  -25.0416   15.8002 C.3       11 UNK        -0.2019 
     32 N         -53.6809  -25.9241   15.1604 N.am      11 UNK        -0.4493 
     33 C         -53.5675  -27.2434   15.3885 C.2       11 UNK         0.4932 
     34 O         -54.4320  -28.0658   15.0823 O.2       11 UNK        -0.5029 
     35 CA        -52.2821  -27.7365   16.0835 C.3       10 UNK         0.0280 
     36 CB        -51.7809  -29.0707   15.5093 C.3       10 UNK        -0.1976 
     37 N         -51.1898  -26.7644   16.0180 N.am      10 UNK        -0.4242 
     38 C         -50.8485  -25.9187   16.9983 C.2       10 UNK         0.5072 
     39 O         -51.4222  -25.8545   18.0861 O.2       10 UNK        -0.5224 
     40 CA        -49.6821  -24.9610   16.7036 C.3       9 UNK         0.0343 
     41 CB        -48.3319  -25.6671   16.9064 C.3       9 UNK        -0.2003 
     42 N         -49.7370  -24.3887   15.3564 N.am      9 UNK        -0.4272 
     43 C         -50.7002  -23.5694   14.9092 C.2       9 UNK         0.4988 
     44 O         -51.6658  -23.2089   15.5824 O.2       9 UNK        -0.5108 
     45 CA        -50.5766  -23.0908   13.4553 C.3       8 UNK         0.0248 
     46 CB        -49.6726  -21.8510   13.3648 C.3       8 UNK        -0.2001 
     47 N         -50.0804  -24.1493   12.5709 N.am      8 UNK        -0.4140 
     48 C         -50.8400  -25.1846   12.1830 C.2       8 UNK         0.5028 
     49 O         -52.0138  -25.3260   12.5218 O.2       8 UNK        -0.5428 
     50 CA        -50.1969  -26.2575   11.2945 C.3       7 UNK         0.0264 
     51 CB        -50.1414  -25.7860    9.8372 C.3       7 UNK        -0.1988 
     52 N         -48.8685  -26.6860   11.7327 N.am      7 UNK        -0.4454 
     53 C         -48.6086  -27.2481   12.9226 C.2       7 UNK         0.5027 
     54 O         -49.4466  -27.3664   13.8173 O.2       7 UNK        -0.5083 
     55 CA        -47.1733  -27.7286   13.1908 C.3       6 UNK         0.0844 
     56 C56       -46.9206  -29.1734   12.6884 C.3       14 UNK        -0.0967 
     57 S57       -46.7399  -29.3470   10.8795 S.3       14 UNK        -0.2604 
     58 C58       -47.8768  -30.7138   10.4931 C.3       14 UNK         0.0134 
     59 N         -46.2033  -26.7533   12.6871 N.am      6 UNK        -0.4116 
     60 C         -45.5145  -25.9056   13.4640 C.2       5 UNK         0.5034 
     61 O         -45.5343  -25.9267   14.6953 O.2       5 UNK        -0.5045 
     62 CA        -44.6654  -24.8297   12.7621 C.3       5 UNK         0.0224 
     63 CB        -43.2381  -25.3472   12.5215 C.3       5 UNK        -0.1978 
     64 N         -45.2209  -24.3419   11.4962 N.am      5 UNK        -0.4737 
     65 C         -46.4327  -23.7914   11.3353 C.2       4 UNK         0.5027 
     66 O         -47.2469  -23.6383   12.2442 O.2       4 UNK        -0.5211 
     67 CA        -46.8252  -23.3821    9.9053 C.3       4 UNK         0.0297 
     68 CB        -46.3720  -21.9403    9.6269 C.3       4 UNK        -0.1993 
     69 N         -46.3253  -24.2646    8.8409 N.am      4 UNK        -0.4486 
     70 C         -46.4086  -25.6037    8.8009 C.2       3 UNK         0.4961 
     71 O         -46.8761  -26.2918    9.7093 O.2       3 UNK        -0.5105 
     72 CA        -45.8681  -26.2571    7.5175 C.3       3 UNK         0.0299 
     73 CB        -45.6141  -27.7732    7.6656 C.3       3 UNK        -0.1972 
     74 N         -46.7303  -25.9476    6.3687 N.am      3 UNK        -0.4305 
     75 C         -47.9816  -26.3790    6.1462 C.2       2 UNK         0.5006 
     76 O         -48.5603  -27.2272    6.8253 O.2       2 UNK        -0.5106 
     77 CA        -48.6820  -25.7854    4.9085 C.3       2 UNK         0.0296 
     78 CB        -48.2265  -26.5139    3.6326 C.3       2 UNK        -0.2002 
     79 N         -50.1453  -25.8466    4.9863 N.am      2 UNK        -0.4032 
     80 C         -50.9034  -25.2111    5.8934 C.2       1 UNK         0.5000 
     81 O         -50.4543  -24.4504    6.7533 O.2       1 UNK        -0.5238 
     82 H82       -53.6924  -24.5748    2.0468 H         1 UNK         0.0889 
     83 H83       -52.6011  -23.1994    1.8712 H         1 UNK         0.0889 
     84 H84       -54.2462  -22.9521    2.4629 H         1 UNK         0.0889 
     85 H85       -53.2306  -25.7955    3.8493 H         1 UNK         0.3028 
     86 H86       -52.9029  -24.7229    6.4737 H         1 UNK         0.0864 
     87 H87       -53.9693  -26.9357    5.9228 H         1 UNK         0.0720 
     88 H88       -52.4182  -27.5805    5.4787 H         1 UNK         0.0720 
     89 H89       -50.7758  -28.5289    7.0554 H         1 UNK         0.0814 
     90 H90       -52.1890  -29.5472    7.1829 H         1 UNK         0.0814 
     91 H91       -49.0790  -29.4840    8.3870 H         1 UNK         0.1469 
     92 H92       -49.8899  -30.9714   12.3238 H         1 UNK         0.1381 
     93 H93       -53.0698  -29.3447    9.9520 H         1 UNK         0.1206 
     94 H94       -52.9550  -29.4596   12.7283 H         1 UNK         0.0813 
     95 H95       -52.0652  -30.8740   13.2541 H         1 UNK         0.0813 
     96 H96       -54.6693  -30.7560   14.0925 H         1 UNK         0.0638 
     97 H97       -55.6782  -32.0279   13.4530 H         1 UNK         0.0638 
     98 H98       -56.6560  -30.4464   11.7853 H         1 UNK         0.0568 
     99 H99       -57.3169  -27.8133   13.7060 H         1 UNK         0.3450 
    100 H100      -58.5560  -28.5620   14.6853 H         1 UNK         0.3450 
    101 H101      -55.0331  -28.3471   13.1391 H         1 UNK         0.2987 
    102 H102      -53.9444  -26.9746   10.6735 H         1 UNK         0.0766 
    103 H103      -56.6291  -25.5055   10.5377 H         1 UNK         0.0798 
    104 H104      -55.0665  -24.8155   10.0955 H         1 UNK         0.0798 
    105 H105      -55.7258  -26.1535    9.1736 H         1 UNK         0.0798 
    106 H106      -53.6290  -25.8807   12.5561 H         1 UNK         0.3198 
    107 H107      -54.5041  -24.1918   14.3984 H         1 UNK         0.0843 
    108 H108      -56.2922  -26.0083   16.1035 H         1 UNK         0.0831 
    109 H109      -56.7281  -24.4193   15.4893 H         1 UNK         0.0831 
    110 H110      -55.4463  -24.5715   16.6789 H         1 UNK         0.0831 
    111 H111      -52.8872  -25.3458   15.4027 H         1 UNK         0.3133 
    112 H112      -52.5535  -27.9166   17.1254 H         1 UNK         0.0566 
    113 H113      -52.5606  -29.8332   15.5219 H         1 UNK         0.0814 
    114 H114      -51.4396  -28.9515   14.4825 H         1 UNK         0.0814 
    115 H115      -50.9438  -29.4579   16.0903 H         1 UNK         0.0814 
    116 H116      -50.6306  -26.7798   15.1664 H         1 UNK         0.3091 
    117 H117      -49.7440  -24.1353   17.4157 H         1 UNK         0.0702 
    118 H118      -47.4979  -24.9779   16.7715 H         1 UNK         0.0785 
    119 H119      -48.1967  -26.4936   16.2079 H         1 UNK         0.0785 
    120 H120      -48.2534  -26.0765   17.9144 H         1 UNK         0.0785 
    121 H121      -48.9946  -24.6438   14.7214 H         1 UNK         0.2998 
    122 H122      -51.5727  -22.8000   13.1137 H         1 UNK         0.0697 
    123 H123      -48.6767  -22.0427   13.7653 H         1 UNK         0.0825 
    124 H124      -50.0949  -21.0221   13.9343 H         1 UNK         0.0825 
    125 H125      -49.5605  -21.5138   12.3342 H         1 UNK         0.0825 
    126 H126      -49.1015  -24.1017   12.2977 H         1 UNK         0.3029 
    127 H127      -50.8436  -27.1368   11.3336 H         1 UNK         0.0897 
    128 H128      -49.4429  -24.9656    9.6974 H         1 UNK         0.0792 
    129 H129      -51.1173  -25.4354    9.5010 H         1 UNK         0.0792 
    130 H130      -49.8381  -26.5939    9.1714 H         1 UNK         0.0792 
    131 H131      -48.1293  -26.6371   11.0336 H         1 UNK         0.3086 
    132 H132      -47.0906  -27.7833   14.2782 H         1 UNK         0.0583 
    133 H133      -45.9993  -29.5459   13.1386 H         1 UNK         0.1020 
    134 H134      -47.7050  -29.8398   13.0514 H         1 UNK         0.1020 
    135 H135      -47.5651  -31.1589    9.5471 H         1 UNK         0.0694 
    136 H136      -47.7727  -31.5018   11.2405 H         1 UNK         0.0694 
    137 H137      -46.1526  -26.6520   11.6793 H         1 UNK         0.2989 
    138 H138      -44.6116  -23.9752   13.4403 H         1 UNK         0.1055 
    139 H139      -42.7874  -25.6967   13.4517 H         1 UNK         0.0806 
    140 H140      -42.5915  -24.5633   12.1265 H         1 UNK         0.0806 
    141 H141      -43.2241  -26.1820   11.8193 H         1 UNK         0.0806 
    142 H142      -44.6381  -24.4389   10.6775 H         1 UNK         0.3061 
    143 H143      -47.9133  -23.3955    9.8536 H         1 UNK         0.0734 
    144 H144      -45.2849  -21.8527    9.6144 H         1 UNK         0.0832 
    145 H145      -46.7506  -21.5811    8.6698 H         1 UNK         0.0832 
    146 H146      -46.7445  -21.2595   10.3941 H         1 UNK         0.0832 
    147 H147      -45.9216  -23.7986    8.0412 H         1 UNK         0.3156 
    148 H148      -44.9023  -25.7938    7.3099 H         1 UNK         0.0589 
    149 H149      -46.5185  -28.3201    7.9332 H         1 UNK         0.0808 
    150 H150      -45.2215  -28.2034    6.7446 H         1 UNK         0.0808 
    151 H151      -44.8850  -27.9659    8.4535 H         1 UNK         0.0808 
    152 H152      -46.3514  -25.2708    5.7207 H         1 UNK         0.3098 
    153 H153      -48.4029  -24.7325    4.8308 H         1 UNK         0.0720 
    154 H154      -48.6721  -26.0720    2.7410 H         1 UNK         0.0791 
    155 H155      -48.4964  -27.5707    3.6555 H         1 UNK         0.0791 
    156 H156      -47.1440  -26.4584    3.5107 H         1 UNK         0.0791 
    157 H157      -50.6036  -26.4464    4.3175 H         1 UNK         0.3028 
@<TRIPOS>BOND
     1    1    2 1    
     2    1   82 1    
     3    1   83 1    
     4    1   84 1    
     5    2    3 2    
     6    2    4 am   BACKBONE|DICT|INTERRES
     7    4    5 1    
     8    4   85 1    
     9    5    6 1    
    10    5   80 1    
    11    5   86 1    
    12    6    7 1    
    13    6   87 1    
    14    6   88 1    
    15    7    8 1    
    16    8    9 1    
    17    8   89 1    
    18    8   90 1    
    19    9   10 ar   
    20    9   14 ar   
    21   10   11 ar   
    22   10   91 1    
    23   11   12 ar   
    24   11   58 1    
    25   12   13 ar   
    26   12   92 1    
    27   13   14 ar   
    28   13   15 1    
    29   14   93 1    
    30   15   16 1    
    31   15   94 1    
    32   15   95 1    
    33   16   17 1    
    34   17   18 1    
    35   17   96 1    
    36   17   97 1    
    37   18   19 1    
    38   18   22 1    
    39   18   98 1    
    40   19   20 am   BACKBONE|DICT|INTERRES
    41   19   21 2    
    42   20   99 1    
    43   20  100 1    
    44   22   23 am   BACKBONE|DICT|INTERRES
    45   22  101 1    
    46   23   24 2    
    47   23   25 1    
    48   25   26 1    
    49   25   27 1    
    50   25  102 1    
    51   26  103 1    
    52   26  104 1    
    53   26  105 1    
    54   27   28 am   BACKBONE|DICT|INTERRES
    55   27  106 1    
    56   28   29 2    
    57   28   30 1    
    58   30   31 1    
    59   30   32 1    
    60   30  107 1    
    61   31  108 1    
    62   31  109 1    
    63   31  110 1    
    64   32   33 am   BACKBONE|DICT|INTERRES
    65   32  111 1    
    66   33   34 2    
    67   33   35 1    
    68   35   36 1    
    69   35   37 1    
    70   35  112 1    
    71   36  113 1    
    72   36  114 1    
    73   36  115 1    
    74   37   38 am   BACKBONE|DICT|INTERRES
    75   37  116 1    
    76   38   39 2    
    77   38   40 1    
    78   40   41 1    
    79   40   42 1    
    80   40  117 1    
    81   41  118 1    
    82   41  119 1    
    83   41  120 1    
    84   42   43 am   BACKBONE|DICT|INTERRES
    85   42  121 1    
    86   43   44 2    
    87   43   45 1    
    88   45   46 1    
    89   45   47 1    
    90   45  122 1    
    91   46  123 1    
    92   46  124 1    
    93   46  125 1    
    94   47   48 am   BACKBONE|DICT|INTERRES
    95   47  126 1    
    96   48   49 2    
    97   48   50 1    
    98   50   51 1    
    99   50   52 1    
   100   50  127 1    
   101   51  128 1    
   102   51  129 1    
   103   51  130 1    
   104   52   53 am   BACKBONE|DICT|INTERRES
   105   52  131 1    
   106   53   54 2    
   107   53   55 1    
   108   55   56 1    
   109   55   59 1    
   110   55  132 1    
   111   56   57 1    
   112   56  133 1    
   113   56  134 1    
   114   57   58 1    
   115   58  135 1    
   116   58  136 1    
   117   59   60 am   BACKBONE|DICT|INTERRES
   118   59  137 1    
   119   60   61 2    
   120   60   62 1    
   121   62   63 1    
   122   62   64 1    
   123   62  138 1    
   124   63  139 1    
   125   63  140 1    
   126   63  141 1    
   127   64   65 am   BACKBONE|DICT|INTERRES
   128   64  142 1    
   129   65   66 2    
   130   65   67 1    
   131   67   68 1    
   132   67   69 1    
   133   67  143 1    
   134   68  144 1    
   135   68  145 1    
   136   68  146 1    
   137   69   70 am   BACKBONE|DICT|INTERRES
   138   69  147 1    
   139   70   71 2    
   140   70   72 1    
   141   72   73 1    
   142   72   74 1    
   143   72  148 1    
   144   73  149 1    
   145   73  150 1    
   146   73  151 1    
   147   74   75 am   BACKBONE|DICT|INTERRES
   148   74  152 1    
   149   75   76 2    
   150   75   77 1    
   151   77   78 1    
   152   77   79 1    
   153   77  153 1    
   154   78  154 1    
   155   78  155 1    
   156   78  156 1    
   157   79   80 am   BACKBONE|DICT|INTERRES
   158   79  157 1    
   159   80   81 2    
@<TRIPOS>SUBSTRUCTURE
     1 UNK         1 GROUP             0       ****    0 ROOT    
