@<TRIPOS>MOLECULE
3R207
157   159    1
SMALL
USER_CHARGES


@<TRIPOS>ATOM
      1 CA        -49.2480  -32.6520    2.4216 C.3       0 UNK        -0.1975 
      2 C         -49.5113  -31.1536    2.4018 C.2       0 UNK         0.4852 
      3 O         -49.1341  -30.4796    1.4426 O.2       0 UNK        -0.5216 
      4 N         -50.1590  -30.6314    3.4518 N.am      1 UNK        -0.4461 
      5 CA        -50.4778  -29.2099    3.6382 C.3       1 UNK         0.0864 
      6 C6        -51.5152  -28.9810    4.7706 C.3       14 UNK        -0.0898 
      7 S7        -51.2355  -29.9690    6.2874 S.3       14 UNK        -0.2598 
      8 C8        -50.4607  -28.7771    7.4239 C.3       14 UNK         0.0286 
      9 C9        -51.4076  -27.6602    7.8348 C.ar      14 UNK        -0.0844 
     10 C10       -51.2548  -26.3766    7.3043 C.ar      14 UNK        -0.0881 
     11 C11       -52.1039  -25.3386    7.6980 C.ar      14 UNK        -0.0643 
     12 C12       -53.1205  -25.5944    8.6221 C.ar      14 UNK        -0.0930 
     13 C13       -53.2732  -26.8711    9.1706 C.ar      14 UNK        -0.0827 
     14 C14       -52.4178  -27.9017    8.7693 C.ar      14 UNK        -0.1249 
     15 C15       -54.3595  -27.1320   10.2021 C.3       14 UNK         0.0141 
     16 S16       -53.9274  -26.4492   11.8338 S.3       14 UNK        -0.2313 
     17 C17       -52.5529  -27.5353   12.3473 C.3       14 UNK        -0.0915 
     18 CA        -53.0224  -28.8682   12.9919 C.3       13 UNK         0.0968 
     19 C         -51.8268  -29.7905   13.3692 C.2       13 UNK         0.5732 
     20 N         -51.7878  -30.3928   14.5535 N.am      13 UNK        -0.7310 
     21 O         -50.9228  -29.9883   12.5614 O.2       13 UNK        -0.5035 
     22 N         -53.9481  -28.6462   14.1135 N.am      13 UNK        -0.4233 
     23 C         -55.1119  -29.2866   14.2782 C.2       13 UNK         0.4989 
     24 O         -55.5678  -30.0945   13.4661 O.2       13 UNK        -0.4996 
     25 CA        -55.9062  -28.9725   15.5630 C.3       12 UNK         0.0216 
     26 CB        -56.9393  -30.0666   15.9089 C.3       12 UNK        -0.1964 
     27 N         -55.0665  -28.6771   16.7307 N.am      12 UNK        -0.4276 
     28 C         -54.1327  -29.4657   17.2890 C.2       12 UNK         0.5020 
     29 O         -53.8242  -30.5722   16.8431 O.2       12 UNK        -0.5489 
     30 CA        -53.3962  -28.9201   18.5290 C.3       11 UNK         0.0294 
     31 CB        -51.9166  -29.3475   18.5444 C.3       11 UNK        -0.2019 
     32 N         -53.4610  -27.4594   18.5728 N.am      11 UNK        -0.4493 
     33 C         -54.1830  -26.7271   19.4319 C.2       11 UNK         0.4932 
     34 O         -54.8257  -27.2049   20.3666 O.2       11 UNK        -0.5029 
     35 CA        -54.2190  -25.2019   19.2004 C.3       10 UNK         0.0280 
     36 CB        -53.2485  -24.4933   20.1589 C.3       10 UNK        -0.1976 
     37 N         -53.9089  -24.8030   17.8228 N.am      10 UNK        -0.4242 
     38 C         -54.6429  -25.1135   16.7435 C.2       10 UNK         0.5072 
     39 O         -55.7158  -25.7149   16.7981 O.2       10 UNK        -0.5224 
     40 CA        -54.0377  -24.7751   15.3686 C.3       9 UNK         0.0343 
     41 CB        -54.5023  -23.3905   14.8941 C.3       9 UNK        -0.2003 
     42 N         -52.5712  -24.8352   15.3367 N.am      9 UNK        -0.4272 
     43 C         -51.8329  -25.9177   15.6234 C.2       9 UNK         0.4988 
     44 O         -52.3367  -26.9985   15.9317 O.2       9 UNK        -0.5108 
     45 CA        -50.2971  -25.7864   15.5761 C.3       8 UNK         0.0248 
     46 CB        -49.6127  -27.1170   15.2106 C.3       8 UNK        -0.2001 
     47 N         -49.8354  -24.7358   14.6635 N.am      8 UNK        -0.4140 
     48 C         -49.7452  -23.4335   14.9752 C.2       8 UNK         0.5028 
     49 O         -50.0482  -22.9836   16.0806 O.2       8 UNK        -0.5428 
     50 CA        -49.2734  -22.4558   13.8822 C.3       7 UNK         0.0264 
     51 CB        -47.8007  -22.0765   14.1038 C.3       7 UNK        -0.1988 
     52 N         -49.4376  -22.9650   12.5192 N.am      7 UNK        -0.4454 
     53 C         -50.6188  -23.1908   11.9195 C.2       7 UNK         0.5027 
     54 O         -51.7028  -22.9258   12.4397 O.2       7 UNK        -0.5083 
     55 CA        -50.5892  -23.8234   10.5088 C.3       6 UNK         0.0844 
     56 C56       -50.7835  -22.7139    9.4365 C.3       14 UNK        -0.0967 
     57 S57       -50.3600  -23.1915    7.7222 S.3       14 UNK        -0.2604 
     58 C58       -51.9086  -23.9419    7.1295 C.3       14 UNK         0.0134 
     59 N         -49.3984  -24.6411   10.2588 N.am      6 UNK        -0.4116 
     60 C         -48.9477  -25.6639   10.9983 C.2       5 UNK         0.5034 
     61 O         -49.5104  -26.0841   12.0082 O.2       5 UNK        -0.5045 
     62 CA        -47.5947  -26.2704   10.5856 C.3       5 UNK         0.0224 
     63 CB        -47.8147  -27.5399    9.7495 C.3       5 UNK        -0.1978 
     64 N         -46.7232  -25.3508    9.8416 N.am      5 UNK        -0.4737 
     65 C         -46.3011  -24.1459   10.2508 C.2       4 UNK         0.5027 
     66 O         -46.6028  -23.6600   11.3414 O.2       4 UNK        -0.5211 
     67 CA        -45.4573  -23.3060    9.2722 C.3       4 UNK         0.0297 
     68 CB        -43.9566  -23.4079    9.6087 C.3       4 UNK        -0.1993 
     69 N         -45.7158  -23.5622    7.8437 N.am      4 UNK        -0.4486 
     70 C         -45.4327  -24.6565    7.1233 C.2       3 UNK         0.4961 
     71 O         -44.8814  -25.6598    7.5811 O.2       3 UNK        -0.5105 
     72 CA        -45.8391  -24.6108    5.6396 C.3       3 UNK         0.0299 
     73 CB        -44.7776  -23.8632    4.8156 C.3       3 UNK        -0.1972 
     74 N         -46.0208  -25.9505    5.0756 N.am      3 UNK        -0.4305 
     75 C         -47.0012  -26.7977    5.4146 C.2       2 UNK         0.5006 
     76 O         -47.9021  -26.5255    6.2103 O.2       2 UNK        -0.5106 
     77 CA        -46.9218  -28.2018    4.7854 C.3       2 UNK         0.0296 
     78 CB        -46.0864  -29.1311    5.6819 C.3       2 UNK        -0.2002 
     79 N         -48.2258  -28.8289    4.5481 N.am      2 UNK        -0.4032 
     80 C         -49.2225  -28.3256    3.8042 C.2       1 UNK         0.5000 
     81 O         -49.1705  -27.2400    3.2219 O.2       1 UNK        -0.5238 
     82 H82       -48.1766  -32.8451    2.3755 H         1 UNK         0.0889 
     83 H83       -49.7177  -33.1268    1.5605 H         1 UNK         0.0889 
     84 H84       -49.6390  -33.1231    3.3234 H         1 UNK         0.0889 
     85 H85       -50.4544  -31.2345    4.2077 H         1 UNK         0.3028 
     86 H86       -50.9489  -28.8763    2.7106 H         1 UNK         0.0864 
     87 H87       -52.5001  -29.2672    4.3987 H         1 UNK         0.0720 
     88 H88       -51.6073  -27.9218    5.0138 H         1 UNK         0.0720 
     89 H89       -50.1293  -29.3097    8.3164 H         1 UNK         0.0814 
     90 H90       -49.5603  -28.3724    6.9650 H         1 UNK         0.0814 
     91 H91       -50.4641  -26.1769    6.5936 H         1 UNK         0.1469 
     92 H92       -53.7779  -24.7957    8.9371 H         1 UNK         0.1381 
     93 H93       -52.5299  -28.8916    9.1903 H         1 UNK         0.1206 
     94 H94       -55.2919  -26.6759    9.8667 H         1 UNK         0.0813 
     95 H95       -54.5611  -28.2000   10.2955 H         1 UNK         0.0813 
     96 H96       -51.9097  -27.7243   11.4876 H         1 UNK         0.0638 
     97 H97       -51.9372  -26.9721   13.0453 H         1 UNK         0.0638 
     98 H98       -53.5434  -29.4166   12.2061 H         1 UNK         0.0568 
     99 H99       -51.0079  -30.9922   14.7685 H         1 UNK         0.3450 
    100 H100      -52.5430  -30.2932   15.2214 H         1 UNK         0.3450 
    101 H101      -53.5986  -28.0384   14.8476 H         1 UNK         0.2987 
    102 H102      -56.4584  -28.0557   15.3509 H         1 UNK         0.0766 
    103 H103      -57.5073  -29.8076   16.8024 H         1 UNK         0.0798 
    104 H104      -57.6579  -30.2000   15.0992 H         1 UNK         0.0798 
    105 H105      -56.4615  -31.0314   16.0827 H         1 UNK         0.0798 
    106 H106      -55.2175  -27.7604   17.1374 H         1 UNK         0.3198 
    107 H107      -53.8860  -29.3510   19.4045 H         1 UNK         0.0843 
    108 H108      -51.3916  -29.0095   17.6501 H         1 UNK         0.0831 
    109 H109      -51.8211  -30.4332   18.5877 H         1 UNK         0.0831 
    110 H110      -51.3958  -28.9438   19.4126 H         1 UNK         0.0831 
    111 H111      -52.9953  -26.9949   17.7992 H         1 UNK         0.3133 
    112 H112      -55.2321  -24.8615   19.4244 H         1 UNK         0.0566 
    113 H113      -52.2128  -24.7796   19.9708 H         1 UNK         0.0814 
    114 H114      -53.4720  -24.7446   21.1968 H         1 UNK         0.0814 
    115 H115      -53.3203  -23.4092   20.0687 H         1 UNK         0.0814 
    116 H116      -53.0416  -24.3059   17.6778 H         1 UNK         0.3091 
    117 H117      -54.4098  -25.5197   14.6626 H         1 UNK         0.0702 
    118 H118      -54.1639  -23.1889   13.8772 H         1 UNK         0.0785 
    119 H119      -54.1264  -22.5942   15.5378 H         1 UNK         0.0785 
    120 H120      -55.5912  -23.3235   14.8906 H         1 UNK         0.0785 
    121 H121      -52.0886  -23.9854   15.0798 H         1 UNK         0.2998 
    122 H122      -49.9808  -25.5311   16.5894 H         1 UNK         0.0697 
    123 H123      -49.9165  -27.4744   14.2272 H         1 UNK         0.0825 
    124 H124      -49.8608  -27.8996   15.9286 H         1 UNK         0.0825 
    125 H125      -48.5274  -27.0171   15.2078 H         1 UNK         0.0825 
    126 H126      -49.6238  -25.0334   13.7152 H         1 UNK         0.3029 
    127 H127      -49.8776  -21.5507   13.9754 H         1 UNK         0.0897 
    128 H128      -47.4675  -21.3341   13.3784 H         1 UNK         0.0792 
    129 H129      -47.6515  -21.6492   15.0965 H         1 UNK         0.0792 
    130 H130      -47.1446  -22.9440   14.0196 H         1 UNK         0.0792 
    131 H131      -48.5849  -23.2137   12.0274 H         1 UNK         0.3086 
    132 H132      -51.4380  -24.5059   10.4607 H         1 UNK         0.0583 
    133 H133      -51.8107  -22.3450    9.4630 H         1 UNK         0.1020 
    134 H134      -50.1573  -21.8494    9.6683 H         1 UNK         0.1020 
    135 H135      -52.7511  -23.2925    7.3721 H         1 UNK         0.0694 
    136 H136      -51.8734  -24.0049    6.0410 H         1 UNK         0.0694 
    137 H137      -48.8719  -24.3923    9.4343 H         1 UNK         0.2989 
    138 H138      -47.0734  -26.5448   11.5051 H         1 UNK         0.1055 
    139 H139      -46.8728  -28.0441    9.5329 H         1 UNK         0.0806 
    140 H140      -48.2974  -27.3088    8.7998 H         1 UNK         0.0806 
    141 H141      -48.4522  -28.2517   10.2765 H         1 UNK         0.0806 
    142 H142      -46.3710  -25.6771    8.9474 H         1 UNK         0.3061 
    143 H143      -45.7537  -22.2686    9.4359 H         1 UNK         0.0734 
    144 H144      -43.7684  -23.0910   10.6354 H         1 UNK         0.0832 
    145 H145      -43.5833  -24.4280    9.5150 H         1 UNK         0.0832 
    146 H146      -43.3589  -22.7697    8.9581 H         1 UNK         0.0832 
    147 H147      -46.1920  -22.8093    7.3647 H         1 UNK         0.3156 
    148 H148      -46.7893  -24.0784    5.5561 H         1 UNK         0.0589 
    149 H149      -43.8068  -24.3588    4.8637 H         1 UNK         0.0808 
    150 H150      -45.0665  -23.7907    3.7668 H         1 UNK         0.0808 
    151 H151      -44.6400  -22.8447    5.1813 H         1 UNK         0.0808 
    152 H152      -45.2957  -26.2755    4.4531 H         1 UNK         0.3098 
    153 H153      -46.4283  -28.1155    3.8152 H         1 UNK         0.0720 
    154 H154      -45.9447  -30.1093    5.2218 H         1 UNK         0.0791 
    155 H155      -45.0947  -28.7142    5.8644 H         1 UNK         0.0791 
    156 H156      -46.5582  -29.2798    6.6544 H         1 UNK         0.0791 
    157 H157      -48.3777  -29.7266    4.9829 H         1 UNK         0.3028 
@<TRIPOS>BOND
     1    1    2 1    
     2    1   82 1    
     3    1   83 1    
     4    1   84 1    
     5    2    3 2    
     6    2    4 am   BACKBONE|DICT|INTERRES
     7    4    5 1    
     8    4   85 1    
     9    5    6 1    
    10    5   80 1    
    11    5   86 1    
    12    6    7 1    
    13    6   87 1    
    14    6   88 1    
    15    7    8 1    
    16    8    9 1    
    17    8   89 1    
    18    8   90 1    
    19    9   10 ar   
    20    9   14 ar   
    21   10   11 ar   
    22   10   91 1    
    23   11   12 ar   
    24   11   58 1    
    25   12   13 ar   
    26   12   92 1    
    27   13   14 ar   
    28   13   15 1    
    29   14   93 1    
    30   15   16 1    
    31   15   94 1    
    32   15   95 1    
    33   16   17 1    
    34   17   18 1    
    35   17   96 1    
    36   17   97 1    
    37   18   19 1    
    38   18   22 1    
    39   18   98 1    
    40   19   20 am   BACKBONE|DICT|INTERRES
    41   19   21 2    
    42   20   99 1    
    43   20  100 1    
    44   22   23 am   BACKBONE|DICT|INTERRES
    45   22  101 1    
    46   23   24 2    
    47   23   25 1    
    48   25   26 1    
    49   25   27 1    
    50   25  102 1    
    51   26  103 1    
    52   26  104 1    
    53   26  105 1    
    54   27   28 am   BACKBONE|DICT|INTERRES
    55   27  106 1    
    56   28   29 2    
    57   28   30 1    
    58   30   31 1    
    59   30   32 1    
    60   30  107 1    
    61   31  108 1    
    62   31  109 1    
    63   31  110 1    
    64   32   33 am   BACKBONE|DICT|INTERRES
    65   32  111 1    
    66   33   34 2    
    67   33   35 1    
    68   35   36 1    
    69   35   37 1    
    70   35  112 1    
    71   36  113 1    
    72   36  114 1    
    73   36  115 1    
    74   37   38 am   BACKBONE|DICT|INTERRES
    75   37  116 1    
    76   38   39 2    
    77   38   40 1    
    78   40   41 1    
    79   40   42 1    
    80   40  117 1    
    81   41  118 1    
    82   41  119 1    
    83   41  120 1    
    84   42   43 am   BACKBONE|DICT|INTERRES
    85   42  121 1    
    86   43   44 2    
    87   43   45 1    
    88   45   46 1    
    89   45   47 1    
    90   45  122 1    
    91   46  123 1    
    92   46  124 1    
    93   46  125 1    
    94   47   48 am   BACKBONE|DICT|INTERRES
    95   47  126 1    
    96   48   49 2    
    97   48   50 1    
    98   50   51 1    
    99   50   52 1    
   100   50  127 1    
   101   51  128 1    
   102   51  129 1    
   103   51  130 1    
   104   52   53 am   BACKBONE|DICT|INTERRES
   105   52  131 1    
   106   53   54 2    
   107   53   55 1    
   108   55   56 1    
   109   55   59 1    
   110   55  132 1    
   111   56   57 1    
   112   56  133 1    
   113   56  134 1    
   114   57   58 1    
   115   58  135 1    
   116   58  136 1    
   117   59   60 am   BACKBONE|DICT|INTERRES
   118   59  137 1    
   119   60   61 2    
   120   60   62 1    
   121   62   63 1    
   122   62   64 1    
   123   62  138 1    
   124   63  139 1    
   125   63  140 1    
   126   63  141 1    
   127   64   65 am   BACKBONE|DICT|INTERRES
   128   64  142 1    
   129   65   66 2    
   130   65   67 1    
   131   67   68 1    
   132   67   69 1    
   133   67  143 1    
   134   68  144 1    
   135   68  145 1    
   136   68  146 1    
   137   69   70 am   BACKBONE|DICT|INTERRES
   138   69  147 1    
   139   70   71 2    
   140   70   72 1    
   141   72   73 1    
   142   72   74 1    
   143   72  148 1    
   144   73  149 1    
   145   73  150 1    
   146   73  151 1    
   147   74   75 am   BACKBONE|DICT|INTERRES
   148   74  152 1    
   149   75   76 2    
   150   75   77 1    
   151   77   78 1    
   152   77   79 1    
   153   77  153 1    
   154   78  154 1    
   155   78  155 1    
   156   78  156 1    
   157   79   80 am   BACKBONE|DICT|INTERRES
   158   79  157 1    
   159   80   81 2    
@<TRIPOS>SUBSTRUCTURE
     1 UNK         1 GROUP             0       ****    0 ROOT    
