@<TRIPOS>MOLECULE
3R207
157   159    1
SMALL
USER_CHARGES


@<TRIPOS>ATOM
      1 CA        -47.4499  -29.3682    0.7540 C.3       0 UNK        -0.1975 
      2 C         -48.0032  -28.5027    1.8765 C.2       0 UNK         0.4852 
      3 O         -48.3650  -27.3501    1.6381 O.2       0 UNK        -0.5216 
      4 N         -48.0654  -29.0468    3.1006 N.am      1 UNK        -0.4461 
      5 CA        -48.5790  -28.3652    4.2991 C.3       1 UNK         0.0864 
      6 C6        -49.0195  -29.3882    5.3852 C.3       14 UNK        -0.0898 
      7 S7        -50.6556  -28.9892    6.0795 S.3       14 UNK        -0.2598 
      8 C8        -50.2224  -28.3736    7.7336 C.3       14 UNK         0.0286 
      9 C9        -51.4710  -27.9027    8.4603 C.ar      14 UNK        -0.0844 
     10 C10       -51.8830  -26.5699    8.3631 C.ar      14 UNK        -0.0881 
     11 C11       -53.0628  -26.1458    8.9818 C.ar      14 UNK        -0.0643 
     12 C12       -53.8236  -27.0637    9.7136 C.ar      14 UNK        -0.0930 
     13 C13       -53.4210  -28.3981    9.8179 C.ar      14 UNK        -0.0827 
     14 C14       -52.2414  -28.8113    9.1923 C.ar      14 UNK        -0.1249 
     15 C15       -54.2842  -29.3998   10.5693 C.3       14 UNK         0.0141 
     16 S16       -55.6610  -29.9633    9.5201 S.3       14 UNK        -0.2313 
     17 C17       -56.4496  -31.2352   10.5637 C.3       14 UNK        -0.0915 
     18 CA        -57.8114  -30.7645   11.1591 C.3       13 UNK         0.0968 
     19 C         -58.6472  -31.9351   11.7659 C.2       13 UNK         0.5732 
     20 N         -59.4542  -31.7055   12.7952 N.am      13 UNK        -0.7310 
     21 O         -58.5965  -33.0620   11.2778 O.2       13 UNK        -0.5035 
     22 N         -57.6729  -29.5827   12.0325 N.am      13 UNK        -0.4233 
     23 C         -57.0059  -29.5485   13.1923 C.2       13 UNK         0.4989 
     24 O         -56.4629  -30.5272   13.7131 O.2       13 UNK        -0.4996 
     25 CA        -56.9242  -28.1882   13.8926 C.3       12 UNK         0.0216 
     26 CB        -58.1449  -27.9539   14.7984 C.3       12 UNK        -0.1964 
     27 N         -55.7087  -28.1918   14.6987 N.am      12 UNK        -0.4276 
     28 C         -54.8123  -27.2057   14.7660 C.2       12 UNK         0.5020 
     29 O         -54.9681  -26.0963   14.2509 O.2       12 UNK        -0.5489 
     30 CA        -53.4964  -27.5658   15.4773 C.3       11 UNK         0.0294 
     31 CB        -52.6332  -28.4588   14.5695 C.3       11 UNK        -0.2019 
     32 N         -52.7150  -26.3898   15.8621 N.am      11 UNK        -0.4493 
     33 C         -53.0161  -25.5671   16.8768 C.2       11 UNK         0.4932 
     34 O         -54.0039  -25.7098   17.6004 O.2       11 UNK        -0.5029 
     35 CA        -52.0274  -24.4097   17.1391 C.3       10 UNK         0.0280 
     36 CB        -52.1921  -23.7748   18.5367 C.3       10 UNK        -0.1976 
     37 N         -50.6298  -24.7908   16.8922 N.am      10 UNK        -0.4242 
     38 C         -49.9315  -25.7589   17.5079 C.2       10 UNK         0.5072 
     39 O         -50.3481  -26.3949   18.4772 O.2       10 UNK        -0.5224 
     40 CA        -48.5432  -26.1058   16.9421 C.3       9 UNK         0.0343 
     41 CB        -48.5063  -27.5681   16.4601 C.3       9 UNK        -0.2003 
     42 N         -48.1488  -25.2402   15.8248 N.am      9 UNK        -0.4272 
     43 C         -47.0459  -24.4799   15.8039 C.2       9 UNK         0.4988 
     44 O         -46.2627  -24.3784   16.7492 O.2       9 UNK        -0.5108 
     45 CA        -46.7405  -23.7142   14.5062 C.3       8 UNK         0.0248 
     46 CB        -45.9591  -24.6043   13.5264 C.3       8 UNK        -0.2001 
     47 N         -47.9222  -23.1737   13.8322 N.am      8 UNK        -0.4140 
     48 C         -48.6481  -22.1394   14.2804 C.2       8 UNK         0.5028 
     49 O         -48.4675  -21.5940   15.3692 O.2       8 UNK        -0.5428 
     50 CA        -49.7559  -21.6190   13.3546 C.3       7 UNK         0.0264 
     51 CB        -49.1570  -20.7901   12.2055 C.3       7 UNK        -0.1988 
     52 N         -50.5289  -22.7279   12.7991 N.am      7 UNK        -0.4454 
     53 C         -51.7441  -23.0959   13.2251 C.2       7 UNK         0.5027 
     54 O         -52.3770  -22.4818   14.0845 O.2       7 UNK        -0.5083 
     55 CA        -52.3689  -24.3681   12.6102 C.3       6 UNK         0.0844 
     56 C56       -53.4313  -24.0115   11.5427 C.3       14 UNK        -0.0967 
     57 S57       -52.7146  -23.5470    9.9244 S.3       14 UNK        -0.2604 
     58 C58       -53.5465  -24.7132    8.8025 C.3       14 UNK         0.0134 
     59 N         -51.3851  -25.3357   12.1140 N.am      6 UNK        -0.4116 
     60 C         -50.4722  -25.9616   12.8647 C.2       5 UNK         0.5034 
     61 O         -50.4102  -25.8561   14.0893 O.2       5 UNK        -0.5045 
     62 CA        -49.4136  -26.8044   12.1339 C.3       5 UNK         0.0224 
     63 CB        -49.8475  -28.2756   12.0680 C.3       5 UNK        -0.1978 
     64 N         -49.0613  -26.3339   10.7869 N.am      5 UNK        -0.4737 
     65 C         -48.6182  -25.1049   10.4824 C.2       4 UNK         0.5027 
     66 O         -48.5831  -24.1770   11.2925 O.2       4 UNK        -0.5211 
     67 CA        -48.1068  -24.8944    9.0437 C.3       4 UNK         0.0297 
     68 CB        -47.4712  -23.5032    8.8446 C.3       4 UNK        -0.1993 
     69 N         -47.1754  -25.9411    8.5979 N.am      4 UNK        -0.4486 
     70 C         -46.0627  -26.3641    9.2270 C.2       3 UNK         0.4961 
     71 O         -45.6756  -25.9427   10.3165 O.2       3 UNK        -0.5105 
     72 CA        -45.2255  -27.4490    8.5231 C.3       3 UNK         0.0299 
     73 CB        -45.6529  -28.8445    9.0073 C.3       3 UNK        -0.1972 
     74 N         -45.3105  -27.3998    7.0625 N.am      3 UNK        -0.4305 
     75 C         -44.8992  -26.3787    6.2961 C.2       2 UNK         0.5006 
     76 O         -44.2862  -25.4019    6.7279 O.2       2 UNK        -0.5106 
     77 CA        -45.2426  -26.4404    4.7953 C.3       2 UNK         0.0296 
     78 CB        -43.9924  -26.7920    3.9718 C.3       2 UNK        -0.2002 
     79 N         -46.3236  -27.3690    4.4396 N.am      2 UNK        -0.4032 
     80 C         -47.5950  -27.3169    4.8707 C.2       1 UNK         0.5000 
     81 O         -47.9922  -26.5057    5.7101 O.2       1 UNK        -0.5238 
     82 H82       -48.1967  -29.4862   -0.0307 H         1 UNK         0.0889 
     83 H83       -47.1673  -30.3607    1.1044 H         1 UNK         0.0889 
     84 H84       -46.5686  -28.8988    0.3176 H         1 UNK         0.0889 
     85 H85       -47.7608  -30.0017    3.2319 H         1 UNK         0.3028 
     86 H86       -49.4559  -27.7988    3.9767 H         1 UNK         0.0864 
     87 H87       -48.2830  -29.4967    6.1843 H         1 UNK         0.0720 
     88 H88       -49.1178  -30.3865    4.9555 H         1 UNK         0.0720 
     89 H89       -49.5080  -27.5555    7.6436 H         1 UNK         0.0814 
     90 H90       -49.7283  -29.1631    8.3023 H         1 UNK         0.0814 
     91 H91       -51.3047  -25.8689    7.7767 H         1 UNK         0.1469 
     92 H92       -54.7503  -26.7517   10.1750 H         1 UNK         0.1381 
     93 H93       -51.9357  -29.8471    9.2515 H         1 UNK         0.1206 
     94 H94       -53.6869  -30.2577   10.8821 H         1 UNK         0.0813 
     95 H95       -54.6732  -28.9425   11.4794 H         1 UNK         0.0813 
     96 H96       -56.5939  -32.1070    9.9235 H         1 UNK         0.0638 
     97 H97       -55.7643  -31.5551   11.3496 H         1 UNK         0.0638 
     98 H98       -58.4201  -30.4253   10.3203 H         1 UNK         0.0568 
     99 H99       -59.5190  -30.7862   13.2004 H         1 UNK         0.3450 
    100 H100      -59.9990  -32.4647   13.1726 H         1 UNK         0.3450 
    101 H101      -58.1093  -28.7384   11.6914 H         1 UNK         0.2987 
    102 H102      -56.8737  -27.4056   13.1320 H         1 UNK         0.0766 
    103 H103      -59.0682  -27.9381   14.2181 H         1 UNK         0.0798 
    104 H104      -58.0722  -26.9974   15.3165 H         1 UNK         0.0798 
    105 H105      -58.2443  -28.7353   15.5532 H         1 UNK         0.0798 
    106 H106      -55.4726  -29.1035   15.0720 H         1 UNK         0.3198 
    107 H107      -53.7363  -28.1207   16.3872 H         1 UNK         0.0843 
    108 H108      -53.1179  -29.4181   14.3834 H         1 UNK         0.0831 
    109 H109      -51.6642  -28.6712   15.0216 H         1 UNK         0.0831 
    110 H110      -52.4614  -27.9940   13.5986 H         1 UNK         0.0831 
    111 H111      -51.8920  -26.1870   15.3027 H         1 UNK         0.3133 
    112 H112      -52.2661  -23.6399   16.4067 H         1 UNK         0.0566 
    113 H113      -51.4879  -22.9564   18.6860 H         1 UNK         0.0814 
    114 H114      -52.0373  -24.5016   19.3346 H         1 UNK         0.0814 
    115 H115      -53.1949  -23.3648   18.6627 H         1 UNK         0.0814 
    116 H116      -50.1914  -24.3409   16.1022 H         1 UNK         0.3091 
    117 H117      -47.8415  -26.0060   17.7725 H         1 UNK         0.0702 
    118 H118      -47.5149  -27.8399   16.0973 H         1 UNK         0.0785 
    119 H119      -49.2185  -27.7463   15.6538 H         1 UNK         0.0785 
    120 H120      -48.7526  -28.2559   17.2701 H         1 UNK         0.0785 
    121 H121      -48.7448  -25.2813   15.0048 H         1 UNK         0.2998 
    122 H122      -46.0995  -22.8705   14.7711 H         1 UNK         0.0697 
    123 H123      -46.5458  -25.4620   13.1977 H         1 UNK         0.0825 
    124 H124      -45.0486  -24.9896   13.9871 H         1 UNK         0.0825 
    125 H125      -45.6612  -24.0497   12.6361 H         1 UNK         0.0825 
    126 H126      -48.1287  -23.5477   12.9067 H         1 UNK         0.3029 
    127 H127      -50.3989  -20.9599   13.9422 H         1 UNK         0.0897 
    128 H128      -48.4990  -21.3858   11.5712 H         1 UNK         0.0792 
    129 H129      -48.5713  -19.9546   12.5911 H         1 UNK         0.0792 
    130 H130      -49.9400  -20.3723   11.5725 H         1 UNK         0.0792 
    131 H131      -50.0567  -23.2982   12.1023 H         1 UNK         0.3086 
    132 H132      -52.8900  -24.8572   13.4325 H         1 UNK         0.0583 
    133 H133      -54.1022  -24.8609   11.4204 H         1 UNK         0.1020 
    134 H134      -54.0762  -23.2001   11.8868 H         1 UNK         0.1020 
    135 H135      -54.6261  -24.6489    8.9479 H         1 UNK         0.0694 
    136 H136      -53.3635  -24.3970    7.7745 H         1 UNK         0.0694 
    137 H137      -51.3633  -25.4683   11.1127 H         1 UNK         0.2989 
    138 H138      -48.5028  -26.7528   12.7328 H         1 UNK         0.1055 
    139 H139      -50.7845  -28.3958   11.5251 H         1 UNK         0.0806 
    140 H140      -49.0932  -28.8952   11.5826 H         1 UNK         0.0806 
    141 H141      -49.9971  -28.6814   13.0693 H         1 UNK         0.0806 
    142 H142      -49.0504  -27.0321   10.0591 H         1 UNK         0.3061 
    143 H143      -48.9801  -24.9552    8.3929 H         1 UNK         0.0734 
    144 H144      -46.6038  -23.3614    9.4905 H         1 UNK         0.0832 
    145 H145      -47.1485  -23.3588    7.8135 H         1 UNK         0.0832 
    146 H146      -48.1832  -22.7099    9.0761 H         1 UNK         0.0832 
    147 H147      -47.3723  -26.3235    7.6779 H         1 UNK         0.3156 
    148 H148      -44.1810  -27.2930    8.8011 H         1 UNK         0.0589 
    149 H149      -45.0156  -29.6235    8.5884 H         1 UNK         0.0808 
    150 H150      -45.5793  -28.9189   10.0934 H         1 UNK         0.0808 
    151 H151      -46.6849  -29.0704    8.7355 H         1 UNK         0.0808 
    152 H152      -45.7741  -28.1719    6.6083 H         1 UNK         0.3098 
    153 H153      -45.5710  -25.4399    4.5065 H         1 UNK         0.0720 
    154 H154      -43.6321  -27.7972    4.1941 H         1 UNK         0.0791 
    155 H155      -43.1763  -26.0994    4.1837 H         1 UNK         0.0791 
    156 H156      -44.1915  -26.7339    2.9014 H         1 UNK         0.0791 
    157 H157      -46.0950  -28.0796    3.7600 H         1 UNK         0.3028 
@<TRIPOS>BOND
     1    1    2 1    
     2    1   82 1    
     3    1   83 1    
     4    1   84 1    
     5    2    3 2    
     6    2    4 am   BACKBONE|DICT|INTERRES
     7    4    5 1    
     8    4   85 1    
     9    5    6 1    
    10    5   80 1    
    11    5   86 1    
    12    6    7 1    
    13    6   87 1    
    14    6   88 1    
    15    7    8 1    
    16    8    9 1    
    17    8   89 1    
    18    8   90 1    
    19    9   10 ar   
    20    9   14 ar   
    21   10   11 ar   
    22   10   91 1    
    23   11   12 ar   
    24   11   58 1    
    25   12   13 ar   
    26   12   92 1    
    27   13   14 ar   
    28   13   15 1    
    29   14   93 1    
    30   15   16 1    
    31   15   94 1    
    32   15   95 1    
    33   16   17 1    
    34   17   18 1    
    35   17   96 1    
    36   17   97 1    
    37   18   19 1    
    38   18   22 1    
    39   18   98 1    
    40   19   20 am   BACKBONE|DICT|INTERRES
    41   19   21 2    
    42   20   99 1    
    43   20  100 1    
    44   22   23 am   BACKBONE|DICT|INTERRES
    45   22  101 1    
    46   23   24 2    
    47   23   25 1    
    48   25   26 1    
    49   25   27 1    
    50   25  102 1    
    51   26  103 1    
    52   26  104 1    
    53   26  105 1    
    54   27   28 am   BACKBONE|DICT|INTERRES
    55   27  106 1    
    56   28   29 2    
    57   28   30 1    
    58   30   31 1    
    59   30   32 1    
    60   30  107 1    
    61   31  108 1    
    62   31  109 1    
    63   31  110 1    
    64   32   33 am   BACKBONE|DICT|INTERRES
    65   32  111 1    
    66   33   34 2    
    67   33   35 1    
    68   35   36 1    
    69   35   37 1    
    70   35  112 1    
    71   36  113 1    
    72   36  114 1    
    73   36  115 1    
    74   37   38 am   BACKBONE|DICT|INTERRES
    75   37  116 1    
    76   38   39 2    
    77   38   40 1    
    78   40   41 1    
    79   40   42 1    
    80   40  117 1    
    81   41  118 1    
    82   41  119 1    
    83   41  120 1    
    84   42   43 am   BACKBONE|DICT|INTERRES
    85   42  121 1    
    86   43   44 2    
    87   43   45 1    
    88   45   46 1    
    89   45   47 1    
    90   45  122 1    
    91   46  123 1    
    92   46  124 1    
    93   46  125 1    
    94   47   48 am   BACKBONE|DICT|INTERRES
    95   47  126 1    
    96   48   49 2    
    97   48   50 1    
    98   50   51 1    
    99   50   52 1    
   100   50  127 1    
   101   51  128 1    
   102   51  129 1    
   103   51  130 1    
   104   52   53 am   BACKBONE|DICT|INTERRES
   105   52  131 1    
   106   53   54 2    
   107   53   55 1    
   108   55   56 1    
   109   55   59 1    
   110   55  132 1    
   111   56   57 1    
   112   56  133 1    
   113   56  134 1    
   114   57   58 1    
   115   58  135 1    
   116   58  136 1    
   117   59   60 am   BACKBONE|DICT|INTERRES
   118   59  137 1    
   119   60   61 2    
   120   60   62 1    
   121   62   63 1    
   122   62   64 1    
   123   62  138 1    
   124   63  139 1    
   125   63  140 1    
   126   63  141 1    
   127   64   65 am   BACKBONE|DICT|INTERRES
   128   64  142 1    
   129   65   66 2    
   130   65   67 1    
   131   67   68 1    
   132   67   69 1    
   133   67  143 1    
   134   68  144 1    
   135   68  145 1    
   136   68  146 1    
   137   69   70 am   BACKBONE|DICT|INTERRES
   138   69  147 1    
   139   70   71 2    
   140   70   72 1    
   141   72   73 1    
   142   72   74 1    
   143   72  148 1    
   144   73  149 1    
   145   73  150 1    
   146   73  151 1    
   147   74   75 am   BACKBONE|DICT|INTERRES
   148   74  152 1    
   149   75   76 2    
   150   75   77 1    
   151   77   78 1    
   152   77   79 1    
   153   77  153 1    
   154   78  154 1    
   155   78  155 1    
   156   78  156 1    
   157   79   80 am   BACKBONE|DICT|INTERRES
   158   79  157 1    
   159   80   81 2    
@<TRIPOS>SUBSTRUCTURE
     1 UNK         1 GROUP             0       ****    0 ROOT    
