@<TRIPOS>MOLECULE
3R207
157   159    1
SMALL
USER_CHARGES


@<TRIPOS>ATOM
      1 CA        -46.9867  -32.1647    6.2855 C.3       0 UNK        -0.1975 
      2 C         -47.6876  -30.8443    6.5667 C.2       0 UNK         0.4852 
      3 O         -47.3225  -30.1522    7.5176 O.2       0 UNK        -0.5216 
      4 N         -48.6740  -30.4829    5.7329 N.am      1 UNK        -0.4461 
      5 CA        -49.5474  -29.2959    5.8024 C.3       1 UNK         0.0864 
      6 C6        -50.3797  -29.1982    7.1098 C.3       14 UNK        -0.0898 
      7 S7        -51.4388  -30.6590    7.3704 S.3       14 UNK        -0.2598 
      8 C8        -52.0727  -30.3509    9.0505 C.3       14 UNK         0.0286 
      9 C9        -53.0704  -29.2001    9.0873 C.ar      14 UNK        -0.0844 
     10 C10       -52.7492  -28.0017    9.7319 C.ar      14 UNK        -0.0881 
     11 C11       -53.6572  -26.9380    9.7456 C.ar      14 UNK        -0.0643 
     12 C12       -54.9000  -27.0821    9.1223 C.ar      14 UNK        -0.0930 
     13 C13       -55.2334  -28.2758    8.4755 C.ar      14 UNK        -0.0827 
     14 C14       -54.3170  -29.3320    8.4676 C.ar      14 UNK        -0.1249 
     15 C15       -56.5526  -28.4028    7.7259 C.3       14 UNK         0.0141 
     16 S16       -57.6542  -29.6612    8.4425 S.3       14 UNK        -0.2313 
     17 C17       -58.3282  -28.8083    9.9131 C.3       14 UNK        -0.0915 
     18 CA        -58.3145  -29.6725   11.2034 C.3       13 UNK         0.0968 
     19 C         -59.2745  -30.8955   11.0978 C.2       13 UNK         0.5732 
     20 N         -60.5690  -30.6810   11.2929 N.am      13 UNK        -0.7310 
     21 O         -58.8679  -32.0206   10.8104 O.2       13 UNK        -0.5035 
     22 N         -56.9378  -30.0000   11.5989 N.am      13 UNK        -0.4233 
     23 C         -56.5735  -30.6738   12.6986 C.2       13 UNK         0.4989 
     24 O         -57.3550  -31.0919   13.5539 O.2       13 UNK        -0.4996 
     25 CA        -55.0620  -30.8656   12.8962 C.3       12 UNK         0.0216 
     26 CB        -54.4510  -31.7274   11.7774 C.3       12 UNK        -0.1964 
     27 N         -54.3803  -29.5713   12.9640 N.am      12 UNK        -0.4276 
     28 C         -54.4403  -28.7482   14.0195 C.2       12 UNK         0.5020 
     29 O         -55.0071  -29.0220   15.0808 O.2       12 UNK        -0.5489 
     30 CA        -53.8072  -27.3604   13.8356 C.3       11 UNK         0.0294 
     31 CB        -54.8775  -26.3588   13.3682 C.3       11 UNK        -0.2019 
     32 N         -53.1933  -26.8545   15.0645 N.am      11 UNK        -0.4493 
     33 C         -52.1091  -27.3779   15.6492 C.2       11 UNK         0.4932 
     34 O         -51.5092  -28.3751   15.2393 O.2       11 UNK        -0.5029 
     35 CA        -51.6241  -26.6773   16.9297 C.3       10 UNK         0.0280 
     36 CB        -52.0957  -27.4411   18.1779 C.3       10 UNK        -0.1976 
     37 N         -50.1640  -26.5825   16.9405 N.am      10 UNK        -0.4242 
     38 C         -49.4598  -25.7400   16.1738 C.2       10 UNK         0.5072 
     39 O         -49.9684  -24.8591   15.4763 O.2       10 UNK        -0.5224 
     40 CA        -47.9348  -25.9423   16.1813 C.3       9 UNK         0.0343 
     41 CB        -47.5535  -27.2272   15.4290 C.3       9 UNK        -0.2003 
     42 N         -47.2474  -24.8082   15.5615 N.am      9 UNK        -0.4272 
     43 C         -46.9225  -23.6836   16.2112 C.2       9 UNK         0.4988 
     44 O         -47.1076  -23.5074   17.4166 O.2       9 UNK        -0.5108 
     45 CA        -46.2856  -22.5645   15.3807 C.3       8 UNK         0.0248 
     46 CB        -44.8715  -22.9496   14.9088 C.3       8 UNK        -0.2001 
     47 N         -47.1259  -22.2264   14.2290 N.am      8 UNK        -0.4140 
     48 C         -47.8664  -21.1117   14.1459 C.2       8 UNK         0.5028 
     49 O         -47.9488  -20.2731   15.0451 O.2       8 UNK        -0.5428 
     50 CA        -48.6171  -20.8509   12.8312 C.3       7 UNK         0.0264 
     51 CB        -47.6832  -20.1830   11.8079 C.3       7 UNK        -0.1988 
     52 N         -49.2023  -22.0522   12.2371 N.am      7 UNK        -0.4454 
     53 C         -50.3582  -22.6082   12.6307 C.2       7 UNK         0.5027 
     54 O         -51.0276  -22.1858   13.5744 O.2       7 UNK        -0.5083 
     55 CA        -50.8783  -23.8075   11.8151 C.3       6 UNK         0.0844 
     56 C56       -51.6862  -23.3188   10.5804 C.3       14 UNK        -0.0967 
     57 S57       -52.1586  -24.6415    9.4095 S.3       14 UNK        -0.2604 
     58 C58       -53.2870  -25.6330   10.4303 C.3       14 UNK         0.0134 
     59 N         -49.7716  -24.6876   11.4439 N.am      6 UNK        -0.4116 
     60 C         -49.6046  -25.9465   11.8702 C.2       5 UNK         0.5034 
     61 O         -50.3985  -26.5416   12.5965 O.2       5 UNK        -0.5045 
     62 CA        -48.3486  -26.6949   11.3853 C.3       5 UNK         0.0224 
     63 CB        -48.7380  -27.7889   10.3782 C.3       5 UNK        -0.1978 
     64 N         -47.3365  -25.8148   10.7937 N.am      5 UNK        -0.4737 
     65 C         -46.6132  -24.9236   11.4887 C.2       4 UNK         0.5027 
     66 O         -46.7129  -24.7715   12.7066 O.2       4 UNK        -0.5211 
     67 CA        -45.6718  -23.9969   10.6975 C.3       4 UNK         0.0297 
     68 CB        -44.2487  -24.5743   10.6805 C.3       4 UNK        -0.1993 
     69 N         -46.1093  -23.7341    9.3223 N.am      4 UNK        -0.4486 
     70 C         -47.2746  -23.1669    8.9777 C.2       3 UNK         0.4961 
     71 O         -48.1084  -22.7752    9.7940 O.2       3 UNK        -0.5105 
     72 CA        -47.5958  -23.0844    7.4746 C.3       3 UNK         0.0299 
     73 CB        -47.0529  -21.7740    6.8841 C.3       3 UNK        -0.1972 
     74 N         -47.1089  -24.2242    6.6833 N.am      3 UNK        -0.4305 
     75 C         -47.4002  -25.5098    6.9299 C.2       2 UNK         0.5006 
     76 O         -48.0491  -25.8861    7.9066 O.2       2 UNK        -0.5106 
     77 CA        -46.8235  -26.5513    5.9580 C.3       2 UNK         0.0296 
     78 CB        -45.3629  -26.8685    6.3193 C.3       2 UNK        -0.2002 
     79 N         -47.5978  -27.7922    6.0048 N.am      2 UNK        -0.4032 
     80 C         -48.8285  -27.9596    5.5058 C.2       1 UNK         0.5000 
     81 O         -49.3999  -27.1122    4.8159 O.2       1 UNK        -0.5238 
     82 H82       -47.0871  -32.8304    7.1423 H         1 UNK         0.0889 
     83 H83       -45.9251  -31.9954    6.1076 H         1 UNK         0.0889 
     84 H84       -47.4011  -32.6701    5.4134 H         1 UNK         0.0889 
     85 H85       -48.8855  -31.0987    4.9598 H         1 UNK         0.3028 
     86 H86       -50.2584  -29.4265    4.9846 H         1 UNK         0.0864 
     87 H87       -51.0241  -28.3167    7.0909 H         1 UNK         0.0720 
     88 H88       -49.7252  -29.0823    7.9735 H         1 UNK         0.0720 
     89 H89       -51.2357  -30.1689    9.7265 H         1 UNK         0.0814 
     90 H90       -52.5599  -31.2588    9.4069 H         1 UNK         0.0814 
     91 H91       -51.7858  -27.8829   10.2088 H         1 UNK         0.1469 
     92 H92       -55.5974  -26.2555    9.1213 H         1 UNK         0.1381 
     93 H93       -54.5654  -30.2524    7.9565 H         1 UNK         0.1206 
     94 H94       -57.0766  -27.4467    7.6805 H         1 UNK         0.0813 
     95 H95       -56.3391  -28.6787    6.6923 H         1 UNK         0.0813 
     96 H96       -59.3445  -28.4847    9.6822 H         1 UNK         0.0638 
     97 H97       -57.7636  -27.8912   10.0871 H         1 UNK         0.0638 
     98 H98       -58.7031  -29.0490   12.0107 H         1 UNK         0.0568 
     99 H99       -60.9192  -29.7625   11.5165 H         1 UNK         0.3450 
    100 H100      -61.2093  -31.4557   11.2163 H         1 UNK         0.3450 
    101 H101      -56.2258  -29.7235   10.9402 H         1 UNK         0.2987 
    102 H102      -54.9086  -31.3885   13.8431 H         1 UNK         0.0766 
    103 H103      -54.9309  -32.7062   11.7378 H         1 UNK         0.0798 
    104 H104      -53.3870  -31.8966   11.9440 H         1 UNK         0.0798 
    105 H105      -54.5686  -31.2708   10.7947 H         1 UNK         0.0798 
    106 H106      -53.9046  -29.2609   12.1291 H         1 UNK         0.3198 
    107 H107      -53.0223  -27.4310   13.0800 H         1 UNK         0.0843 
    108 H108      -55.6863  -26.2671   14.0945 H         1 UNK         0.0831 
    109 H109      -55.3264  -26.6759   12.4258 H         1 UNK         0.0831 
    110 H110      -54.4563  -25.3656   13.2122 H         1 UNK         0.0831 
    111 H111      -53.6440  -26.0635   15.5003 H         1 UNK         0.3133 
    112 H112      -52.0378  -25.6669   16.9670 H         1 UNK         0.0566 
    113 H113      -51.7070  -28.4602   18.1994 H         1 UNK         0.0814 
    114 H114      -53.1842  -27.5088   18.2042 H         1 UNK         0.0814 
    115 H115      -51.7804  -26.9407   19.0937 H         1 UNK         0.0814 
    116 H116      -49.6714  -27.3016   17.4500 H         1 UNK         0.3091 
    117 H117      -47.6025  -26.0393   17.2172 H         1 UNK         0.0702 
    118 H118      -48.0035  -27.2529   14.4389 H         1 UNK         0.0785 
    119 H119      -47.9024  -28.1127   15.9614 H         1 UNK         0.0785 
    120 H120      -46.4734  -27.3223   15.3148 H         1 UNK         0.0785 
    121 H121      -47.0935  -24.8582   14.5574 H         1 UNK         0.2998 
    122 H122      -46.1755  -21.6977   16.0360 H         1 UNK         0.0697 
    123 H123      -44.4062  -22.1349   14.3539 H         1 UNK         0.0825 
    124 H124      -44.8707  -23.8308   14.2680 H         1 UNK         0.0825 
    125 H125      -44.2266  -23.1700   15.7604 H         1 UNK         0.0825 
    126 H126      -47.1534  -22.9041   13.4760 H         1 UNK         0.3029 
    127 H127      -49.4251  -20.1487   13.0496 H         1 UNK         0.0897 
    128 H128      -46.8510  -20.8322   11.5336 H         1 UNK         0.0792 
    129 H129      -47.2597  -19.2611   12.2088 H         1 UNK         0.0792 
    130 H130      -48.2179  -19.9231   10.8940 H         1 UNK         0.0792 
    131 H131      -48.7511  -22.3964   11.3906 H         1 UNK         0.3086 
    132 H132      -51.5626  -24.3392   12.4784 H         1 UNK         0.0583 
    133 H133      -52.5903  -22.7980   10.9018 H         1 UNK         0.1020 
    134 H134      -51.1061  -22.5890   10.0112 H         1 UNK         0.1020 
    135 H135      -52.8073  -25.8624   11.3792 H         1 UNK         0.0694 
    136 H136      -54.1772  -25.0453   10.6591 H         1 UNK         0.0694 
    137 H137      -49.0830  -24.2982   10.8123 H         1 UNK         0.2989 
    138 H138      -47.8942  -27.1832   12.2465 H         1 UNK         0.1055 
    139 H139      -47.8629  -28.2805    9.9524 H         1 UNK         0.0806 
    140 H140      -49.3293  -27.3810    9.5584 H         1 UNK         0.0806 
    141 H141      -49.3423  -28.5595   10.8582 H         1 UNK         0.0806 
    142 H142      -47.2723  -25.8281    9.7800 H         1 UNK         0.3061 
    143 H143      -45.6444  -23.0397   11.2218 H         1 UNK         0.0734 
    144 H144      -44.2037  -25.5232   10.1443 H         1 UNK         0.0832 
    145 H145      -43.5454  -23.8868   10.2102 H         1 UNK         0.0832 
    146 H146      -43.8902  -24.7562   11.6950 H         1 UNK         0.0832 
    147 H147      -45.4940  -24.0381    8.5819 H         1 UNK         0.3156 
    148 H148      -48.6839  -23.0729    7.3818 H         1 UNK         0.0589 
    149 H149      -47.3729  -21.6405    5.8505 H         1 UNK         0.0808 
    150 H150      -45.9629  -21.7401    6.9067 H         1 UNK         0.0808 
    151 H151      -47.4171  -20.9126    7.4464 H         1 UNK         0.0808 
    152 H152      -46.5531  -24.0026    5.8692 H         1 UNK         0.3098 
    153 H153      -46.8646  -26.1505    4.9431 H         1 UNK         0.0720 
    154 H154      -44.7384  -25.9760    6.2631 H         1 UNK         0.0791 
    155 H155      -44.9369  -27.6027    5.6351 H         1 UNK         0.0791 
    156 H156      -45.2759  -27.2660    7.3318 H         1 UNK         0.0791 
    157 H157      -47.2545  -28.5301    6.6151 H         1 UNK         0.3028 
@<TRIPOS>BOND
     1    1    2 1    
     2    1   82 1    
     3    1   83 1    
     4    1   84 1    
     5    2    3 2    
     6    2    4 am   BACKBONE|DICT|INTERRES
     7    4    5 1    
     8    4   85 1    
     9    5    6 1    
    10    5   80 1    
    11    5   86 1    
    12    6    7 1    
    13    6   87 1    
    14    6   88 1    
    15    7    8 1    
    16    8    9 1    
    17    8   89 1    
    18    8   90 1    
    19    9   10 ar   
    20    9   14 ar   
    21   10   11 ar   
    22   10   91 1    
    23   11   12 ar   
    24   11   58 1    
    25   12   13 ar   
    26   12   92 1    
    27   13   14 ar   
    28   13   15 1    
    29   14   93 1    
    30   15   16 1    
    31   15   94 1    
    32   15   95 1    
    33   16   17 1    
    34   17   18 1    
    35   17   96 1    
    36   17   97 1    
    37   18   19 1    
    38   18   22 1    
    39   18   98 1    
    40   19   20 am   BACKBONE|DICT|INTERRES
    41   19   21 2    
    42   20   99 1    
    43   20  100 1    
    44   22   23 am   BACKBONE|DICT|INTERRES
    45   22  101 1    
    46   23   24 2    
    47   23   25 1    
    48   25   26 1    
    49   25   27 1    
    50   25  102 1    
    51   26  103 1    
    52   26  104 1    
    53   26  105 1    
    54   27   28 am   BACKBONE|DICT|INTERRES
    55   27  106 1    
    56   28   29 2    
    57   28   30 1    
    58   30   31 1    
    59   30   32 1    
    60   30  107 1    
    61   31  108 1    
    62   31  109 1    
    63   31  110 1    
    64   32   33 am   BACKBONE|DICT|INTERRES
    65   32  111 1    
    66   33   34 2    
    67   33   35 1    
    68   35   36 1    
    69   35   37 1    
    70   35  112 1    
    71   36  113 1    
    72   36  114 1    
    73   36  115 1    
    74   37   38 am   BACKBONE|DICT|INTERRES
    75   37  116 1    
    76   38   39 2    
    77   38   40 1    
    78   40   41 1    
    79   40   42 1    
    80   40  117 1    
    81   41  118 1    
    82   41  119 1    
    83   41  120 1    
    84   42   43 am   BACKBONE|DICT|INTERRES
    85   42  121 1    
    86   43   44 2    
    87   43   45 1    
    88   45   46 1    
    89   45   47 1    
    90   45  122 1    
    91   46  123 1    
    92   46  124 1    
    93   46  125 1    
    94   47   48 am   BACKBONE|DICT|INTERRES
    95   47  126 1    
    96   48   49 2    
    97   48   50 1    
    98   50   51 1    
    99   50   52 1    
   100   50  127 1    
   101   51  128 1    
   102   51  129 1    
   103   51  130 1    
   104   52   53 am   BACKBONE|DICT|INTERRES
   105   52  131 1    
   106   53   54 2    
   107   53   55 1    
   108   55   56 1    
   109   55   59 1    
   110   55  132 1    
   111   56   57 1    
   112   56  133 1    
   113   56  134 1    
   114   57   58 1    
   115   58  135 1    
   116   58  136 1    
   117   59   60 am   BACKBONE|DICT|INTERRES
   118   59  137 1    
   119   60   61 2    
   120   60   62 1    
   121   62   63 1    
   122   62   64 1    
   123   62  138 1    
   124   63  139 1    
   125   63  140 1    
   126   63  141 1    
   127   64   65 am   BACKBONE|DICT|INTERRES
   128   64  142 1    
   129   65   66 2    
   130   65   67 1    
   131   67   68 1    
   132   67   69 1    
   133   67  143 1    
   134   68  144 1    
   135   68  145 1    
   136   68  146 1    
   137   69   70 am   BACKBONE|DICT|INTERRES
   138   69  147 1    
   139   70   71 2    
   140   70   72 1    
   141   72   73 1    
   142   72   74 1    
   143   72  148 1    
   144   73  149 1    
   145   73  150 1    
   146   73  151 1    
   147   74   75 am   BACKBONE|DICT|INTERRES
   148   74  152 1    
   149   75   76 2    
   150   75   77 1    
   151   77   78 1    
   152   77   79 1    
   153   77  153 1    
   154   78  154 1    
   155   78  155 1    
   156   78  156 1    
   157   79   80 am   BACKBONE|DICT|INTERRES
   158   79  157 1    
   159   80   81 2    
@<TRIPOS>SUBSTRUCTURE
     1 UNK         1 GROUP             0       ****    0 ROOT    
