@<TRIPOS>MOLECULE
3R207
157   159    1
SMALL
USER_CHARGES


@<TRIPOS>ATOM
      1 CA        -50.3354  -31.9318    6.5842 C.3       0 UNK        -0.1975 
      2 C         -49.9380  -30.8431    5.6001 C.2       0 UNK         0.4852 
      3 O         -49.0669  -31.0599    4.7573 O.2       0 UNK        -0.5216 
      4 N         -50.5755  -29.6705    5.7044 N.am      1 UNK        -0.4461 
      5 CA        -50.3772  -28.5115    4.8226 C.3       1 UNK         0.0864 
      6 C6        -51.5165  -27.4693    4.9722 C.3       14 UNK        -0.0898 
      7 S7        -53.1817  -28.1589    4.6843 S.3       14 UNK        -0.2598 
      8 C8        -53.9779  -27.9160    6.3051 C.3       14 UNK         0.0286 
      9 C9        -53.5649  -28.9869    7.3037 C.ar      14 UNK        -0.0844 
     10 C10       -52.4746  -28.7851    8.1552 C.ar      14 UNK        -0.0881 
     11 C11       -52.0822  -29.7779    9.0645 C.ar      14 UNK        -0.0643 
     12 C12       -52.8308  -30.9556    9.1439 C.ar      14 UNK        -0.0930 
     13 C13       -53.9441  -31.1534    8.3232 C.ar      14 UNK        -0.0827 
     14 C14       -54.2927  -30.1757    7.3891 C.ar      14 UNK        -0.1249 
     15 C15       -54.7988  -32.4015    8.4755 C.3       14 UNK         0.0141 
     16 S16       -56.3702  -32.0271    9.3212 S.3       14 UNK        -0.2313 
     17 C17       -55.8030  -31.4949   10.9744 C.3       14 UNK        -0.0915 
     18 CA        -55.6328  -29.9561   11.1058 C.3       13 UNK         0.0968 
     19 C         -56.9912  -29.2055   11.1133 C.2       13 UNK         0.5732 
     20 N         -57.3666  -28.5769   10.0077 N.am      13 UNK        -0.7310 
     21 O         -57.7183  -29.2173   12.1052 O.2       13 UNK        -0.5035 
     22 N         -54.8420  -29.6290   12.2977 N.am      13 UNK        -0.4233 
     23 C         -54.1886  -28.4762   12.4816 C.2       13 UNK         0.4989 
     24 O         -54.0677  -27.6032   11.6185 O.2       13 UNK        -0.4996 
     25 CA        -53.5258  -28.2968   13.8590 C.3       12 UNK         0.0216 
     26 CB        -52.1550  -28.9925   13.8981 C.3       12 UNK        -0.1964 
     27 N         -53.3490  -26.8872   14.2079 N.am      12 UNK        -0.4276 
     28 C         -54.3373  -26.0284   14.4827 C.2       12 UNK         0.5020 
     29 O         -55.5280  -26.3456   14.5422 O.2       12 UNK        -0.5489 
     30 CA        -53.8997  -24.5755   14.7562 C.3       11 UNK         0.0294 
     31 CB        -55.0882  -23.6024   14.9081 C.3       11 UNK        -0.2019 
     32 N         -52.9910  -24.4705   15.9067 N.am      11 UNK        -0.4493 
     33 C         -53.2366  -24.8664   17.1663 C.2       11 UNK         0.4932 
     34 O         -54.3083  -25.3420   17.5464 O.2       11 UNK        -0.5029 
     35 CA        -52.0837  -24.6885   18.1745 C.3       10 UNK         0.0280 
     36 CB        -52.3644  -25.3572   19.5373 C.3       10 UNK        -0.1976 
     37 N         -50.7840  -25.1229   17.6524 N.am      10 UNK        -0.4242 
     38 C         -50.4392  -26.3294   17.1781 C.2       10 UNK         0.5072 
     39 O         -51.2141  -27.2856   17.1222 O.2       10 UNK        -0.5224 
     40 CA        -48.9773  -26.5018   16.7006 C.3       9 UNK         0.0343 
     41 CB        -48.7945  -27.7538   15.8217 C.3       9 UNK        -0.2003 
     42 N         -48.4539  -25.3394   15.9737 N.am      9 UNK        -0.4272 
     43 C         -48.0954  -24.1647   16.5096 C.2       9 UNK         0.4988 
     44 O         -48.1141  -23.9371   17.7195 O.2       9 UNK        -0.5108 
     45 CA        -47.7277  -23.0284   15.5402 C.3       8 UNK         0.0248 
     46 CB        -46.2329  -23.0803   15.1890 C.3       8 UNK        -0.2001 
     47 N         -48.5318  -23.0159   14.3125 N.am      8 UNK        -0.4140 
     48 C         -49.8697  -22.8988   14.2694 C.2       8 UNK         0.5028 
     49 O         -50.5915  -22.7901   15.2629 O.2       8 UNK        -0.5428 
     50 CA        -50.5228  -22.9614   12.8801 C.3       7 UNK         0.0264 
     51 CB        -50.2669  -21.6671   12.0917 C.3       7 UNK        -0.1988 
     52 N         -50.0783  -24.1229   12.1065 N.am      7 UNK        -0.4454 
     53 C         -50.2660  -25.4005   12.4736 C.2       7 UNK         0.5027 
     54 O         -50.9146  -25.7347   13.4654 O.2       7 UNK        -0.5083 
     55 CA        -49.5677  -26.4894   11.6343 C.3       6 UNK         0.0844 
     56 C56       -50.3996  -26.8729   10.3875 C.3       14 UNK        -0.0967 
     57 S57       -49.6895  -28.3235    9.5334 S.3       14 UNK        -0.2604 
     58 C58       -50.8729  -29.6337    9.9887 C.3       14 UNK         0.0134 
     59 N         -48.1926  -26.1125   11.2979 N.am      6 UNK        -0.4116 
     60 C         -47.2136  -25.9020   12.1878 C.2       5 UNK         0.5034 
     61 O         -47.3453  -26.0402   13.4025 O.2       5 UNK        -0.5045 
     62 CA        -45.8722  -25.4067   11.6319 C.3       5 UNK         0.0224 
     63 CB        -45.0334  -26.5772   11.0941 C.3       5 UNK        -0.1978 
     64 N         -46.0616  -24.4027   10.5838 N.am      5 UNK        -0.4737 
     65 C         -46.4797  -23.1502   10.8085 C.2       4 UNK         0.5027 
     66 O         -46.7187  -22.7005   11.9294 O.2       4 UNK        -0.5211 
     67 CA        -46.6980  -22.2613    9.5721 C.3       4 UNK         0.0297 
     68 CB        -45.3664  -21.6587    9.0973 C.3       4 UNK        -0.1993 
     69 N         -47.3461  -22.9647    8.4604 N.am      4 UNK        -0.4486 
     70 C         -48.5994  -23.4361    8.5021 C.2       3 UNK         0.4961 
     71 O         -49.3353  -23.3408    9.4828 O.2       3 UNK        -0.5105 
     72 CA        -49.1188  -24.1697    7.2552 C.3       3 UNK         0.0299 
     73 CB        -49.4904  -23.1673    6.1510 C.3       3 UNK        -0.1972 
     74 N         -48.2495  -25.2132    6.6969 N.am      3 UNK        -0.4305 
     75 C         -47.5603  -26.1466    7.3702 C.2       2 UNK         0.5006 
     76 O         -47.3480  -26.1143    8.5813 O.2       2 UNK        -0.5106 
     77 CA        -47.1091  -27.3678    6.5514 C.3       2 UNK         0.0296 
     78 CB        -46.2064  -28.3211    7.3572 C.3       2 UNK        -0.2002 
     79 N         -48.2976  -28.0995    6.1072 N.am      2 UNK        -0.4032 
     80 C         -49.0154  -27.8054    5.0136 C.2       1 UNK         0.5000 
     81 O         -48.6643  -26.9517    4.1959 O.2       1 UNK        -0.5238 
     82 H82       -49.7918  -31.8126    7.5211 H         1 UNK         0.0889 
     83 H83       -50.1082  -32.9174    6.1786 H         1 UNK         0.0889 
     84 H84       -51.4038  -31.8967    6.7958 H         1 UNK         0.0889 
     85 H85       -51.3067  -29.5676    6.3966 H         1 UNK         0.3028 
     86 H86       -50.3924  -28.8790    3.7943 H         1 UNK         0.0864 
     87 H87       -51.3838  -26.6609    4.2502 H         1 UNK         0.0720 
     88 H88       -51.4766  -26.9941    5.9535 H         1 UNK         0.0720 
     89 H89       -55.0599  -27.9439    6.1670 H         1 UNK         0.0814 
     90 H90       -53.7532  -26.9200    6.6899 H         1 UNK         0.0814 
     91 H91       -51.9340  -27.8523    8.0973 H         1 UNK         0.1469 
     92 H92       -52.5555  -31.7154    9.8628 H         1 UNK         0.1381 
     93 H93       -55.1506  -30.3295    6.7485 H         1 UNK         0.1206 
     94 H94       -55.0153  -32.8154    7.4897 H         1 UNK         0.0813 
     95 H95       -54.2649  -33.1791    9.0241 H         1 UNK         0.0813 
     96 H96       -54.8570  -31.9967   11.1831 H         1 UNK         0.0638 
     97 H97       -56.5067  -31.8705   11.7194 H         1 UNK         0.0638 
     98 H98       -55.0647  -29.6021   10.2453 H         1 UNK         0.0568 
     99 H99       -56.7809  -28.5824    9.1876 H         1 UNK         0.3450 
    100 H100      -58.2516  -28.0956    9.9918 H         1 UNK         0.3450 
    101 H101      -54.9117  -30.2808   13.0647 H         1 UNK         0.2987 
    102 H102      -54.1704  -28.7495   14.6153 H         1 UNK         0.0766 
    103 H103      -51.7145  -28.9376   14.8939 H         1 UNK         0.0798 
    104 H104      -51.4539  -28.5361   13.1999 H         1 UNK         0.0798 
    105 H105      -52.2369  -30.0487   13.6388 H         1 UNK         0.0798 
    106 H106      -52.4052  -26.5127   14.1165 H         1 UNK         0.3198 
    107 H107      -53.3337  -24.2614   13.8799 H         1 UNK         0.0843 
    108 H108      -54.7458  -22.5763   15.0411 H         1 UNK         0.0831 
    109 H109      -55.7191  -23.8592   15.7596 H         1 UNK         0.0831 
    110 H110      -55.7207  -23.6211   14.0197 H         1 UNK         0.0831 
    111 H111      -52.0756  -24.0731   15.7085 H         1 UNK         0.3133 
    112 H112      -51.9963  -23.6148   18.3467 H         1 UNK         0.0566 
    113 H113      -51.5490  -25.1848   20.2397 H         1 UNK         0.0814 
    114 H114      -53.2714  -24.9561   19.9914 H         1 UNK         0.0814 
    115 H115      -52.4994  -26.4348   19.4376 H         1 UNK         0.0814 
    116 H116      -50.0503  -24.4218   17.6661 H         1 UNK         0.3091 
    117 H117      -48.3717  -26.6379   17.5987 H         1 UNK         0.0702 
    118 H118      -47.7515  -27.8877   15.5343 H         1 UNK         0.0785 
    119 H119      -49.3864  -27.6882   14.9081 H         1 UNK         0.0785 
    120 H120      -49.1014  -28.6579   16.3488 H         1 UNK         0.0785 
    121 H121      -48.3557  -25.4529   14.9687 H         1 UNK         0.2998 
    122 H122      -47.9201  -22.0862   16.0572 H         1 UNK         0.0697 
    123 H123      -45.9395  -22.2295   14.5738 H         1 UNK         0.0825 
    124 H124      -45.6186  -23.0552   16.0900 H         1 UNK         0.0825 
    125 H125      -45.9778  -23.9902   14.6459 H         1 UNK         0.0825 
    126 H126      -48.0187  -23.0753   13.4374 H         1 UNK         0.3029 
    127 H127      -51.5998  -23.0514   13.0237 H         1 UNK         0.0897 
    128 H128      -50.8202  -21.6617   11.1525 H         1 UNK         0.0792 
    129 H129      -50.5868  -20.7928   12.6603 H         1 UNK         0.0792 
    130 H130      -49.2107  -21.5357   11.8554 H         1 UNK         0.0792 
    131 H131      -49.5925  -23.9244   11.2337 H         1 UNK         0.3086 
    132 H132      -49.5003  -27.3745   12.2703 H         1 UNK         0.0583 
    133 H133      -51.4355  -27.0849   10.6618 H         1 UNK         0.1020 
    134 H134      -50.4379  -26.0410    9.6822 H         1 UNK         0.1020 
    135 H135      -50.3227  -30.5759    9.9917 H         1 UNK         0.0694 
    136 H136      -51.2183  -29.4800   11.0108 H         1 UNK         0.0694 
    137 H137      -47.9711  -26.0256   10.3077 H         1 UNK         0.2989 
    138 H138      -45.3216  -24.9438   12.4536 H         1 UNK         0.1055 
    139 H139      -44.8472  -27.3125   11.8780 H         1 UNK         0.0806 
    140 H140      -44.0632  -26.2367   10.7324 H         1 UNK         0.0806 
    141 H141      -45.5334  -27.0961   10.2758 H         1 UNK         0.0806 
    142 H142      -46.0081  -24.7305    9.6274 H         1 UNK         0.3061 
    143 H143      -47.3528  -21.4401    9.8721 H         1 UNK         0.0734 
    144 H144      -45.5184  -20.9527    8.2807 H         1 UNK         0.0832 
    145 H145      -44.8758  -21.1148    9.9060 H         1 UNK         0.0832 
    146 H146      -44.6724  -22.4269    8.7542 H         1 UNK         0.0832 
    147 H147      -46.8042  -23.1095    7.6208 H         1 UNK         0.3156 
    148 H148      -50.0370  -24.6782    7.5552 H         1 UNK         0.0589 
    149 H149      -48.6090  -22.6758    5.7374 H         1 UNK         0.0808 
    150 H150      -50.0168  -23.6565    5.3311 H         1 UNK         0.0808 
    151 H151      -50.1495  -22.3871    6.5351 H         1 UNK         0.0808 
    152 H152      -48.3452  -25.3702    5.7005 H         1 UNK         0.3098 
    153 H153      -46.5420  -27.0107    5.6892 H         1 UNK         0.0720 
    154 H154      -46.7152  -28.7138    8.2389 H         1 UNK         0.0791 
    155 H155      -45.3073  -27.8082    7.7009 H         1 UNK         0.0791 
    156 H156      -45.8854  -29.1684    6.7512 H         1 UNK         0.0791 
    157 H157      -48.6776  -28.7746    6.7553 H         1 UNK         0.3028 
@<TRIPOS>BOND
     1    1    2 1    
     2    1   82 1    
     3    1   83 1    
     4    1   84 1    
     5    2    3 2    
     6    2    4 am   BACKBONE|DICT|INTERRES
     7    4    5 1    
     8    4   85 1    
     9    5    6 1    
    10    5   80 1    
    11    5   86 1    
    12    6    7 1    
    13    6   87 1    
    14    6   88 1    
    15    7    8 1    
    16    8    9 1    
    17    8   89 1    
    18    8   90 1    
    19    9   10 ar   
    20    9   14 ar   
    21   10   11 ar   
    22   10   91 1    
    23   11   12 ar   
    24   11   58 1    
    25   12   13 ar   
    26   12   92 1    
    27   13   14 ar   
    28   13   15 1    
    29   14   93 1    
    30   15   16 1    
    31   15   94 1    
    32   15   95 1    
    33   16   17 1    
    34   17   18 1    
    35   17   96 1    
    36   17   97 1    
    37   18   19 1    
    38   18   22 1    
    39   18   98 1    
    40   19   20 am   BACKBONE|DICT|INTERRES
    41   19   21 2    
    42   20   99 1    
    43   20  100 1    
    44   22   23 am   BACKBONE|DICT|INTERRES
    45   22  101 1    
    46   23   24 2    
    47   23   25 1    
    48   25   26 1    
    49   25   27 1    
    50   25  102 1    
    51   26  103 1    
    52   26  104 1    
    53   26  105 1    
    54   27   28 am   BACKBONE|DICT|INTERRES
    55   27  106 1    
    56   28   29 2    
    57   28   30 1    
    58   30   31 1    
    59   30   32 1    
    60   30  107 1    
    61   31  108 1    
    62   31  109 1    
    63   31  110 1    
    64   32   33 am   BACKBONE|DICT|INTERRES
    65   32  111 1    
    66   33   34 2    
    67   33   35 1    
    68   35   36 1    
    69   35   37 1    
    70   35  112 1    
    71   36  113 1    
    72   36  114 1    
    73   36  115 1    
    74   37   38 am   BACKBONE|DICT|INTERRES
    75   37  116 1    
    76   38   39 2    
    77   38   40 1    
    78   40   41 1    
    79   40   42 1    
    80   40  117 1    
    81   41  118 1    
    82   41  119 1    
    83   41  120 1    
    84   42   43 am   BACKBONE|DICT|INTERRES
    85   42  121 1    
    86   43   44 2    
    87   43   45 1    
    88   45   46 1    
    89   45   47 1    
    90   45  122 1    
    91   46  123 1    
    92   46  124 1    
    93   46  125 1    
    94   47   48 am   BACKBONE|DICT|INTERRES
    95   47  126 1    
    96   48   49 2    
    97   48   50 1    
    98   50   51 1    
    99   50   52 1    
   100   50  127 1    
   101   51  128 1    
   102   51  129 1    
   103   51  130 1    
   104   52   53 am   BACKBONE|DICT|INTERRES
   105   52  131 1    
   106   53   54 2    
   107   53   55 1    
   108   55   56 1    
   109   55   59 1    
   110   55  132 1    
   111   56   57 1    
   112   56  133 1    
   113   56  134 1    
   114   57   58 1    
   115   58  135 1    
   116   58  136 1    
   117   59   60 am   BACKBONE|DICT|INTERRES
   118   59  137 1    
   119   60   61 2    
   120   60   62 1    
   121   62   63 1    
   122   62   64 1    
   123   62  138 1    
   124   63  139 1    
   125   63  140 1    
   126   63  141 1    
   127   64   65 am   BACKBONE|DICT|INTERRES
   128   64  142 1    
   129   65   66 2    
   130   65   67 1    
   131   67   68 1    
   132   67   69 1    
   133   67  143 1    
   134   68  144 1    
   135   68  145 1    
   136   68  146 1    
   137   69   70 am   BACKBONE|DICT|INTERRES
   138   69  147 1    
   139   70   71 2    
   140   70   72 1    
   141   72   73 1    
   142   72   74 1    
   143   72  148 1    
   144   73  149 1    
   145   73  150 1    
   146   73  151 1    
   147   74   75 am   BACKBONE|DICT|INTERRES
   148   74  152 1    
   149   75   76 2    
   150   75   77 1    
   151   77   78 1    
   152   77   79 1    
   153   77  153 1    
   154   78  154 1    
   155   78  155 1    
   156   78  156 1    
   157   79   80 am   BACKBONE|DICT|INTERRES
   158   79  157 1    
   159   80   81 2    
@<TRIPOS>SUBSTRUCTURE
     1 UNK         1 GROUP             0       ****    0 ROOT    
