@<TRIPOS>MOLECULE
3R207
157   159    1
SMALL
USER_CHARGES


@<TRIPOS>ATOM
      1 CA        -51.8539  -30.1192    8.9393 C.3       0 UNK        -0.1975 
      2 C         -50.6916  -29.6552    8.0758 C.2       0 UNK         0.4852 
      3 O         -49.8193  -28.9211    8.5477 O.2       0 UNK        -0.5216 
      4 N         -50.6663  -30.1074    6.8124 N.am      1 UNK        -0.4461 
      5 CA        -49.6710  -29.7882    5.7707 C.3       1 UNK         0.0864 
      6 C6        -49.7574  -28.3168    5.2800 C.3       14 UNK        -0.0898 
      7 S7        -51.3629  -27.8952    4.5276 S.3       14 UNK        -0.2598 
      8 C8        -51.3331  -26.0691    4.6570 C.3       14 UNK         0.0286 
      9 C9        -51.9255  -25.4791    5.9408 C.ar      14 UNK        -0.0844 
     10 C10       -52.2659  -24.1202    5.9574 C.ar      14 UNK        -0.0881 
     11 C11       -52.8446  -23.5374    7.0903 C.ar      14 UNK        -0.0643 
     12 C12       -53.0896  -24.3291    8.2117 C.ar      14 UNK        -0.0930 
     13 C13       -52.6930  -25.6655    8.2423 C.ar      14 UNK        -0.0827 
     14 C14       -52.1266  -26.2384    7.1016 C.ar      14 UNK        -0.1249 
     15 C15       -52.8442  -26.4713    9.5220 C.3       14 UNK         0.0141 
     16 S16       -54.5894  -26.6864    9.9801 S.3       14 UNK        -0.2313 
     17 C17       -54.4402  -27.8250   11.3949 C.3       14 UNK        -0.0915 
     18 CA        -54.0250  -27.1348   12.7286 C.3       13 UNK         0.0968 
     19 C         -55.1294  -26.2491   13.3826 C.2       13 UNK         0.5732 
     20 N         -54.8685  -25.6954   14.5591 N.am      13 UNK        -0.7310 
     21 O         -56.2185  -26.0609   12.8456 O.2       13 UNK        -0.5035 
     22 N         -53.4338  -28.1010   13.6687 N.am      13 UNK        -0.4233 
     23 C         -54.0954  -29.1083   14.2595 C.2       13 UNK         0.4989 
     24 O         -55.2956  -29.3331   14.0890 O.2       13 UNK        -0.4996 
     25 CA        -53.2814  -30.0250   15.1961 C.3       12 UNK         0.0216 
     26 CB        -54.0033  -31.3512   15.5182 C.3       12 UNK        -0.1964 
     27 N         -51.9166  -30.2888   14.7253 N.am      12 UNK        -0.4276 
     28 C         -51.5380  -30.8215   13.5502 C.2       12 UNK         0.5020 
     29 O         -52.3289  -31.2059   12.6873 O.2       12 UNK        -0.5489 
     30 CA        -50.0189  -30.9665   13.2977 C.3       11 UNK         0.0294 
     31 CB        -49.6463  -30.7911   11.8099 C.3       11 UNK        -0.2019 
     32 N         -49.1818  -30.1104   14.1518 N.am      11 UNK        -0.4493 
     33 C         -49.2025  -28.7720   14.2245 C.2       11 UNK         0.4932 
     34 O         -49.9002  -28.0432   13.5171 O.2       11 UNK        -0.5029 
     35 CA        -48.3447  -28.1501   15.3386 C.3       10 UNK         0.0280 
     36 CB        -47.2466  -27.2473   14.7548 C.3       10 UNK        -0.1976 
     37 N         -49.1707  -27.3730   16.2637 N.am      10 UNK        -0.4242 
     38 C         -50.1985  -27.8478   16.9848 C.2       10 UNK         0.5072 
     39 O         -50.5249  -29.0360   17.0096 O.2       10 UNK        -0.5224 
     40 CA        -51.0089  -26.8287   17.8093 C.3       9 UNK         0.0343 
     41 CB        -50.5660  -26.8543   19.2809 C.3       9 UNK        -0.2003 
     42 N         -50.9045  -25.4588   17.2946 N.am      9 UNK        -0.4272 
     43 C         -51.4585  -25.0427   16.1482 C.2       9 UNK         0.4988 
     44 O         -52.1893  -25.7467   15.4469 O.2       9 UNK        -0.5108 
     45 CA        -51.0711  -23.6285   15.6922 C.3       8 UNK         0.0248 
     46 CB        -49.6532  -23.6391   15.1008 C.3       8 UNK        -0.2001 
     47 N         -52.0007  -23.1297   14.6778 N.am      8 UNK        -0.4140 
     48 C         -53.1271  -22.4577   14.9536 C.2       8 UNK         0.5028 
     49 O         -53.4646  -22.1518   16.0994 O.2       8 UNK        -0.5428 
     50 CA        -54.0506  -22.0745   13.7760 C.3       7 UNK         0.0264 
     51 CB        -54.7297  -20.7030   13.9832 C.3       7 UNK        -0.1988 
     52 N         -53.4255  -22.1546   12.4486 N.am      7 UNK        -0.4454 
     53 C         -52.4137  -21.4154   11.9676 C.2       7 UNK         0.5027 
     54 O         -51.8489  -20.5105   12.5852 O.2       7 UNK        -0.5083 
     55 CA        -51.9481  -21.7714   10.5425 C.3       6 UNK         0.0844 
     56 C56       -52.3815  -20.7026    9.5079 C.3       14 UNK        -0.0967 
     57 S57       -51.8352  -21.0571    7.7963 S.3       14 UNK        -0.2604 
     58 C58       -53.1991  -22.0564    7.1085 C.3       14 UNK         0.0134 
     59 N         -50.5191  -22.0798   10.4962 N.am      6 UNK        -0.4116 
     60 C         -49.9542  -23.1141   11.1301 C.2       5 UNK         0.5034 
     61 O         -50.5677  -23.8874   11.8705 O.2       5 UNK        -0.5045 
     62 CA        -48.4743  -23.3714   10.8270 C.3       5 UNK         0.0224 
     63 CB        -47.6835  -23.7765   12.0820 C.3       5 UNK        -0.1978 
     64 N         -48.3978  -24.4575    9.8574 N.am      5 UNK        -0.4737 
     65 C         -48.3518  -24.3075    8.5285 C.2       4 UNK         0.5027 
     66 O         -48.3276  -23.2083    7.9732 O.2       4 UNK        -0.5211 
     67 CA        -48.3360  -25.5989    7.6820 C.3       4 UNK         0.0297 
     68 CB        -47.5510  -25.4284    6.3637 C.3       4 UNK        -0.1993 
     69 N         -47.8847  -26.7928    8.4166 N.am      4 UNK        -0.4486 
     70 C         -46.6783  -26.9850    8.9773 C.2       3 UNK         0.4961 
     71 O         -45.7355  -26.1992    8.8833 O.2       3 UNK        -0.5105 
     72 CA        -46.5040  -28.2550    9.8178 C.3       3 UNK         0.0299 
     73 CB        -47.2718  -28.1237   11.1430 C.3       3 UNK        -0.1972 
     74 N         -46.9660  -29.4358    9.0885 N.am      3 UNK        -0.4305 
     75 C         -46.1562  -30.3593    8.5486 C.2       2 UNK         0.5006 
     76 O         -44.9297  -30.3512    8.6643 O.2       2 UNK        -0.5106 
     77 CA        -46.8120  -31.4954    7.7389 C.3       2 UNK         0.0296 
     78 CB        -47.0416  -32.7248    8.6336 C.3       2 UNK        -0.2002 
     79 N         -48.0800  -31.1132    7.1150 N.am      2 UNK        -0.4032 
     80 C         -48.2228  -30.1810    6.1603 C.2       1 UNK         0.5000 
     81 O         -47.2660  -29.6342    5.6080 O.2       1 UNK        -0.5238 
     82 H82       -51.8734  -31.2066    9.0072 H         1 UNK         0.0889 
     83 H83       -52.8014  -29.7805    8.5203 H         1 UNK         0.0889 
     84 H84       -51.7708  -29.7230    9.9505 H         1 UNK         0.0889 
     85 H85       -51.4175  -30.7091    6.5025 H         1 UNK         0.3028 
     86 H86       -49.9132  -30.4283    4.9209 H         1 UNK         0.0864 
     87 H87       -49.5650  -27.6394    6.1090 H         1 UNK         0.0720 
     88 H88       -48.9962  -28.1065    4.5266 H         1 UNK         0.0720 
     89 H89       -51.8914  -25.6771    3.8055 H         1 UNK         0.0814 
     90 H90       -50.3092  -25.7115    4.5386 H         1 UNK         0.0814 
     91 H91       -52.0861  -23.5122    5.0811 H         1 UNK         0.1469 
     92 H92       -53.5885  -23.9099    9.0702 H         1 UNK         0.1381 
     93 H93       -51.8395  -27.2772    7.1282 H         1 UNK         0.1206 
     94 H94       -52.3700  -27.4451    9.4182 H         1 UNK         0.0813 
     95 H95       -52.3149  -25.9583   10.3265 H         1 UNK         0.0813 
     96 H96       -53.7124  -28.5927   11.1274 H         1 UNK         0.0638 
     97 H97       -55.3888  -28.3509   11.5140 H         1 UNK         0.0638 
     98 H98       -53.2128  -26.4449   12.4988 H         1 UNK         0.0568 
     99 H99       -55.5744  -25.1438   15.0177 H         1 UNK         0.3450 
    100 H100      -53.9479  -25.8086   14.9791 H         1 UNK         0.3450 
    101 H101      -52.4556  -27.9608   13.8858 H         1 UNK         0.2987 
    102 H102      -53.1769  -29.4738   16.1317 H         1 UNK         0.0766 
    103 H103      -54.9698  -31.1685   15.9896 H         1 UNK         0.0798 
    104 H104      -53.4205  -31.9629   16.2067 H         1 UNK         0.0798 
    105 H105      -54.1856  -31.9396   14.6182 H         1 UNK         0.0798 
    106 H106      -51.1882  -29.9917   15.3689 H         1 UNK         0.3198 
    107 H107      -49.7763  -31.9939   13.5734 H         1 UNK         0.0843 
    108 H108      -49.9034  -29.7966   11.4466 H         1 UNK         0.0831 
    109 H109      -50.1736  -31.5121   11.1844 H         1 UNK         0.0831 
    110 H110      -48.5805  -30.9459   11.6450 H         1 UNK         0.0831 
    111 H111      -48.5896  -30.6063   14.8048 H         1 UNK         0.3133 
    112 H112      -47.8644  -28.9448   15.9131 H         1 UNK         0.0566 
    113 H113      -46.6319  -26.8073   15.5403 H         1 UNK         0.0814 
    114 H114      -47.6661  -26.4346   14.1612 H         1 UNK         0.0814 
    115 H115      -46.5795  -27.8169   14.1071 H         1 UNK         0.0814 
    116 H116      -48.9968  -26.3808   16.2941 H         1 UNK         0.3091 
    117 H117      -52.0571  -27.1322   17.7628 H         1 UNK         0.0702 
    118 H118      -51.1806  -26.1930   19.8920 H         1 UNK         0.0785 
    119 H119      -49.5250  -26.5496   19.3964 H         1 UNK         0.0785 
    120 H120      -50.6599  -27.8579   19.6985 H         1 UNK         0.0785 
    121 H121      -50.3294  -24.8174   17.8225 H         1 UNK         0.2998 
    122 H122      -51.0814  -22.9622   16.5576 H         1 UNK         0.0697 
    123 H123      -49.5583  -24.3894   14.3155 H         1 UNK         0.0825 
    124 H124      -48.9061  -23.8666   15.8617 H         1 UNK         0.0825 
    125 H125      -49.3942  -22.6695   14.6752 H         1 UNK         0.0825 
    126 H126      -51.7987  -23.3879   13.7195 H         1 UNK         0.3029 
    127 H127      -54.8407  -22.8270   13.7741 H         1 UNK         0.0897 
    128 H128      -53.9995  -19.8989   14.0782 H         1 UNK         0.0792 
    129 H129      -55.3349  -20.6978   14.8906 H         1 UNK         0.0792 
    130 H130      -55.3936  -20.4585   13.1540 H         1 UNK         0.0792 
    131 H131      -53.7957  -22.8829   11.8536 H         1 UNK         0.3086 
    132 H132      -52.4452  -22.6981   10.2795 H         1 UNK         0.0583 
    133 H133      -53.4656  -20.5758    9.5183 H         1 UNK         0.1020 
    134 H134      -51.9701  -19.7300    9.7857 H         1 UNK         0.1020 
    135 H135      -54.1191  -21.8918    7.6708 H         1 UNK         0.0694 
    136 H136      -53.4025  -21.7140    6.0927 H         1 UNK         0.0694 
    137 H137      -49.9624  -21.5162    9.8703 H         1 UNK         0.2989 
    138 H138      -48.0230  -22.4635   10.4197 H         1 UNK         0.1055 
    139 H139      -48.0619  -24.7010   12.5181 H         1 UNK         0.0806 
    140 H140      -47.7382  -23.0002   12.8456 H         1 UNK         0.0806 
    141 H141      -46.6291  -23.9282   11.8503 H         1 UNK         0.0806 
    142 H142      -48.4658  -25.3941   10.2269 H         1 UNK         0.3061 
    143 H143      -49.3784  -25.7822    7.4260 H         1 UNK         0.0734 
    144 H144      -46.5244  -25.1092    6.5449 H         1 UNK         0.0832 
    145 H145      -47.5145  -26.3562    5.7938 H         1 UNK         0.0832 
    146 H146      -48.0170  -24.6744    5.7284 H         1 UNK         0.0832 
    147 H147      -48.5958  -27.5105    8.5495 H         1 UNK         0.3156 
    148 H148      -45.4435  -28.3467   10.0619 H         1 UNK         0.0589 
    149 H149      -47.0867  -28.9800   11.7910 H         1 UNK         0.0808 
    150 H150      -46.9571  -27.2325   11.6872 H         1 UNK         0.0808 
    151 H151      -48.3485  -28.0456   10.9889 H         1 UNK         0.0808 
    152 H152      -47.9638  -29.4938    8.9101 H         1 UNK         0.3098 
    153 H153      -46.1186  -31.7740    6.9425 H         1 UNK         0.0720 
    154 H154      -46.1078  -33.0522    9.0931 H         1 UNK         0.0791 
    155 H155      -47.4305  -33.5668    8.0607 H         1 UNK         0.0791 
    156 H156      -47.7442  -32.5125    9.4407 H         1 UNK         0.0791 
    157 H157      -48.9178  -31.5251    7.4985 H         1 UNK         0.3028 
@<TRIPOS>BOND
     1    1    2 1    
     2    1   82 1    
     3    1   83 1    
     4    1   84 1    
     5    2    3 2    
     6    2    4 am   BACKBONE|DICT|INTERRES
     7    4    5 1    
     8    4   85 1    
     9    5    6 1    
    10    5   80 1    
    11    5   86 1    
    12    6    7 1    
    13    6   87 1    
    14    6   88 1    
    15    7    8 1    
    16    8    9 1    
    17    8   89 1    
    18    8   90 1    
    19    9   10 ar   
    20    9   14 ar   
    21   10   11 ar   
    22   10   91 1    
    23   11   12 ar   
    24   11   58 1    
    25   12   13 ar   
    26   12   92 1    
    27   13   14 ar   
    28   13   15 1    
    29   14   93 1    
    30   15   16 1    
    31   15   94 1    
    32   15   95 1    
    33   16   17 1    
    34   17   18 1    
    35   17   96 1    
    36   17   97 1    
    37   18   19 1    
    38   18   22 1    
    39   18   98 1    
    40   19   20 am   BACKBONE|DICT|INTERRES
    41   19   21 2    
    42   20   99 1    
    43   20  100 1    
    44   22   23 am   BACKBONE|DICT|INTERRES
    45   22  101 1    
    46   23   24 2    
    47   23   25 1    
    48   25   26 1    
    49   25   27 1    
    50   25  102 1    
    51   26  103 1    
    52   26  104 1    
    53   26  105 1    
    54   27   28 am   BACKBONE|DICT|INTERRES
    55   27  106 1    
    56   28   29 2    
    57   28   30 1    
    58   30   31 1    
    59   30   32 1    
    60   30  107 1    
    61   31  108 1    
    62   31  109 1    
    63   31  110 1    
    64   32   33 am   BACKBONE|DICT|INTERRES
    65   32  111 1    
    66   33   34 2    
    67   33   35 1    
    68   35   36 1    
    69   35   37 1    
    70   35  112 1    
    71   36  113 1    
    72   36  114 1    
    73   36  115 1    
    74   37   38 am   BACKBONE|DICT|INTERRES
    75   37  116 1    
    76   38   39 2    
    77   38   40 1    
    78   40   41 1    
    79   40   42 1    
    80   40  117 1    
    81   41  118 1    
    82   41  119 1    
    83   41  120 1    
    84   42   43 am   BACKBONE|DICT|INTERRES
    85   42  121 1    
    86   43   44 2    
    87   43   45 1    
    88   45   46 1    
    89   45   47 1    
    90   45  122 1    
    91   46  123 1    
    92   46  124 1    
    93   46  125 1    
    94   47   48 am   BACKBONE|DICT|INTERRES
    95   47  126 1    
    96   48   49 2    
    97   48   50 1    
    98   50   51 1    
    99   50   52 1    
   100   50  127 1    
   101   51  128 1    
   102   51  129 1    
   103   51  130 1    
   104   52   53 am   BACKBONE|DICT|INTERRES
   105   52  131 1    
   106   53   54 2    
   107   53   55 1    
   108   55   56 1    
   109   55   59 1    
   110   55  132 1    
   111   56   57 1    
   112   56  133 1    
   113   56  134 1    
   114   57   58 1    
   115   58  135 1    
   116   58  136 1    
   117   59   60 am   BACKBONE|DICT|INTERRES
   118   59  137 1    
   119   60   61 2    
   120   60   62 1    
   121   62   63 1    
   122   62   64 1    
   123   62  138 1    
   124   63  139 1    
   125   63  140 1    
   126   63  141 1    
   127   64   65 am   BACKBONE|DICT|INTERRES
   128   64  142 1    
   129   65   66 2    
   130   65   67 1    
   131   67   68 1    
   132   67   69 1    
   133   67  143 1    
   134   68  144 1    
   135   68  145 1    
   136   68  146 1    
   137   69   70 am   BACKBONE|DICT|INTERRES
   138   69  147 1    
   139   70   71 2    
   140   70   72 1    
   141   72   73 1    
   142   72   74 1    
   143   72  148 1    
   144   73  149 1    
   145   73  150 1    
   146   73  151 1    
   147   74   75 am   BACKBONE|DICT|INTERRES
   148   74  152 1    
   149   75   76 2    
   150   75   77 1    
   151   77   78 1    
   152   77   79 1    
   153   77  153 1    
   154   78  154 1    
   155   78  155 1    
   156   78  156 1    
   157   79   80 am   BACKBONE|DICT|INTERRES
   158   79  157 1    
   159   80   81 2    
@<TRIPOS>SUBSTRUCTURE
     1 UNK         1 GROUP             0       ****    0 ROOT    
