@<TRIPOS>MOLECULE
3R207
157   159    1
SMALL
USER_CHARGES


@<TRIPOS>ATOM
      1 CA        -44.4873  -28.4907    8.5593 C.3       0 UNK        -0.1975 
      2 C         -45.6471  -28.1151    7.6506 C.2       0 UNK         0.4852 
      3 O         -46.0279  -26.9461    7.6006 O.2       0 UNK        -0.5216 
      4 N         -46.2017  -29.0915    6.9191 N.am      1 UNK        -0.4461 
      5 CA        -47.3507  -28.9470    6.0096 C.3       1 UNK         0.0864 
      6 C6        -48.6781  -28.5966    6.7402 C.3       14 UNK        -0.0898 
      7 S7        -49.0594  -29.7893    8.0673 S.3       14 UNK        -0.2598 
      8 C8        -49.6046  -28.6869    9.4085 C.3       14 UNK         0.0286 
      9 C9        -51.0679  -28.3041    9.2448 C.ar      14 UNK        -0.0844 
     10 C10       -51.4322  -27.0313    8.7964 C.ar      14 UNK        -0.0881 
     11 C11       -52.7839  -26.6741    8.6796 C.ar      14 UNK        -0.0643 
     12 C12       -53.7658  -27.6247    8.9833 C.ar      14 UNK        -0.0930 
     13 C13       -53.4127  -28.9085    9.4088 C.ar      14 UNK        -0.0827 
     14 C14       -52.0628  -29.2360    9.5495 C.ar      14 UNK        -0.1249 
     15 C15       -54.4763  -29.9622    9.6811 C.3       14 UNK         0.0141 
     16 S16       -55.0418  -29.9302   11.4094 S.3       14 UNK        -0.2313 
     17 C17       -56.5748  -28.9498   11.2722 C.3       14 UNK        -0.0915 
     18 CA        -56.9328  -28.1791   12.5704 C.3       13 UNK         0.0968 
     19 C         -58.2288  -27.3415   12.3624 C.2       13 UNK         0.5732 
     20 N         -59.3412  -27.6616   13.0128 N.am      13 UNK        -0.7310 
     21 O         -58.2221  -26.3822   11.5946 O.2       13 UNK        -0.5035 
     22 N         -56.9349  -29.0657   13.7474 N.am      13 UNK        -0.4233 
     23 C         -56.9182  -28.6500   15.0193 C.2       13 UNK         0.4989 
     24 O         -57.0063  -27.4656   15.3486 O.2       13 UNK        -0.4996 
     25 CA        -56.7466  -29.7154   16.1165 C.3       12 UNK         0.0216 
     26 CB        -56.4952  -31.1464   15.5955 C.3       12 UNK        -0.1964 
     27 N         -55.6184  -29.2929   16.9377 N.am      12 UNK        -0.4276 
     28 C         -55.5771  -29.2531   18.2749 C.2       12 UNK         0.5020 
     29 O         -56.4504  -29.7267   19.0036 O.2       12 UNK        -0.5489 
     30 CA        -54.3630  -28.5441   18.9146 C.3       11 UNK         0.0294 
     31 CB        -53.2937  -29.5698   19.3236 C.3       11 UNK        -0.2019 
     32 N         -53.7569  -27.5443   18.0283 N.am      11 UNK        -0.4493 
     33 C         -54.3674  -26.4233   17.6177 C.2       11 UNK         0.4932 
     34 O         -55.4027  -25.9956   18.1298 O.2       11 UNK        -0.5029 
     35 CA        -53.7578  -25.6589   16.4235 C.3       10 UNK         0.0280 
     36 CB        -53.2991  -24.2576   16.8582 C.3       10 UNK        -0.1976 
     37 N         -52.6546  -26.3199   15.7109 N.am      10 UNK        -0.4242 
     38 C         -52.6784  -27.5136   15.0976 C.2       10 UNK         0.5072 
     39 O         -53.6385  -28.2817   15.1473 O.2       10 UNK        -0.5224 
     40 CA        -51.4281  -27.9478   14.3062 C.3       9 UNK         0.0343 
     41 CB        -51.7648  -28.0932   12.8156 C.3       9 UNK        -0.2003 
     42 N         -50.2815  -27.0458   14.4441 N.am      9 UNK        -0.4272 
     43 C         -49.5023  -26.9469   15.5305 C.2       9 UNK         0.4988 
     44 O         -49.6476  -27.6317   16.5430 O.2       9 UNK        -0.5108 
     45 CA        -48.4029  -25.8737   15.4905 C.3       8 UNK         0.0248 
     46 CB        -47.1240  -26.4245   14.8385 C.3       8 UNK        -0.2001 
     47 N         -48.8546  -24.6757   14.7760 N.am      8 UNK        -0.4140 
     48 C         -49.6518  -23.7410   15.3161 C.2       8 UNK         0.5028 
     49 O         -50.0056  -23.7497   16.4944 O.2       8 UNK        -0.5428 
     50 CA        -50.1634  -22.6183   14.3943 C.3       7 UNK         0.0264 
     51 CB        -49.2167  -21.4086   14.4444 C.3       7 UNK        -0.1988 
     52 N         -50.3343  -23.0429   13.0031 N.am      7 UNK        -0.4454 
     53 C         -51.2559  -23.9191   12.5726 C.2       7 UNK         0.5027 
     54 O         -52.1210  -24.4063   13.2981 O.2       7 UNK        -0.5083 
     55 CA        -51.1672  -24.3619   11.0967 C.3       6 UNK         0.0844 
     56 C56       -52.1907  -23.5955   10.2215 C.3       14 UNK        -0.0967 
     57 S57       -52.0337  -23.9419    8.4325 S.3       14 UNK        -0.2604 
     58 C58       -53.2291  -25.2988    8.1777 C.3       14 UNK         0.0134 
     59 N         -49.8009  -24.2812   10.5710 N.am      6 UNK        -0.4116 
     60 C         -48.7577  -25.0082   10.9850 C.2       5 UNK         0.5034 
     61 O         -48.8307  -25.8069   11.9214 O.2       5 UNK        -0.5045 
     62 CA        -47.4168  -24.7860   10.2499 C.3       5 UNK         0.0224 
     63 CB        -46.3491  -25.8122   10.6706 C.3       5 UNK        -0.1978 
     64 N         -47.5340  -24.7948    8.7846 N.am      5 UNK        -0.4737 
     65 C         -48.0959  -23.8358    8.0337 C.2       4 UNK         0.5027 
     66 O         -48.5887  -22.8104    8.5081 O.2       4 UNK        -0.5211 
     67 CA        -48.1169  -24.0741    6.5131 C.3       4 UNK         0.0297 
     68 CB        -48.6982  -22.8867    5.7175 C.3       4 UNK        -0.1993 
     69 N         -46.8022  -24.4641    5.9983 N.am      4 UNK        -0.4486 
     70 C         -45.6571  -23.7643    6.0503 C.2       3 UNK         0.4961 
     71 O         -45.5725  -22.6118    6.4762 O.2       3 UNK        -0.5105 
     72 CA        -44.3735  -24.4650    5.5626 C.3       3 UNK         0.0299 
     73 CB        -43.4102  -24.7009    6.7391 C.3       3 UNK        -0.1972 
     74 N         -44.6385  -25.7468    4.9053 N.am      3 UNK        -0.4305 
     75 C         -44.9757  -25.8938    3.6162 C.2       2 UNK         0.5006 
     76 O         -45.0214  -24.9647    2.8095 O.2       2 UNK        -0.5106 
     77 CA        -45.3406  -27.3156    3.1466 C.3       2 UNK         0.0296 
     78 CB        -44.1215  -27.9978    2.5046 C.3       2 UNK        -0.2002 
     79 N         -45.8700  -28.1739    4.2135 N.am      2 UNK        -0.4032 
     80 C         -47.0325  -27.9730    4.8534 C.2       1 UNK         0.5000 
     81 O         -47.7925  -27.0369    4.5976 O.2       1 UNK        -0.5238 
     82 H82       -43.6177  -27.8753    8.3311 H         1 UNK         0.0889 
     83 H83       -44.2027  -29.5365    8.4464 H         1 UNK         0.0889 
     84 H84       -44.7591  -28.3232    9.6008 H         1 UNK         0.0889 
     85 H85       -45.8455  -30.0329    7.0116 H         1 UNK         0.3028 
     86 H86       -47.4903  -29.9222    5.5401 H         1 UNK         0.0864 
     87 H87       -49.5148  -28.5999    6.0393 H         1 UNK         0.0720 
     88 H88       -48.6331  -27.5875    7.1530 H         1 UNK         0.0720 
     89 H89       -48.9654  -27.8041    9.4596 H         1 UNK         0.0814 
     90 H90       -49.4747  -29.2054   10.3593 H         1 UNK         0.0814 
     91 H91       -50.6577  -26.3213    8.5445 H         1 UNK         0.1469 
     92 H92       -54.8106  -27.3700    8.8706 H         1 UNK         0.1381 
     93 H93       -51.7824  -30.2253    9.8847 H         1 UNK         0.1206 
     94 H94       -55.3208  -29.8383    9.0015 H         1 UNK         0.0813 
     95 H95       -54.0714  -30.9533    9.4707 H         1 UNK         0.0813 
     96 H96       -56.4660  -28.2479   10.4437 H         1 UNK         0.0638 
     97 H97       -57.3834  -29.6288   10.9954 H         1 UNK         0.0638 
     98 H98       -56.1369  -27.4506   12.7386 H         1 UNK         0.0568 
     99 H99       -60.1723  -27.1096   12.8715 H         1 UNK         0.3450 
    100 H100      -59.3545  -28.4433   13.6475 H         1 UNK         0.3450 
    101 H101      -56.8417  -30.0513   13.5542 H         1 UNK         0.2987 
    102 H102      -57.6644  -29.7107   16.7080 H         1 UNK         0.0766 
    103 H103      -57.3372  -31.5098   15.0051 H         1 UNK         0.0798 
    104 H104      -56.3667  -31.8434   16.4239 H         1 UNK         0.0798 
    105 H105      -55.5971  -31.2035   14.9783 H         1 UNK         0.0798 
    106 H106      -54.8644  -28.8478   16.4137 H         1 UNK         0.3198 
    107 H107      -54.7148  -28.0329   19.8133 H         1 UNK         0.0843 
    108 H108      -52.8966  -30.1058   18.4605 H         1 UNK         0.0831 
    109 H109      -53.7089  -30.3132   20.0056 H         1 UNK         0.0831 
    110 H110      -52.4593  -29.0916   19.8369 H         1 UNK         0.0831 
    111 H111      -52.9014  -27.8089   17.5616 H         1 UNK         0.3133 
    112 H112      -54.5639  -25.5369   15.6973 H         1 UNK         0.0566 
    113 H113      -52.9692  -23.6656   16.0043 H         1 UNK         0.0814 
    114 H114      -52.4760  -24.3088   17.5720 H         1 UNK         0.0814 
    115 H115      -54.1106  -23.7065   17.3352 H         1 UNK         0.0814 
    116 H116      -51.8218  -25.7627   15.5858 H         1 UNK         0.3091 
    117 H117      -51.1321  -28.9290   14.6828 H         1 UNK         0.0702 
    118 H118      -52.5067  -28.8768   12.6601 H         1 UNK         0.0785 
    119 H119      -50.8848  -28.3612   12.2322 H         1 UNK         0.0785 
    120 H120      -52.1786  -27.1740   12.4016 H         1 UNK         0.0785 
    121 H121      -50.0549  -26.4756   13.6382 H         1 UNK         0.2998 
    122 H122      -48.1624  -25.5995   16.5202 H         1 UNK         0.0697 
    123 H123      -47.3003  -26.7754   13.8216 H         1 UNK         0.0825 
    124 H124      -46.7342  -27.2698   15.4072 H         1 UNK         0.0825 
    125 H125      -46.3386  -25.6695   14.8024 H         1 UNK         0.0825 
    126 H126      -48.6375  -24.6294   13.7891 H         1 UNK         0.3029 
    127 H127      -51.1391  -22.3045   14.7719 H         1 UNK         0.0897 
    128 H128      -48.2249  -21.6527   14.0615 H         1 UNK         0.0792 
    129 H129      -49.0919  -21.0544   15.4688 H         1 UNK         0.0792 
    130 H130      -49.6071  -20.5741   13.8614 H         1 UNK         0.0792 
    131 H131      -49.6758  -22.6769   12.3307 H         1 UNK         0.3086 
    132 H132      -51.4449  -25.4159   11.0755 H         1 UNK         0.0583 
    133 H133      -53.2090  -23.8206   10.5446 H         1 UNK         0.1020 
    134 H134      -52.0675  -22.5184   10.3513 H         1 UNK         0.1020 
    135 H135      -54.1779  -25.0185    8.6380 H         1 UNK         0.0694 
    136 H136      -53.4215  -25.3805    7.1073 H         1 UNK         0.0694 
    137 H137      -49.6469  -23.6405    9.7955 H         1 UNK         0.2989 
    138 H138      -47.0591  -23.7983   10.5485 H         1 UNK         0.1055 
    139 H139      -46.6657  -26.8317   10.4475 H         1 UNK         0.0806 
    140 H140      -45.4030  -25.6348   10.1587 H         1 UNK         0.0806 
    141 H141      -46.1508  -25.7583   11.7417 H         1 UNK         0.0806 
    142 H142      -47.1044  -25.5872    8.3086 H         1 UNK         0.3061 
    143 H143      -48.7738  -24.9300    6.3495 H         1 UNK         0.0734 
    144 H144      -48.1191  -21.9747    5.8651 H         1 UNK         0.0832 
    145 H145      -48.7239  -23.1003    4.6490 H         1 UNK         0.0832 
    146 H146      -49.7214  -22.6748    6.0308 H         1 UNK         0.0832 
    147 H147      -46.7567  -25.4104    5.6395 H         1 UNK         0.3156 
    148 H148      -43.8830  -23.7951    4.8533 H         1 UNK         0.0589 
    149 H149      -42.4882  -25.1801    6.4099 H         1 UNK         0.0808 
    150 H150      -43.1323  -23.7569    7.2098 H         1 UNK         0.0808 
    151 H151      -43.8590  -25.3261    7.5116 H         1 UNK         0.0808 
    152 H152      -44.6495  -26.5605    5.5032 H         1 UNK         0.3098 
    153 H153      -46.1166  -27.2160    2.3846 H         1 UNK         0.0720 
    154 H154      -43.7225  -27.3948    1.6875 H         1 UNK         0.0791 
    155 H155      -44.3839  -28.9702    2.0874 H         1 UNK         0.0791 
    156 H156      -43.3148  -28.1458    3.2237 H         1 UNK         0.0791 
    157 H157      -45.2972  -28.9576    4.4932 H         1 UNK         0.3028 
@<TRIPOS>BOND
     1    1    2 1    
     2    1   82 1    
     3    1   83 1    
     4    1   84 1    
     5    2    3 2    
     6    2    4 am   BACKBONE|DICT|INTERRES
     7    4    5 1    
     8    4   85 1    
     9    5    6 1    
    10    5   80 1    
    11    5   86 1    
    12    6    7 1    
    13    6   87 1    
    14    6   88 1    
    15    7    8 1    
    16    8    9 1    
    17    8   89 1    
    18    8   90 1    
    19    9   10 ar   
    20    9   14 ar   
    21   10   11 ar   
    22   10   91 1    
    23   11   12 ar   
    24   11   58 1    
    25   12   13 ar   
    26   12   92 1    
    27   13   14 ar   
    28   13   15 1    
    29   14   93 1    
    30   15   16 1    
    31   15   94 1    
    32   15   95 1    
    33   16   17 1    
    34   17   18 1    
    35   17   96 1    
    36   17   97 1    
    37   18   19 1    
    38   18   22 1    
    39   18   98 1    
    40   19   20 am   BACKBONE|DICT|INTERRES
    41   19   21 2    
    42   20   99 1    
    43   20  100 1    
    44   22   23 am   BACKBONE|DICT|INTERRES
    45   22  101 1    
    46   23   24 2    
    47   23   25 1    
    48   25   26 1    
    49   25   27 1    
    50   25  102 1    
    51   26  103 1    
    52   26  104 1    
    53   26  105 1    
    54   27   28 am   BACKBONE|DICT|INTERRES
    55   27  106 1    
    56   28   29 2    
    57   28   30 1    
    58   30   31 1    
    59   30   32 1    
    60   30  107 1    
    61   31  108 1    
    62   31  109 1    
    63   31  110 1    
    64   32   33 am   BACKBONE|DICT|INTERRES
    65   32  111 1    
    66   33   34 2    
    67   33   35 1    
    68   35   36 1    
    69   35   37 1    
    70   35  112 1    
    71   36  113 1    
    72   36  114 1    
    73   36  115 1    
    74   37   38 am   BACKBONE|DICT|INTERRES
    75   37  116 1    
    76   38   39 2    
    77   38   40 1    
    78   40   41 1    
    79   40   42 1    
    80   40  117 1    
    81   41  118 1    
    82   41  119 1    
    83   41  120 1    
    84   42   43 am   BACKBONE|DICT|INTERRES
    85   42  121 1    
    86   43   44 2    
    87   43   45 1    
    88   45   46 1    
    89   45   47 1    
    90   45  122 1    
    91   46  123 1    
    92   46  124 1    
    93   46  125 1    
    94   47   48 am   BACKBONE|DICT|INTERRES
    95   47  126 1    
    96   48   49 2    
    97   48   50 1    
    98   50   51 1    
    99   50   52 1    
   100   50  127 1    
   101   51  128 1    
   102   51  129 1    
   103   51  130 1    
   104   52   53 am   BACKBONE|DICT|INTERRES
   105   52  131 1    
   106   53   54 2    
   107   53   55 1    
   108   55   56 1    
   109   55   59 1    
   110   55  132 1    
   111   56   57 1    
   112   56  133 1    
   113   56  134 1    
   114   57   58 1    
   115   58  135 1    
   116   58  136 1    
   117   59   60 am   BACKBONE|DICT|INTERRES
   118   59  137 1    
   119   60   61 2    
   120   60   62 1    
   121   62   63 1    
   122   62   64 1    
   123   62  138 1    
   124   63  139 1    
   125   63  140 1    
   126   63  141 1    
   127   64   65 am   BACKBONE|DICT|INTERRES
   128   64  142 1    
   129   65   66 2    
   130   65   67 1    
   131   67   68 1    
   132   67   69 1    
   133   67  143 1    
   134   68  144 1    
   135   68  145 1    
   136   68  146 1    
   137   69   70 am   BACKBONE|DICT|INTERRES
   138   69  147 1    
   139   70   71 2    
   140   70   72 1    
   141   72   73 1    
   142   72   74 1    
   143   72  148 1    
   144   73  149 1    
   145   73  150 1    
   146   73  151 1    
   147   74   75 am   BACKBONE|DICT|INTERRES
   148   74  152 1    
   149   75   76 2    
   150   75   77 1    
   151   77   78 1    
   152   77   79 1    
   153   77  153 1    
   154   78  154 1    
   155   78  155 1    
   156   78  156 1    
   157   79   80 am   BACKBONE|DICT|INTERRES
   158   79  157 1    
   159   80   81 2    
@<TRIPOS>SUBSTRUCTURE
     1 UNK         1 GROUP             0       ****    0 ROOT    
