@<TRIPOS>MOLECULE
3R207
157   159    1
SMALL
USER_CHARGES


@<TRIPOS>ATOM
      1 CA        -48.8072  -24.7100   11.2965 C.3       0 UNK        -0.1975 
      2 C         -48.7357  -26.2151   11.1174 C.2       0 UNK         0.4852 
      3 O         -48.0650  -26.8802   11.9079 O.2       0 UNK        -0.5216 
      4 N         -49.3885  -26.7599   10.0800 N.am      1 UNK        -0.4461 
      5 CA        -49.3028  -28.1803    9.7197 C.3       1 UNK         0.0864 
      6 C6        -50.3824  -28.6486    8.7128 C.3       14 UNK        -0.0898 
      7 S7        -50.5893  -27.6146    7.2220 S.3       14 UNK        -0.2598 
      8 C8        -52.3393  -27.9305    6.8219 C.3       14 UNK         0.0286 
      9 C9        -53.2635  -26.8891    7.4379 C.ar      14 UNK        -0.0844 
     10 C10       -53.7286  -25.8238    6.6627 C.ar      14 UNK        -0.0881 
     11 C11       -54.5800  -24.8613    7.2125 C.ar      14 UNK        -0.0643 
     12 C12       -54.9757  -24.9731    8.5506 C.ar      14 UNK        -0.0930 
     13 C13       -54.4988  -26.0229    9.3423 C.ar      14 UNK        -0.0827 
     14 C14       -53.6580  -26.9838    8.7754 C.ar      14 UNK        -0.1249 
     15 C15       -54.8431  -26.1005   10.8218 C.3       14 UNK         0.0141 
     16 S16       -56.0769  -27.3883   11.1674 S.3       14 UNK        -0.2313 
     17 C17       -56.2097  -27.2280   12.9826 C.3       14 UNK        -0.0915 
     18 CA        -56.7188  -28.5104   13.6942 C.3       13 UNK         0.0968 
     19 C         -58.2269  -28.7823   13.4117 C.2       13 UNK         0.5732 
     20 N         -58.5989  -29.8877   12.7768 N.am      13 UNK        -0.7310 
     21 O         -59.0758  -27.9786   13.7906 O.2       13 UNK        -0.5035 
     22 N         -55.8138  -29.6480   13.4648 N.am      13 UNK        -0.4233 
     23 C         -55.7571  -30.7550   14.2187 C.2       13 UNK         0.4989 
     24 O         -56.4635  -30.9493   15.2084 O.2       13 UNK        -0.4996 
     25 CA        -54.7356  -31.8313   13.8035 C.3       12 UNK         0.0216 
     26 CB        -55.3976  -32.8757   12.8893 C.3       12 UNK        -0.1964 
     27 N         -53.5516  -31.2788   13.1357 N.am      12 UNK        -0.4276 
     28 C         -52.6151  -30.5466   13.7524 C.2       12 UNK         0.5020 
     29 O         -52.6111  -30.3095   14.9639 O.2       12 UNK        -0.5489 
     30 CA        -51.5400  -29.9251   12.8532 C.3       11 UNK         0.0294 
     31 CB        -52.1349  -28.7085   12.1188 C.3       11 UNK        -0.2019 
     32 N         -50.4312  -29.4881   13.6966 N.am      11 UNK        -0.4493 
     33 C         -49.1284  -29.6944   13.4711 C.2       11 UNK         0.4932 
     34 O         -48.6750  -30.2412   12.4627 O.2       11 UNK        -0.5029 
     35 CA        -48.1814  -29.1520   14.5504 C.3       10 UNK         0.0280 
     36 CB        -46.6905  -29.2904   14.1924 C.3       10 UNK        -0.1976 
     37 N         -48.5080  -27.7498   14.7842 N.am      10 UNK        -0.4242 
     38 C         -48.4046  -27.1106   15.9540 C.2       10 UNK         0.5072 
     39 O         -47.9604  -27.6188   16.9845 O.2       10 UNK        -0.5224 
     40 CA        -48.9113  -25.6596   15.9796 C.3       9 UNK         0.0343 
     41 CB        -47.9063  -24.7187   15.2938 C.3       9 UNK        -0.2003 
     42 N         -50.2374  -25.5204   15.3655 N.am      9 UNK        -0.4272 
     43 C         -51.3717  -26.0144   15.8871 C.2       9 UNK         0.4988 
     44 O         -51.4061  -26.6448   16.9447 O.2       9 UNK        -0.5108 
     45 CA        -52.6890  -25.7484   15.1264 C.3       8 UNK         0.0248 
     46 CB        -53.9144  -25.7493   16.0603 C.3       8 UNK        -0.2001 
     47 N         -52.6720  -24.4927   14.3686 N.am      8 UNK        -0.4140 
     48 C         -52.2229  -24.3657   13.1161 C.2       8 UNK         0.5028 
     49 O         -51.7438  -25.2956   12.4656 O.2       8 UNK        -0.5428 
     50 CA        -52.2738  -22.9629   12.5045 C.3       7 UNK         0.0264 
     51 CB        -51.0998  -22.1009   13.0123 C.3       7 UNK        -0.1988 
     52 N         -52.2275  -23.0962   11.0506 N.am      7 UNK        -0.4454 
     53 C         -52.5302  -22.1410   10.1663 C.2       7 UNK         0.5027 
     54 O         -52.8432  -20.9906   10.4797 O.2       7 UNK        -0.5083 
     55 CA        -52.4512  -22.5287    8.6801 C.3       6 UNK         0.0844 
     56 C56       -53.5359  -21.7982    7.8461 C.3       14 UNK        -0.0967 
     57 S57       -53.6835  -22.4640    6.1551 S.3       14 UNK        -0.2604 
     58 C58       -55.0278  -23.6796    6.3648 C.3       14 UNK         0.0134 
     59 N         -51.0944  -22.2595    8.2038 N.am      6 UNK        -0.4116 
     60 C         -50.1018  -23.1566    8.2217 C.2       5 UNK         0.5034 
     61 O         -50.2488  -24.3421    8.5326 O.2       5 UNK        -0.5045 
     62 CA        -48.6993  -22.6369    7.8761 C.3       5 UNK         0.0224 
     63 CB        -48.2041  -21.6139    8.9204 C.3       5 UNK        -0.1978 
     64 N         -47.7827  -23.7748    7.8059 N.am      5 UNK        -0.4737 
     65 C         -46.6038  -23.7934    7.1773 C.2       4 UNK         0.5027 
     66 O         -46.1084  -22.8081    6.6268 O.2       4 UNK        -0.5211 
     67 CA        -45.8785  -25.1513    7.1461 C.3       4 UNK         0.0297 
     68 CB        -44.5803  -25.1264    6.3102 C.3       4 UNK        -0.1993 
     69 N         -45.6291  -25.7104    8.4813 N.am      4 UNK        -0.4486 
     70 C         -44.8460  -25.2080    9.4523 C.2       3 UNK         0.4961 
     71 O         -44.2740  -24.1207    9.3717 O.2       3 UNK        -0.5105 
     72 CA        -44.6273  -26.0571   10.7267 C.3       3 UNK         0.0299 
     73 CB        -45.0506  -25.2965   11.9953 C.3       3 UNK        -0.1972 
     74 N         -45.3008  -27.3594   10.6893 N.am      3 UNK        -0.4305 
     75 C         -44.8277  -28.4411   10.0471 C.2       2 UNK         0.5006 
     76 O         -43.7135  -28.4875    9.5250 O.2       2 UNK        -0.5106 
     77 CA        -45.7577  -29.6663    9.9159 C.3       2 UNK         0.0296 
     78 CB        -45.3458  -30.7769   10.8941 C.3       2 UNK        -0.2002 
     79 N         -47.1807  -29.3533   10.0891 N.am      2 UNK        -0.4032 
     80 C         -47.8723  -28.5370    9.2801 C.2       1 UNK         0.5000 
     81 O         -47.3916  -28.0101    8.2743 O.2       1 UNK        -0.5238 
     82 H82       -49.7738  -24.3221   10.9915 H         1 UNK         0.0889 
     83 H83       -48.0302  -24.2276   10.7068 H         1 UNK         0.0889 
     84 H84       -48.6640  -24.4393   12.3393 H         1 UNK         0.0889 
     85 H85       -49.8991  -26.1644    9.4342 H         1 UNK         0.3028 
     86 H86       -49.4971  -28.7388   10.6331 H         1 UNK         0.0864 
     87 H87       -50.1884  -29.6742    8.3932 H         1 UNK         0.0720 
     88 H88       -51.3346  -28.6939    9.2354 H         1 UNK         0.0720 
     89 H89       -52.6284  -28.9306    7.1482 H         1 UNK         0.0814 
     90 H90       -52.4489  -27.9295    5.7364 H         1 UNK         0.0814 
     91 H91       -53.4141  -25.7300    5.6321 H         1 UNK         0.1469 
     92 H92       -55.6233  -24.2237    8.9845 H         1 UNK         0.1381 
     93 H93       -53.3078  -27.8001    9.3866 H         1 UNK         0.1206 
     94 H94       -53.9359  -26.3160   11.3863 H         1 UNK         0.0813 
     95 H95       -55.2112  -25.1392   11.1834 H         1 UNK         0.0813 
     96 H96       -56.8527  -26.3761   13.2112 H         1 UNK         0.0638 
     97 H97       -55.2272  -26.9694   13.3802 H         1 UNK         0.0638 
     98 H98       -56.6735  -28.3008   14.7647 H         1 UNK         0.0568 
     99 H99       -57.9115  -30.5503   12.4588 H         1 UNK         0.3450 
    100 H100      -59.5783  -30.0525   12.6065 H         1 UNK         0.3450 
    101 H101      -55.2218  -29.5788   12.6518 H         1 UNK         0.2987 
    102 H102      -54.4061  -32.3368   14.7141 H         1 UNK         0.0766 
    103 H103      -56.2710  -33.3179   13.3711 H         1 UNK         0.0798 
    104 H104      -54.7121  -33.6912   12.6577 H         1 UNK         0.0798 
    105 H105      -55.7313  -32.4391   11.9471 H         1 UNK         0.0798 
    106 H106      -53.4757  -31.4346   12.1403 H         1 UNK         0.3198 
    107 H107      -51.1954  -30.6701   12.1325 H         1 UNK         0.0843 
    108 H108      -52.7455  -28.0940   12.7788 H         1 UNK         0.0831 
    109 H109      -52.7771  -29.0279   11.2988 H         1 UNK         0.0831 
    110 H110      -51.3694  -28.0557   11.7053 H         1 UNK         0.0831 
    111 H111      -50.7173  -29.1213   14.5958 H         1 UNK         0.3133 
    112 H112      -48.3755  -29.7292   15.4568 H         1 UNK         0.0566 
    113 H113      -46.4446  -28.7365   13.2860 H         1 UNK         0.0814 
    114 H114      -46.4265  -30.3361   14.0326 H         1 UNK         0.0814 
    115 H115      -46.0537  -28.9163   14.9940 H         1 UNK         0.0814 
    116 H116      -48.8330  -27.2455   13.9668 H         1 UNK         0.3091 
    117 H117      -48.9980  -25.3527   17.0244 H         1 UNK         0.0702 
    118 H118      -48.2776  -23.6946   15.2505 H         1 UNK         0.0785 
    119 H119      -47.6715  -25.0404   14.2797 H         1 UNK         0.0785 
    120 H120      -46.9650  -24.6979   15.8446 H         1 UNK         0.0785 
    121 H121      -50.2922  -25.0458   14.4761 H         1 UNK         0.2998 
    122 H122      -52.8157  -26.5795   14.4329 H         1 UNK         0.0697 
    123 H123      -54.8369  -25.5698   15.5080 H         1 UNK         0.0825 
    124 H124      -53.8320  -24.9853   16.8342 H         1 UNK         0.0825 
    125 H125      -54.0257  -26.7120   16.5615 H         1 UNK         0.0825 
    126 H126      -53.0079  -23.6724   14.8539 H         1 UNK         0.3029 
    127 H127      -53.2216  -22.4980   12.7846 H         1 UNK         0.0897 
    128 H128      -50.1356  -22.5064   12.7079 H         1 UNK         0.0792 
    129 H129      -51.0975  -22.0361   14.1011 H         1 UNK         0.0792 
    130 H130      -51.1616  -21.0801   12.6353 H         1 UNK         0.0792 
    131 H131      -51.9862  -24.0289   10.7323 H         1 UNK         0.3086 
    132 H132      -52.6429  -23.5996    8.6170 H         1 UNK         0.0583 
    133 H133      -54.5109  -21.8672    8.3325 H         1 UNK         0.1020 
    134 H134      -53.3159  -20.7311    7.7783 H         1 UNK         0.1020 
    135 H135      -55.9018  -23.1933    6.8009 H         1 UNK         0.0694 
    136 H136      -55.3369  -24.0370    5.3814 H         1 UNK         0.0694 
    137 H137      -50.8919  -21.3014    7.9593 H         1 UNK         0.2989 
    138 H138      -48.7491  -22.1643    6.8926 H         1 UNK         0.1055 
    139 H139      -47.1933  -21.2720    8.6974 H         1 UNK         0.0806 
    140 H140      -48.1981  -22.0293    9.9277 H         1 UNK         0.0806 
    141 H141      -48.8393  -20.7278    8.9401 H         1 UNK         0.0806 
    142 H142      -48.1689  -24.6358    8.1742 H         1 UNK         0.3061 
    143 H143      -46.5614  -25.8457    6.6538 H         1 UNK         0.0734 
    144 H144      -43.8457  -24.4314    6.7180 H         1 UNK         0.0832 
    145 H145      -44.1197  -26.1132    6.2641 H         1 UNK         0.0832 
    146 H146      -44.7842  -24.8160    5.2847 H         1 UNK         0.0832 
    147 H147      -46.0868  -26.6032    8.6437 H         1 UNK         0.3156 
    148 H148      -43.5520  -26.2317   10.8023 H         1 UNK         0.0589 
    149 H149      -44.8829  -25.8935   12.8920 H         1 UNK         0.0808 
    150 H150      -46.1011  -25.0164   11.9737 H         1 UNK         0.0808 
    151 H151      -44.4752  -24.3768   12.1081 H         1 UNK         0.0808 
    152 H152      -46.2261  -27.3988   11.1065 H         1 UNK         0.3098 
    153 H153      -45.6346  -30.0524    8.9018 H         1 UNK         0.0720 
    154 H154      -44.3222  -31.1019   10.7027 H         1 UNK         0.0791 
    155 H155      -45.9873  -31.6531   10.7974 H         1 UNK         0.0791 
    156 H156      -45.3882  -30.4409   11.9283 H         1 UNK         0.0791 
    157 H157      -47.6357  -29.7151   10.9254 H         1 UNK         0.3028 
@<TRIPOS>BOND
     1    1    2 1    
     2    1   82 1    
     3    1   83 1    
     4    1   84 1    
     5    2    3 2    
     6    2    4 am   BACKBONE|DICT|INTERRES
     7    4    5 1    
     8    4   85 1    
     9    5    6 1    
    10    5   80 1    
    11    5   86 1    
    12    6    7 1    
    13    6   87 1    
    14    6   88 1    
    15    7    8 1    
    16    8    9 1    
    17    8   89 1    
    18    8   90 1    
    19    9   10 ar   
    20    9   14 ar   
    21   10   11 ar   
    22   10   91 1    
    23   11   12 ar   
    24   11   58 1    
    25   12   13 ar   
    26   12   92 1    
    27   13   14 ar   
    28   13   15 1    
    29   14   93 1    
    30   15   16 1    
    31   15   94 1    
    32   15   95 1    
    33   16   17 1    
    34   17   18 1    
    35   17   96 1    
    36   17   97 1    
    37   18   19 1    
    38   18   22 1    
    39   18   98 1    
    40   19   20 am   BACKBONE|DICT|INTERRES
    41   19   21 2    
    42   20   99 1    
    43   20  100 1    
    44   22   23 am   BACKBONE|DICT|INTERRES
    45   22  101 1    
    46   23   24 2    
    47   23   25 1    
    48   25   26 1    
    49   25   27 1    
    50   25  102 1    
    51   26  103 1    
    52   26  104 1    
    53   26  105 1    
    54   27   28 am   BACKBONE|DICT|INTERRES
    55   27  106 1    
    56   28   29 2    
    57   28   30 1    
    58   30   31 1    
    59   30   32 1    
    60   30  107 1    
    61   31  108 1    
    62   31  109 1    
    63   31  110 1    
    64   32   33 am   BACKBONE|DICT|INTERRES
    65   32  111 1    
    66   33   34 2    
    67   33   35 1    
    68   35   36 1    
    69   35   37 1    
    70   35  112 1    
    71   36  113 1    
    72   36  114 1    
    73   36  115 1    
    74   37   38 am   BACKBONE|DICT|INTERRES
    75   37  116 1    
    76   38   39 2    
    77   38   40 1    
    78   40   41 1    
    79   40   42 1    
    80   40  117 1    
    81   41  118 1    
    82   41  119 1    
    83   41  120 1    
    84   42   43 am   BACKBONE|DICT|INTERRES
    85   42  121 1    
    86   43   44 2    
    87   43   45 1    
    88   45   46 1    
    89   45   47 1    
    90   45  122 1    
    91   46  123 1    
    92   46  124 1    
    93   46  125 1    
    94   47   48 am   BACKBONE|DICT|INTERRES
    95   47  126 1    
    96   48   49 2    
    97   48   50 1    
    98   50   51 1    
    99   50   52 1    
   100   50  127 1    
   101   51  128 1    
   102   51  129 1    
   103   51  130 1    
   104   52   53 am   BACKBONE|DICT|INTERRES
   105   52  131 1    
   106   53   54 2    
   107   53   55 1    
   108   55   56 1    
   109   55   59 1    
   110   55  132 1    
   111   56   57 1    
   112   56  133 1    
   113   56  134 1    
   114   57   58 1    
   115   58  135 1    
   116   58  136 1    
   117   59   60 am   BACKBONE|DICT|INTERRES
   118   59  137 1    
   119   60   61 2    
   120   60   62 1    
   121   62   63 1    
   122   62   64 1    
   123   62  138 1    
   124   63  139 1    
   125   63  140 1    
   126   63  141 1    
   127   64   65 am   BACKBONE|DICT|INTERRES
   128   64  142 1    
   129   65   66 2    
   130   65   67 1    
   131   67   68 1    
   132   67   69 1    
   133   67  143 1    
   134   68  144 1    
   135   68  145 1    
   136   68  146 1    
   137   69   70 am   BACKBONE|DICT|INTERRES
   138   69  147 1    
   139   70   71 2    
   140   70   72 1    
   141   72   73 1    
   142   72   74 1    
   143   72  148 1    
   144   73  149 1    
   145   73  150 1    
   146   73  151 1    
   147   74   75 am   BACKBONE|DICT|INTERRES
   148   74  152 1    
   149   75   76 2    
   150   75   77 1    
   151   77   78 1    
   152   77   79 1    
   153   77  153 1    
   154   78  154 1    
   155   78  155 1    
   156   78  156 1    
   157   79   80 am   BACKBONE|DICT|INTERRES
   158   79  157 1    
   159   80   81 2    
@<TRIPOS>SUBSTRUCTURE
     1 UNK         1 GROUP             0       ****    0 ROOT    
