@<TRIPOS>MOLECULE
3R207
157   159    1
SMALL
USER_CHARGES


@<TRIPOS>ATOM
      1 CA        -55.2077  -23.9505   10.3910 C.3       0 UNK        -0.1975 
      2 C         -53.9114  -23.9804    9.5963 C.2       0 UNK         0.4852 
      3 O         -53.5235  -22.9650    9.0189 O.2       0 UNK        -0.5216 
      4 N         -53.2205  -25.1306    9.5898 N.am      1 UNK        -0.4461 
      5 CA        -51.9629  -25.4286    8.8810 C.3       1 UNK         0.0864 
      6 C6        -52.0998  -25.2925    7.3420 C.3       14 UNK        -0.0898 
      7 S7        -50.8639  -26.2598    6.4085 S.3       14 UNK        -0.2598 
      8 C8        -51.7208  -27.8474    6.1450 C.3       14 UNK         0.0286 
      9 C9        -51.4116  -28.8602    7.2407 C.ar      14 UNK        -0.0844 
     10 C10       -50.2098  -29.5747    7.2059 C.ar      14 UNK        -0.0881 
     11 C11       -49.9263  -30.5438    8.1733 C.ar      14 UNK        -0.0643 
     12 C12       -50.8523  -30.7910    9.1890 C.ar      14 UNK        -0.0930 
     13 C13       -52.0582  -30.0839    9.2364 C.ar      14 UNK        -0.0827 
     14 C14       -52.3338  -29.1192    8.2605 C.ar      14 UNK        -0.1249 
     15 C15       -53.0504  -30.3559   10.3558 C.3       14 UNK         0.0141 
     16 S16       -54.3480  -31.5175    9.8332 S.3       14 UNK        -0.2313 
     17 C17       -55.1269  -31.9206   11.4348 C.3       14 UNK        -0.0915 
     18 CA        -56.4120  -31.0979   11.7147 C.3       13 UNK         0.0968 
     19 C         -57.1521  -31.6316   12.9774 C.2       13 UNK         0.5732 
     20 N         -57.2769  -30.8711   14.0601 N.am      13 UNK        -0.7310 
     21 O         -57.6322  -32.7628   12.9700 O.2       13 UNK        -0.5035 
     22 N         -56.1279  -29.6569   11.7534 N.am      13 UNK        -0.4233 
     23 C         -57.0347  -28.6899   11.5762 C.2       13 UNK         0.4989 
     24 O         -58.2047  -28.9031   11.2536 O.2       13 UNK        -0.4996 
     25 CA        -56.5485  -27.2400   11.7913 C.3       12 UNK         0.0216 
     26 CB        -57.6893  -26.3066   12.2496 C.3       12 UNK        -0.1964 
     27 N         -55.3924  -27.1026   12.6949 N.am      12 UNK        -0.4276 
     28 C         -55.2972  -27.5065   13.9714 C.2       12 UNK         0.5020 
     29 O         -56.1544  -28.1776   14.5473 O.2       12 UNK        -0.5489 
     30 CA        -54.0112  -27.1207   14.7267 C.3       11 UNK         0.0294 
     31 CB        -53.0173  -28.2944   14.7187 C.3       11 UNK        -0.2019 
     32 N         -53.3393  -25.9159   14.2200 N.am      11 UNK        -0.4493 
     33 C         -53.8482  -24.6742   14.2507 C.2       11 UNK         0.4932 
     34 O         -54.9824  -24.4040   14.6466 O.2       11 UNK        -0.5029 
     35 CA        -52.9030  -23.5605   13.7681 C.3       10 UNK         0.0280 
     36 CB        -53.5341  -22.1514   13.8172 C.3       10 UNK        -0.1976 
     37 N         -51.6259  -23.6247   14.4879 N.am      10 UNK        -0.4242 
     38 C         -51.3960  -23.3639   15.7861 C.2       10 UNK         0.5072 
     39 O         -52.2423  -22.8992   16.5510 O.2       10 UNK        -0.5224 
     40 CA        -50.0012  -23.7018   16.3593 C.3       9 UNK         0.0343 
     41 CB        -50.1230  -24.6844   17.5378 C.3       9 UNK        -0.2003 
     42 N         -49.0715  -24.2714   15.3811 N.am      9 UNK        -0.4272 
     43 C         -48.4122  -23.5828   14.4402 C.2       9 UNK         0.4988 
     44 O         -48.4586  -22.3577   14.3318 O.2       9 UNK        -0.5108 
     45 CA        -47.5791  -24.4003   13.4340 C.3       8 UNK         0.0248 
     46 CB        -46.1076  -24.4399   13.8750 C.3       8 UNK        -0.2001 
     47 N         -48.0418  -25.7744   13.1878 N.am      8 UNK        -0.4140 
     48 C         -49.2757  -26.1539   12.8192 C.2       8 UNK         0.5028 
     49 O         -50.2458  -25.3948   12.7797 O.2       8 UNK        -0.5428 
     50 CA        -49.4742  -27.6409   12.4956 C.3       7 UNK         0.0264 
     51 CB        -50.6629  -27.9117   11.5578 C.3       7 UNK        -0.1988 
     52 N         -48.2651  -28.2566   11.9435 N.am      7 UNK        -0.4454 
     53 C         -47.9265  -29.5391   12.1452 C.2       7 UNK         0.5027 
     54 O         -48.5939  -30.3079   12.8400 O.2       7 UNK        -0.5083 
     55 CA        -46.6348  -30.0842   11.4954 C.3       6 UNK         0.0844 
     56 C56       -46.9369  -31.1305   10.3863 C.3       14 UNK        -0.0967 
     57 S57       -47.2145  -30.4108    8.7266 S.3       14 UNK        -0.2604 
     58 C58       -48.6375  -31.3472    8.0900 C.3       14 UNK         0.0134 
     59 N         -45.7103  -29.0493   11.0296 N.am      6 UNK        -0.4116 
     60 C         -45.0241  -28.1870   11.7878 C.2       5 UNK         0.5034 
     61 O         -45.0520  -28.1755   13.0183 O.2       5 UNK        -0.5045 
     62 CA        -44.1907  -27.1330   11.0344 C.3       5 UNK         0.0224 
     63 CB        -42.7383  -27.6110   10.8782 C.3       5 UNK        -0.1978 
     64 N         -44.7276  -26.7697    9.7136 N.am      5 UNK        -0.4737 
     65 C         -45.9354  -26.2286    9.5026 C.2       4 UNK         0.5027 
     66 O         -46.7552  -26.0360   10.4005 O.2       4 UNK        -0.5211 
     67 CA        -46.2986  -25.9017    8.0497 C.3       4 UNK         0.0297 
     68 CB        -47.1386  -27.0322    7.4363 C.3       4 UNK        -0.1993 
     69 N         -47.0803  -24.6689    8.0075 N.am      4 UNK        -0.4486 
     70 C         -46.6546  -23.5132    7.4783 C.2       3 UNK         0.4961 
     71 O         -45.5411  -23.3660    6.9720 O.2       3 UNK        -0.5105 
     72 CA        -47.6203  -22.3116    7.4768 C.3       3 UNK         0.0299 
     73 CB        -48.2043  -22.1003    6.0700 C.3       3 UNK        -0.1972 
     74 N         -48.7232  -22.4390    8.4269 N.am      3 UNK        -0.4305 
     75 C         -48.6119  -22.3374    9.7577 C.2       2 UNK         0.5006 
     76 O         -47.5691  -22.0294   10.3352 O.2       2 UNK        -0.5106 
     77 CA        -49.8769  -22.6291   10.5864 C.3       2 UNK         0.0296 
     78 CB        -50.5263  -21.3186   11.0552 C.3       2 UNK        -0.2002 
     79 N         -50.8892  -23.4473    9.9083 N.am      2 UNK        -0.4032 
     80 C         -50.7205  -24.6893    9.4334 C.2       1 UNK         0.5000 
     81 O         -49.6310  -25.2595    9.4197 O.2       1 UNK        -0.5238 
     82 H82       -56.0131  -24.4130    9.8211 H         1 UNK         0.0889 
     83 H83       -55.4964  -22.9227   10.6108 H         1 UNK         0.0889 
     84 H84       -55.1033  -24.4735   11.3397 H         1 UNK         0.0889 
     85 H85       -53.6004  -25.9183   10.0914 H         1 UNK         0.3028 
     86 H86       -51.7867  -26.4826    9.0920 H         1 UNK         0.0864 
     87 H87       -52.0222  -24.2471    7.0381 H         1 UNK         0.0720 
     88 H88       -53.0932  -25.6120    7.0244 H         1 UNK         0.0720 
     89 H89       -51.3990  -28.2549    5.1855 H         1 UNK         0.0814 
     90 H90       -52.7964  -27.6917    6.0525 H         1 UNK         0.0814 
     91 H91       -49.4951  -29.3825    6.4171 H         1 UNK         0.1469 
     92 H92       -50.6371  -31.5391    9.9397 H         1 UNK         0.1381 
     93 H93       -53.2694  -28.5779    8.2908 H         1 UNK         0.1206 
     94 H94       -53.5038  -29.4183   10.6774 H         1 UNK         0.0813 
     95 H95       -52.5286  -30.7625   11.2235 H         1 UNK         0.0813 
     96 H96       -54.4043  -31.7938   12.2427 H         1 UNK         0.0638 
     97 H97       -55.3602  -32.9867   11.4088 H         1 UNK         0.0638 
     98 H98       -57.0948  -31.2727   10.8809 H         1 UNK         0.0568 
     99 H99       -56.8906  -29.9324   14.0979 H         1 UNK         0.3450 
    100 H100      -57.7644  -31.2393   14.8608 H         1 UNK         0.3450 
    101 H101      -55.2031  -29.3955   12.0526 H         1 UNK         0.2987 
    102 H102      -56.2156  -26.8961   10.8114 H         1 UNK         0.0766 
    103 H103      -58.1221  -26.6371   13.1946 H         1 UNK         0.0798 
    104 H104      -58.4950  -26.2758   11.5150 H         1 UNK         0.0798 
    105 H105      -57.3383  -25.2837   12.3851 H         1 UNK         0.0798 
    106 H106      -54.6061  -26.5843   12.3364 H         1 UNK         0.3198 
    107 H107      -54.2976  -26.9233   15.7621 H         1 UNK         0.0843 
    108 H108      -52.6908  -28.5468   13.7098 H         1 UNK         0.0831 
    109 H109      -53.4710  -29.1905   15.1450 H         1 UNK         0.0831 
    110 H110      -52.1315  -28.0710   15.3137 H         1 UNK         0.0831 
    111 H111      -52.3894  -26.0253   13.8900 H         1 UNK         0.3133 
    112 H112      -52.6698  -23.7762   12.7241 H         1 UNK         0.0566 
    113 H113      -54.3737  -22.0808   13.1249 H         1 UNK         0.0814 
    114 H114      -53.9163  -21.9073   14.8088 H         1 UNK         0.0814 
    115 H115      -52.8172  -21.3793   13.5417 H         1 UNK         0.0814 
    116 H116      -50.8754  -24.0619   13.9569 H         1 UNK         0.3091 
    117 H117      -49.5764  -22.7692   16.7362 H         1 UNK         0.0702 
    118 H118      -49.1500  -24.8945   17.9825 H         1 UNK         0.0785 
    119 H119      -50.5644  -25.6327   17.2282 H         1 UNK         0.0785 
    120 H120      -50.7535  -24.2750   18.3283 H         1 UNK         0.0785 
    121 H121      -48.9703  -25.2756   15.3869 H         1 UNK         0.2998 
    122 H122      -47.6225  -23.8786   12.4773 H         1 UNK         0.0697 
    123 H123      -45.9757  -25.0095   14.7958 H         1 UNK         0.0825 
    124 H124      -45.7245  -23.4341   14.0537 H         1 UNK         0.0825 
    125 H125      -45.4790  -24.8891   13.1073 H         1 UNK         0.0825 
    126 H126      -47.3256  -26.4862   13.2047 H         1 UNK         0.3029 
    127 H127      -49.7031  -28.0990   13.4602 H         1 UNK         0.0897 
    128 H128      -50.4171  -27.6538   10.5282 H         1 UNK         0.0792 
    129 H129      -51.5567  -27.3566   11.8411 H         1 UNK         0.0792 
    130 H130      -50.9192  -28.9685   11.5804 H         1 UNK         0.0792 
    131 H131      -47.6926  -27.6622   11.3491 H         1 UNK         0.3086 
    132 H132      -46.1185  -30.6160   12.2976 H         1 UNK         0.0583 
    133 H133      -46.0835  -31.8046   10.2979 H         1 UNK         0.1020 
    134 H134      -47.7745  -31.7716   10.6683 H         1 UNK         0.1020 
    135 H135      -48.4429  -31.5998    7.0467 H         1 UNK         0.0694 
    136 H136      -48.7356  -32.3001    8.6118 H         1 UNK         0.0694 
    137 H137      -45.6384  -28.9611   10.0260 H         1 UNK         0.2989 
    138 H138      -44.1872  -26.2292   11.6461 H         1 UNK         0.1055 
    139 H139      -42.3047  -27.8656   11.8466 H         1 UNK         0.0806 
    140 H140      -42.1093  -26.8361   10.4394 H         1 UNK         0.0806 
    141 H141      -42.6695  -28.4983   10.2474 H         1 UNK         0.0806 
    142 H142      -44.1150  -26.9122    8.9225 H         1 UNK         0.3061 
    143 H143      -45.3809  -25.7992    7.4669 H         1 UNK         0.0734 
    144 H144      -47.4901  -26.7710    6.4381 H         1 UNK         0.0832 
    145 H145      -46.5488  -27.9431    7.3403 H         1 UNK         0.0832 
    146 H146      -48.0147  -27.2643    8.0453 H         1 UNK         0.0832 
    147 H147      -47.9738  -24.7117    8.4939 H         1 UNK         0.3156 
    148 H148      -47.0412  -21.4250    7.7433 H         1 UNK         0.0589 
    149 H149      -48.8023  -22.9545    5.7490 H         1 UNK         0.0808 
    150 H150      -48.8353  -21.2122    6.0297 H         1 UNK         0.0808 
    151 H151      -47.4105  -21.9643    5.3339 H         1 UNK         0.0808 
    152 H152      -49.6219  -22.6966    8.0470 H         1 UNK         0.3098 
    153 H153      -49.5627  -23.1839   11.4697 H         1 UNK         0.0720 
    154 H154      -51.3764  -21.5121   11.7072 H         1 UNK         0.0791 
    155 H155      -50.8764  -20.7181   10.2147 H         1 UNK         0.0791 
    156 H156      -49.8174  -20.7125   11.6214 H         1 UNK         0.0791 
    157 H157      -51.8152  -23.0426    9.7969 H         1 UNK         0.3028 
@<TRIPOS>BOND
     1    1    2 1    
     2    1   82 1    
     3    1   83 1    
     4    1   84 1    
     5    2    3 2    
     6    2    4 am   BACKBONE|DICT|INTERRES
     7    4    5 1    
     8    4   85 1    
     9    5    6 1    
    10    5   80 1    
    11    5   86 1    
    12    6    7 1    
    13    6   87 1    
    14    6   88 1    
    15    7    8 1    
    16    8    9 1    
    17    8   89 1    
    18    8   90 1    
    19    9   10 ar   
    20    9   14 ar   
    21   10   11 ar   
    22   10   91 1    
    23   11   12 ar   
    24   11   58 1    
    25   12   13 ar   
    26   12   92 1    
    27   13   14 ar   
    28   13   15 1    
    29   14   93 1    
    30   15   16 1    
    31   15   94 1    
    32   15   95 1    
    33   16   17 1    
    34   17   18 1    
    35   17   96 1    
    36   17   97 1    
    37   18   19 1    
    38   18   22 1    
    39   18   98 1    
    40   19   20 am   BACKBONE|DICT|INTERRES
    41   19   21 2    
    42   20   99 1    
    43   20  100 1    
    44   22   23 am   BACKBONE|DICT|INTERRES
    45   22  101 1    
    46   23   24 2    
    47   23   25 1    
    48   25   26 1    
    49   25   27 1    
    50   25  102 1    
    51   26  103 1    
    52   26  104 1    
    53   26  105 1    
    54   27   28 am   BACKBONE|DICT|INTERRES
    55   27  106 1    
    56   28   29 2    
    57   28   30 1    
    58   30   31 1    
    59   30   32 1    
    60   30  107 1    
    61   31  108 1    
    62   31  109 1    
    63   31  110 1    
    64   32   33 am   BACKBONE|DICT|INTERRES
    65   32  111 1    
    66   33   34 2    
    67   33   35 1    
    68   35   36 1    
    69   35   37 1    
    70   35  112 1    
    71   36  113 1    
    72   36  114 1    
    73   36  115 1    
    74   37   38 am   BACKBONE|DICT|INTERRES
    75   37  116 1    
    76   38   39 2    
    77   38   40 1    
    78   40   41 1    
    79   40   42 1    
    80   40  117 1    
    81   41  118 1    
    82   41  119 1    
    83   41  120 1    
    84   42   43 am   BACKBONE|DICT|INTERRES
    85   42  121 1    
    86   43   44 2    
    87   43   45 1    
    88   45   46 1    
    89   45   47 1    
    90   45  122 1    
    91   46  123 1    
    92   46  124 1    
    93   46  125 1    
    94   47   48 am   BACKBONE|DICT|INTERRES
    95   47  126 1    
    96   48   49 2    
    97   48   50 1    
    98   50   51 1    
    99   50   52 1    
   100   50  127 1    
   101   51  128 1    
   102   51  129 1    
   103   51  130 1    
   104   52   53 am   BACKBONE|DICT|INTERRES
   105   52  131 1    
   106   53   54 2    
   107   53   55 1    
   108   55   56 1    
   109   55   59 1    
   110   55  132 1    
   111   56   57 1    
   112   56  133 1    
   113   56  134 1    
   114   57   58 1    
   115   58  135 1    
   116   58  136 1    
   117   59   60 am   BACKBONE|DICT|INTERRES
   118   59  137 1    
   119   60   61 2    
   120   60   62 1    
   121   62   63 1    
   122   62   64 1    
   123   62  138 1    
   124   63  139 1    
   125   63  140 1    
   126   63  141 1    
   127   64   65 am   BACKBONE|DICT|INTERRES
   128   64  142 1    
   129   65   66 2    
   130   65   67 1    
   131   67   68 1    
   132   67   69 1    
   133   67  143 1    
   134   68  144 1    
   135   68  145 1    
   136   68  146 1    
   137   69   70 am   BACKBONE|DICT|INTERRES
   138   69  147 1    
   139   70   71 2    
   140   70   72 1    
   141   72   73 1    
   142   72   74 1    
   143   72  148 1    
   144   73  149 1    
   145   73  150 1    
   146   73  151 1    
   147   74   75 am   BACKBONE|DICT|INTERRES
   148   74  152 1    
   149   75   76 2    
   150   75   77 1    
   151   77   78 1    
   152   77   79 1    
   153   77  153 1    
   154   78  154 1    
   155   78  155 1    
   156   78  156 1    
   157   79   80 am   BACKBONE|DICT|INTERRES
   158   79  157 1    
   159   80   81 2    
@<TRIPOS>SUBSTRUCTURE
     1 UNK         1 GROUP             0       ****    0 ROOT    
