@<TRIPOS>MOLECULE
3R207
157   159    1
SMALL
USER_CHARGES


@<TRIPOS>ATOM
      1 CA        -49.6425  -30.1093    8.7784 C.3       0 UNK        -0.1975 
      2 C         -49.2846  -30.3239    7.3168 C.2       0 UNK         0.4852 
      3 O         -49.1493  -31.4645    6.8744 O.2       0 UNK        -0.5216 
      4 N         -49.1125  -29.2300    6.5684 N.am      1 UNK        -0.4461 
      5 CA        -48.7922  -29.2022    5.1365 C.3       1 UNK         0.0864 
      6 C6        -49.6453  -28.1370    4.3942 C.3       14 UNK        -0.0898 
      7 S7        -49.5609  -26.4583    5.1252 S.3       14 UNK        -0.2598 
      8 C8        -51.2998  -25.9227    5.0501 C.3       14 UNK         0.0286 
      9 C9        -52.0717  -26.1487    6.3476 C.ar      14 UNK        -0.0844 
     10 C10       -52.6808  -25.0615    6.9847 C.ar      14 UNK        -0.0881 
     11 C11       -53.4979  -25.2545    8.1022 C.ar      14 UNK        -0.0643 
     12 C12       -53.6869  -26.5460    8.5960 C.ar      14 UNK        -0.0930 
     13 C13       -53.0523  -27.6388    8.0000 C.ar      14 UNK        -0.0827 
     14 C14       -52.2521  -27.4351    6.8707 C.ar      14 UNK        -0.1249 
     15 C15       -53.2988  -29.0426    8.5354 C.3       14 UNK         0.0141 
     16 S16       -53.0077  -29.1611   10.3334 S.3       14 UNK        -0.2313 
     17 C17       -54.3197  -30.3339   10.8058 C.3       14 UNK        -0.0915 
     18 CA        -55.6304  -29.6058   11.2076 C.3       13 UNK         0.0968 
     19 C         -56.8251  -30.5997   11.2814 C.2       13 UNK         0.5732 
     20 N         -57.4464  -30.8163   12.4355 N.am      13 UNK        -0.7310 
     21 O         -57.2057  -31.1761   10.2653 O.2       13 UNK        -0.5035 
     22 N         -55.4540  -28.8134   12.4339 N.am      13 UNK        -0.4233 
     23 C         -56.1014  -27.6815   12.7270 C.2       13 UNK         0.4989 
     24 O         -56.8420  -27.0983   11.9353 O.2       13 UNK        -0.4996 
     25 CA        -55.9002  -27.0751   14.1331 C.3       12 UNK         0.0216 
     26 CB        -57.0877  -27.4270   15.0502 C.3       12 UNK        -0.1964 
     27 N         -54.6191  -27.3824   14.7931 N.am      12 UNK        -0.4276 
     28 C         -54.1260  -28.5651   15.1874 C.2       12 UNK         0.5020 
     29 O         -54.7170  -29.6349   15.0367 O.2       12 UNK        -0.5489 
     30 CA        -52.7094  -28.5752   15.7852 C.3       11 UNK         0.0294 
     31 CB        -51.7428  -29.2912   14.8266 C.3       11 UNK        -0.2019 
     32 N         -52.1796  -27.2384   16.0716 N.am      11 UNK        -0.4493 
     33 C         -52.4374  -26.5304   17.1809 C.2       11 UNK         0.4932 
     34 O         -53.2331  -26.8947   18.0477 O.2       11 UNK        -0.5029 
     35 CA        -51.6689  -25.1999   17.3441 C.3       10 UNK         0.0280 
     36 CB        -51.6434  -24.6926   18.8015 C.3       10 UNK        -0.1976 
     37 N         -50.3128  -25.2522   16.7796 N.am      10 UNK        -0.4242 
     38 C         -49.3189  -26.0859   17.1295 C.2       10 UNK         0.5072 
     39 O         -49.3760  -26.8558   18.0894 O.2       10 UNK        -0.5224 
     40 CA        -48.0546  -26.0983   16.2525 C.3       9 UNK         0.0343 
     41 CB        -47.8718  -27.4753   15.5890 C.3       9 UNK        -0.2003 
     42 N         -48.0758  -25.0734   15.2026 N.am      9 UNK        -0.4272 
     43 C         -47.1177  -24.1535   15.0222 C.2       9 UNK         0.4988 
     44 O         -46.1173  -24.0546   15.7338 O.2       9 UNK        -0.5108 
     45 CA        -47.2829  -23.1767   13.8452 C.3       8 UNK         0.0248 
     46 CB        -46.5560  -23.7026   12.5953 C.3       8 UNK        -0.2001 
     47 N         -48.6748  -22.8643   13.5088 N.am      8 UNK        -0.4140 
     48 C         -49.4912  -22.1258   14.2760 C.2       8 UNK         0.5028 
     49 O         -49.1921  -21.7180   15.3982 O.2       8 UNK        -0.5428 
     50 CA        -50.8700  -21.7775   13.7007 C.3       7 UNK         0.0264 
     51 CB        -50.7568  -20.6057   12.7114 C.3       7 UNK        -0.1988 
     52 N         -51.4605  -22.9243   13.0158 N.am      7 UNK        -0.4454 
     53 C         -52.5128  -23.6264   13.4565 C.2       7 UNK         0.5027 
     54 O         -53.1262  -23.3759   14.4941 O.2       7 UNK        -0.5083 
     55 CA        -52.9472  -24.8405   12.6057 C.3       6 UNK         0.0844 
     56 C56       -54.0007  -24.4314   11.5471 C.3       14 UNK        -0.0967 
     57 S57       -53.3230  -23.4217   10.1765 S.3       14 UNK        -0.2604 
     58 C58       -54.2197  -24.0756    8.7371 C.3       14 UNK         0.0134 
     59 N         -51.8219  -25.5708   12.0183 N.am      6 UNK        -0.4116 
     60 C         -50.7752  -26.0671   12.6915 C.2       5 UNK         0.5034 
     61 O         -50.6985  -26.0963   13.9200 O.2       5 UNK        -0.5045 
     62 CA        -49.5674  -26.5414   11.8700 C.3       5 UNK         0.0224 
     63 CB        -49.5141  -28.0733   11.8024 C.3       5 UNK        -0.1978 
     64 N         -49.4863  -25.9887   10.5139 N.am      5 UNK        -0.4737 
     65 C         -49.4387  -24.6929   10.1784 C.2       4 UNK         0.5027 
     66 O         -49.5413  -23.7723   10.9927 O.2       4 UNK        -0.5211 
     67 CA        -49.1920  -24.3957    8.6896 C.3       4 UNK         0.0297 
     68 CB        -49.4581  -22.9223    8.3346 C.3       4 UNK        -0.1993 
     69 N         -47.8192  -24.7491    8.3171 N.am      4 UNK        -0.4486 
     70 C         -47.3782  -26.0014    8.1494 C.2       3 UNK         0.4961 
     71 O         -48.1043  -27.0009    8.2292 O.2       3 UNK        -0.5105 
     72 CA        -45.8777  -26.1773    7.8859 C.3       3 UNK         0.0299 
     73 CB        -45.0619  -26.0266    9.1823 C.3       3 UNK        -0.1972 
     74 N         -45.7160  -27.5181    7.3489 N.am      3 UNK        -0.4305 
     75 C         -44.7715  -27.9656    6.5168 C.2       2 UNK         0.5006 
     76 O         -43.7685  -27.3268    6.1971 O.2       2 UNK        -0.5106 
     77 CA        -45.0203  -29.3632    5.9141 C.3       2 UNK         0.0296 
     78 CB        -44.3577  -30.4508    6.7749 C.3       2 UNK        -0.2002 
     79 N         -46.4551  -29.6500    5.7824 N.am      2 UNK        -0.4032 
     80 C         -47.2708  -29.0348    4.9111 C.2       1 UNK         0.5000 
     81 O         -46.8533  -28.3324    3.9876 O.2       1 UNK        -0.5238 
     82 H82       -49.9768  -29.0875    8.9584 H         1 UNK         0.0889 
     83 H83       -48.7785  -30.3062    9.4122 H         1 UNK         0.0889 
     84 H84       -50.4465  -30.7822    9.0754 H         1 UNK         0.0889 
     85 H85       -49.1531  -28.3153    7.0094 H         1 UNK         0.3028 
     86 H86       -49.0439  -30.1685    4.6943 H         1 UNK         0.0864 
     87 H87       -49.3638  -28.0726    3.3416 H         1 UNK         0.0720 
     88 H88       -50.6830  -28.4707    4.3854 H         1 UNK         0.0720 
     89 H89       -51.8149  -26.4246    4.2302 H         1 UNK         0.0814 
     90 H90       -51.3024  -24.8628    4.7919 H         1 UNK         0.0814 
     91 H91       -52.5534  -24.0638    6.5872 H         1 UNK         0.1469 
     92 H92       -54.3421  -26.7123    9.4385 H         1 UNK         0.1381 
     93 H93       -51.7965  -28.2829    6.3810 H         1 UNK         0.1206 
     94 H94       -52.6683  -29.7739    8.0278 H         1 UNK         0.0813 
     95 H95       -54.3307  -29.3104    8.3047 H         1 UNK         0.0813 
     96 H96       -53.9548  -30.9440   11.6339 H         1 UNK         0.0638 
     97 H97       -54.4835  -31.0229    9.9749 H         1 UNK         0.0638 
     98 H98       -55.8813  -28.9209   10.3954 H         1 UNK         0.0568 
     99 H99       -57.1337  -30.3629   13.2790 H         1 UNK         0.3450 
    100 H100      -58.2223  -31.4586   12.4642 H         1 UNK         0.3450 
    101 H101      -54.9367  -29.2578   13.1860 H         1 UNK         0.2987 
    102 H102      -55.9058  -25.9924   13.9964 H         1 UNK         0.0766 
    103 H103      -57.0051  -26.9254   16.0145 H         1 UNK         0.0798 
    104 H104      -57.1573  -28.4991   15.2363 H         1 UNK         0.0798 
    105 H105      -58.0326  -27.1145   14.6034 H         1 UNK         0.0798 
    106 H106      -54.0268  -26.5846   14.9724 H         1 UNK         0.3198 
    107 H107      -52.7516  -29.1436   16.7170 H         1 UNK         0.0843 
    108 H108      -52.0485  -30.3257   14.6643 H         1 UNK         0.0831 
    109 H109      -50.7285  -29.3140   15.2253 H         1 UNK         0.0831 
    110 H110      -51.7131  -28.8072   13.8500 H         1 UNK         0.0831 
    111 H111      -51.5323  -26.8493   15.3882 H         1 UNK         0.3133 
    112 H112      -52.2138  -24.4632   16.7539 H         1 UNK         0.0566 
    113 H113      -51.1027  -23.7498   18.8836 H         1 UNK         0.0814 
    114 H114      -52.6542  -24.5180   19.1722 H         1 UNK         0.0814 
    115 H115      -51.1716  -25.4102   19.4734 H         1 UNK         0.0814 
    116 H116      -50.1592  -24.6584   15.9788 H         1 UNK         0.3091 
    117 H117      -47.2148  -25.9351   16.9308 H         1 UNK         0.0702 
    118 H118      -46.9620  -27.5097   14.9897 H         1 UNK         0.0785 
    119 H119      -48.7115  -27.7225   14.9402 H         1 UNK         0.0785 
    120 H120      -47.7958  -28.2653   16.3374 H         1 UNK         0.0785 
    121 H121      -48.8593  -25.1029   14.5635 H         1 UNK         0.2998 
    122 H122      -46.8015  -22.2407   14.1372 H         1 UNK         0.0697 
    123 H123      -46.9769  -24.6423   12.2406 H         1 UNK         0.0825 
    124 H124      -45.5001  -23.8797   12.8046 H         1 UNK         0.0825 
    125 H125      -46.6063  -22.9852   11.7759 H         1 UNK         0.0825 
    126 H126      -48.9912  -23.1476   12.5825 H         1 UNK         0.3029 
    127 H127      -51.5044  -21.4594   14.5311 H         1 UNK         0.0897 
    128 H128      -51.7379  -20.3078   12.3409 H         1 UNK         0.0792 
    129 H129      -50.3109  -19.7319   13.1886 H         1 UNK         0.0792 
    130 H130      -50.1390  -20.8603   11.8489 H         1 UNK         0.0792 
    131 H131      -51.0078  -23.2199   12.1548 H         1 UNK         0.3086 
    132 H132      -53.4287  -25.5348   13.2914 H         1 UNK         0.0583 
    133 H133      -54.8179  -23.8763   12.0128 H         1 UNK         0.1020 
    134 H134      -54.4673  -25.3302   11.1477 H         1 UNK         0.1020 
    135 H135      -55.2338  -24.3590    9.0234 H         1 UNK         0.0694 
    136 H136      -54.3296  -23.2721    8.0071 H         1 UNK         0.0694 
    137 H137      -51.7776  -25.5762   11.0094 H         1 UNK         0.2989 
    138 H138      -48.6784  -26.2061   12.4047 H         1 UNK         0.1055 
    139 H139      -49.4963  -28.5126   12.7999 H         1 UNK         0.0806 
    140 H140      -48.6171  -28.4164   11.2867 H         1 UNK         0.0806 
    141 H141      -50.3788  -28.4829   11.2837 H         1 UNK         0.0806 
    142 H142      -49.3088  -26.6501    9.7636 H         1 UNK         0.3061 
    143 H143      -49.8857  -25.0086    8.1096 H         1 UNK         0.0734 
    144 H144      -50.4784  -22.6396    8.5986 H         1 UNK         0.0832 
    145 H145      -48.7856  -22.2475    8.8657 H         1 UNK         0.0832 
    146 H146      -49.3406  -22.7453    7.2655 H         1 UNK         0.0832 
    147 H147      -47.1571  -23.9885    8.2634 H         1 UNK         0.3156 
    148 H148      -45.5562  -25.4427    7.1448 H         1 UNK         0.0589 
    149 H149      -45.3848  -26.7365    9.9452 H         1 UNK         0.0808 
    150 H150      -43.9992  -26.1902    9.0026 H         1 UNK         0.0808 
    151 H151      -45.1686  -25.0255    9.6016 H         1 UNK         0.0808 
    152 H152      -46.5271  -28.0985    7.5236 H         1 UNK         0.3098 
    153 H153      -44.5683  -29.3858    4.9201 H         1 UNK         0.0720 
    154 H154      -44.4817  -31.4386    6.3306 H         1 UNK         0.0791 
    155 H155      -44.7736  -30.4804    7.7829 H         1 UNK         0.0791 
    156 H156      -43.2857  -30.2717    6.8699 H         1 UNK         0.0791 
    157 H157      -46.8715  -30.2543    6.4769 H         1 UNK         0.3028 
@<TRIPOS>BOND
     1    1    2 1    
     2    1   82 1    
     3    1   83 1    
     4    1   84 1    
     5    2    3 2    
     6    2    4 am   BACKBONE|DICT|INTERRES
     7    4    5 1    
     8    4   85 1    
     9    5    6 1    
    10    5   80 1    
    11    5   86 1    
    12    6    7 1    
    13    6   87 1    
    14    6   88 1    
    15    7    8 1    
    16    8    9 1    
    17    8   89 1    
    18    8   90 1    
    19    9   10 ar   
    20    9   14 ar   
    21   10   11 ar   
    22   10   91 1    
    23   11   12 ar   
    24   11   58 1    
    25   12   13 ar   
    26   12   92 1    
    27   13   14 ar   
    28   13   15 1    
    29   14   93 1    
    30   15   16 1    
    31   15   94 1    
    32   15   95 1    
    33   16   17 1    
    34   17   18 1    
    35   17   96 1    
    36   17   97 1    
    37   18   19 1    
    38   18   22 1    
    39   18   98 1    
    40   19   20 am   BACKBONE|DICT|INTERRES
    41   19   21 2    
    42   20   99 1    
    43   20  100 1    
    44   22   23 am   BACKBONE|DICT|INTERRES
    45   22  101 1    
    46   23   24 2    
    47   23   25 1    
    48   25   26 1    
    49   25   27 1    
    50   25  102 1    
    51   26  103 1    
    52   26  104 1    
    53   26  105 1    
    54   27   28 am   BACKBONE|DICT|INTERRES
    55   27  106 1    
    56   28   29 2    
    57   28   30 1    
    58   30   31 1    
    59   30   32 1    
    60   30  107 1    
    61   31  108 1    
    62   31  109 1    
    63   31  110 1    
    64   32   33 am   BACKBONE|DICT|INTERRES
    65   32  111 1    
    66   33   34 2    
    67   33   35 1    
    68   35   36 1    
    69   35   37 1    
    70   35  112 1    
    71   36  113 1    
    72   36  114 1    
    73   36  115 1    
    74   37   38 am   BACKBONE|DICT|INTERRES
    75   37  116 1    
    76   38   39 2    
    77   38   40 1    
    78   40   41 1    
    79   40   42 1    
    80   40  117 1    
    81   41  118 1    
    82   41  119 1    
    83   41  120 1    
    84   42   43 am   BACKBONE|DICT|INTERRES
    85   42  121 1    
    86   43   44 2    
    87   43   45 1    
    88   45   46 1    
    89   45   47 1    
    90   45  122 1    
    91   46  123 1    
    92   46  124 1    
    93   46  125 1    
    94   47   48 am   BACKBONE|DICT|INTERRES
    95   47  126 1    
    96   48   49 2    
    97   48   50 1    
    98   50   51 1    
    99   50   52 1    
   100   50  127 1    
   101   51  128 1    
   102   51  129 1    
   103   51  130 1    
   104   52   53 am   BACKBONE|DICT|INTERRES
   105   52  131 1    
   106   53   54 2    
   107   53   55 1    
   108   55   56 1    
   109   55   59 1    
   110   55  132 1    
   111   56   57 1    
   112   56  133 1    
   113   56  134 1    
   114   57   58 1    
   115   58  135 1    
   116   58  136 1    
   117   59   60 am   BACKBONE|DICT|INTERRES
   118   59  137 1    
   119   60   61 2    
   120   60   62 1    
   121   62   63 1    
   122   62   64 1    
   123   62  138 1    
   124   63  139 1    
   125   63  140 1    
   126   63  141 1    
   127   64   65 am   BACKBONE|DICT|INTERRES
   128   64  142 1    
   129   65   66 2    
   130   65   67 1    
   131   67   68 1    
   132   67   69 1    
   133   67  143 1    
   134   68  144 1    
   135   68  145 1    
   136   68  146 1    
   137   69   70 am   BACKBONE|DICT|INTERRES
   138   69  147 1    
   139   70   71 2    
   140   70   72 1    
   141   72   73 1    
   142   72   74 1    
   143   72  148 1    
   144   73  149 1    
   145   73  150 1    
   146   73  151 1    
   147   74   75 am   BACKBONE|DICT|INTERRES
   148   74  152 1    
   149   75   76 2    
   150   75   77 1    
   151   77   78 1    
   152   77   79 1    
   153   77  153 1    
   154   78  154 1    
   155   78  155 1    
   156   78  156 1    
   157   79   80 am   BACKBONE|DICT|INTERRES
   158   79  157 1    
   159   80   81 2    
@<TRIPOS>SUBSTRUCTURE
     1 UNK         1 GROUP             0       ****    0 ROOT    
