@<TRIPOS>MOLECULE
3R207
157   159    1
SMALL
USER_CHARGES


@<TRIPOS>ATOM
      1 CA        -50.2823  -29.2208    9.2035 C.3       0 UNK        -0.1975 
      2 C         -49.6380  -29.3985    7.8367 C.2       0 UNK         0.4852 
      3 O         -48.5505  -29.9675    7.7428 O.2       0 UNK        -0.5216 
      4 N         -50.2982  -28.9147    6.7761 N.am      1 UNK        -0.4461 
      5 CA        -49.8397  -29.0086    5.3812 C.3       1 UNK         0.0864 
      6 C6        -50.9971  -28.7714    4.3785 C.3       14 UNK        -0.0898 
      7 S7        -52.2883  -30.0563    4.4753 S.3       14 UNK        -0.2598 
      8 C8        -53.7741  -29.0806    4.8674 C.3       14 UNK         0.0286 
      9 C9        -53.8499  -28.7404    6.3475 C.ar      14 UNK        -0.0844 
     10 C10       -53.4329  -27.4902    6.8143 C.ar      14 UNK        -0.0881 
     11 C11       -53.5062  -27.1832    8.1768 C.ar      14 UNK        -0.0643 
     12 C12       -54.0289  -28.1246    9.0685 C.ar      14 UNK        -0.0930 
     13 C13       -54.4578  -29.3731    8.6103 C.ar      14 UNK        -0.0827 
     14 C14       -54.3587  -29.6784    7.2505 C.ar      14 UNK        -0.1249 
     15 C15       -55.0579  -30.3753    9.5820 C.3       14 UNK         0.0141 
     16 S16       -53.7959  -31.1083   10.6685 S.3       14 UNK        -0.2313 
     17 C17       -54.8629  -32.0651   11.8038 C.3       14 UNK        -0.0915 
     18 CA        -55.0267  -31.4317   13.2178 C.3       13 UNK         0.0968 
     19 C         -53.7628  -31.5570   14.1099 C.2       13 UNK         0.5732 
     20 N         -53.2886  -32.7718   14.3523 N.am      13 UNK        -0.7310 
     21 O         -53.2141  -30.5726   14.6003 O.2       13 UNK        -0.5035 
     22 N         -55.5173  -30.0497   13.1663 N.am      13 UNK        -0.4233 
     23 C         -56.7709  -29.6740   12.9042 C.2       13 UNK         0.4989 
     24 O         -57.6947  -30.4665   12.7106 O.2       13 UNK        -0.4996 
     25 CA        -57.0315  -28.1553   12.8520 C.3       12 UNK         0.0216 
     26 CB        -58.4557  -27.8132   12.3743 C.3       12 UNK        -0.1964 
     27 N         -56.7998  -27.5212   14.1521 N.am      12 UNK        -0.4276 
     28 C         -55.5973  -27.2107   14.6499 C.2       12 UNK         0.5020 
     29 O         -54.5386  -27.4227   14.0521 O.2       12 UNK        -0.5489 
     30 CA        -55.5832  -26.6188   16.0693 C.3       11 UNK         0.0294 
     31 CB        -55.6883  -27.7418   17.1146 C.3       11 UNK        -0.2019 
     32 N         -54.3549  -25.8673   16.3159 N.am      11 UNK        -0.4493 
     33 C         -54.0723  -24.6526   15.8343 C.2       11 UNK         0.4932 
     34 O         -54.8865  -23.9514   15.2323 O.2       11 UNK        -0.5029 
     35 CA        -52.6383  -24.1300   16.0472 C.3       10 UNK         0.0280 
     36 CB        -52.4454  -23.5675   17.4686 C.3       10 UNK        -0.1976 
     37 N         -51.5870  -25.0962   15.6962 N.am      10 UNK        -0.4242 
     38 C         -51.2831  -26.2662   16.2795 C.2       10 UNK         0.5072 
     39 O         -51.8577  -26.7146   17.2733 O.2       10 UNK        -0.5224 
     40 CA        -50.1606  -27.0906   15.6317 C.3       9 UNK         0.0343 
     41 CB        -50.6911  -27.8351   14.3958 C.3       9 UNK        -0.2003 
     42 N         -48.9973  -26.2832   15.2612 N.am      9 UNK        -0.4272 
     43 C         -48.1746  -25.6826   16.1333 C.2       9 UNK         0.4988 
     44 O         -48.2841  -25.7735   17.3568 O.2       9 UNK        -0.5108 
     45 CA        -47.0321  -24.8372   15.5444 C.3       8 UNK         0.0248 
     46 CB        -45.8620  -25.7323   15.1053 C.3       8 UNK        -0.2001 
     47 N         -47.4651  -23.9982   14.4243 N.am      8 UNK        -0.4140 
     48 C         -48.3101  -22.9626   14.5388 C.2       8 UNK         0.5028 
     49 O         -48.7631  -22.5609   15.6113 O.2       8 UNK        -0.5428 
     50 CA        -48.7417  -22.2631   13.2382 C.3       7 UNK         0.0264 
     51 CB        -47.6833  -21.2410   12.7940 C.3       7 UNK        -0.1988 
     52 N         -49.0228  -23.1979   12.1444 N.am      7 UNK        -0.4454 
     53 C         -50.0013  -24.1165   12.1669 C.2       7 UNK         0.5027 
     54 O         -50.7943  -24.2438   13.1000 O.2       7 UNK        -0.5083 
     55 CA        -50.0867  -25.0918   10.9767 C.3       6 UNK         0.0844 
     56 C56       -50.8148  -24.4477    9.7729 C.3       14 UNK        -0.0967 
     57 S57       -51.2141  -25.6919    8.5005 S.3       14 UNK        -0.2604 
     58 C58       -53.0162  -25.8390    8.6898 C.3       14 UNK         0.0134 
     59 N         -48.7691  -25.6176   10.6125 N.am      6 UNK        -0.4116 
     60 C         -47.9765  -26.3427   11.4126 C.2       5 UNK         0.5034 
     61 O         -48.2865  -26.7038   12.5459 O.2       5 UNK        -0.5045 
     62 CA        -46.5748  -26.6708   10.8815 C.3       5 UNK         0.0224 
     63 CB        -46.6142  -27.8552    9.9027 C.3       5 UNK        -0.1978 
     64 N         -45.9497  -25.5094   10.2451 N.am      5 UNK        -0.4737 
     65 C         -45.5537  -24.4123   10.9060 C.2       4 UNK         0.5027 
     66 O         -45.6431  -24.2799   12.1259 O.2       4 UNK        -0.5211 
     67 CA        -44.9953  -23.2560   10.0605 C.3       4 UNK         0.0297 
     68 CB        -43.5054  -23.4790    9.7574 C.3       4 UNK        -0.1993 
     69 N         -45.7299  -23.0613    8.8079 N.am      4 UNK        -0.4486 
     70 C         -47.0044  -22.6527    8.7363 C.2       3 UNK         0.4961 
     71 O         -47.6952  -22.3771    9.7166 O.2       3 UNK        -0.5105 
     72 CA        -47.6311  -22.5934    7.3328 C.3       3 UNK         0.0299 
     73 CB        -47.2210  -21.3006    6.6098 C.3       3 UNK        -0.1972 
     74 N         -47.3242  -23.7553    6.4881 N.am      3 UNK        -0.4305 
     75 C         -47.5834  -25.0265    6.8218 C.2       2 UNK         0.5006 
     76 O         -48.0097  -25.3757    7.9232 O.2       2 UNK        -0.5106 
     77 CA        -47.3027  -26.1019    5.7740 C.3       2 UNK         0.0296 
     78 CB        -45.8974  -26.7010    5.9726 C.3       2 UNK        -0.2002 
     79 N         -48.3313  -27.1252    5.9338 N.am      2 UNK        -0.4032 
     80 C         -48.6499  -28.0763    5.0492 C.2       1 UNK         0.5000 
     81 O         -48.0539  -28.2286    3.9805 O.2       1 UNK        -0.5238 
     82 H82       -49.7675  -28.4422    9.7654 H         1 UNK         0.0889 
     83 H83       -50.2279  -30.1486    9.7723 H         1 UNK         0.0889 
     84 H84       -51.3316  -28.9426    9.1205 H         1 UNK         0.0889 
     85 H85       -51.2027  -28.4828    6.9119 H         1 UNK         0.3028 
     86 H86       -49.4713  -30.0253    5.2271 H         1 UNK         0.0864 
     87 H87       -51.4335  -27.7822    4.5249 H         1 UNK         0.0720 
     88 H88       -50.6265  -28.7844    3.3514 H         1 UNK         0.0720 
     89 H89       -54.6548  -29.6597    4.5853 H         1 UNK         0.0814 
     90 H90       -53.8024  -28.1775    4.2556 H         1 UNK         0.0814 
     91 H91       -53.0411  -26.7560    6.1233 H         1 UNK         0.1469 
     92 H92       -54.0965  -27.8926   10.1229 H         1 UNK         0.1381 
     93 H93       -54.6868  -30.6439    6.8898 H         1 UNK         0.1206 
     94 H94       -55.8163  -29.8732   10.1820 H         1 UNK         0.0813 
     95 H95       -55.5719  -31.1733    9.0439 H         1 UNK         0.0813 
     96 H96       -54.4599  -33.0762   11.8753 H         1 UNK         0.0638 
     97 H97       -55.8465  -32.1883   11.3484 H         1 UNK         0.0638 
     98 H98       -55.7869  -32.0081   13.7483 H         1 UNK         0.0568 
     99 H99       -52.4714  -32.8674   14.9341 H         1 UNK         0.3450 
    100 H100      -53.7288  -33.5927   13.9676 H         1 UNK         0.3450 
    101 H101      -54.8275  -29.3379   13.3951 H         1 UNK         0.2987 
    102 H102      -56.3329  -27.7347   12.1248 H         1 UNK         0.0766 
    103 H103      -58.5953  -26.7359   12.2828 H         1 UNK         0.0798 
    104 H104      -59.2160  -28.1937   13.0576 H         1 UNK         0.0798 
    105 H105      -58.6526  -28.2471   11.3928 H         1 UNK         0.0798 
    106 H106      -57.6176  -27.3580   14.7226 H         1 UNK         0.3198 
    107 H107      -56.4349  -25.9440   16.1806 H         1 UNK         0.0843 
    108 H108      -54.8590  -28.4463   17.0315 H         1 UNK         0.0831 
    109 H109      -56.6114  -28.3101   16.9934 H         1 UNK         0.0831 
    110 H110      -55.6872  -27.3416   18.1287 H         1 UNK         0.0831 
    111 H111      -53.5896  -26.3687   16.7618 H         1 UNK         0.3133 
    112 H112      -52.5027  -23.3008   15.3510 H         1 UNK         0.0566 
    113 H113      -51.4503  -23.1386   17.5901 H         1 UNK         0.0814 
    114 H114      -53.1678  -22.7764   17.6735 H         1 UNK         0.0814 
    115 H115      -52.5771  -24.3316   18.2349 H         1 UNK         0.0814 
    116 H116      -51.0951  -24.8659   14.8344 H         1 UNK         0.3091 
    117 H117      -49.8329  -27.8350   16.3603 H         1 UNK         0.0702 
    118 H118      -49.9418  -28.5137   13.9881 H         1 UNK         0.0785 
    119 H119      -50.9855  -27.1461   13.6032 H         1 UNK         0.0785 
    120 H120      -51.5687  -28.4322   14.6468 H         1 UNK         0.0785 
    121 H121      -48.7887  -26.2197   14.2670 H         1 UNK         0.2998 
    122 H122      -46.6702  -24.1751   16.3339 H         1 UNK         0.0697 
    123 H123      -46.1462  -26.4004   14.2919 H         1 UNK         0.0825 
    124 H124      -45.5130  -26.3528   15.9317 H         1 UNK         0.0825 
    125 H125      -45.0141  -25.1369   14.7661 H         1 UNK         0.0825 
    126 H126      -47.0765  -24.2171   13.5113 H         1 UNK         0.3029 
    127 H127      -49.6659  -21.7215   13.4512 H         1 UNK         0.0897 
    128 H128      -48.0224  -20.6702   11.9294 H         1 UNK         0.0792 
    129 H129      -47.4706  -20.5268   13.5907 H         1 UNK         0.0792 
    130 H130      -46.7427  -21.7238   12.5275 H         1 UNK         0.0792 
    131 H131      -48.4427  -23.1117   11.3125 H         1 UNK         0.3086 
    132 H132      -50.6846  -25.9418   11.3131 H         1 UNK         0.0583 
    133 H133      -51.7319  -23.9473   10.0903 H         1 UNK         0.1020 
    134 H134      -50.1935  -23.6746    9.3171 H         1 UNK         0.1020 
    135 H135      -53.2845  -25.7170    9.7405 H         1 UNK         0.0694 
    136 H136      -53.5069  -25.0316    8.1446 H         1 UNK         0.0694 
    137 H137      -48.4479  -25.4104    9.6679 H         1 UNK         0.2989 
    138 H138      -45.9587  -26.9587   11.7364 H         1 UNK         0.1055 
    139 H139      -47.0473  -28.7371   10.3767 H         1 UNK         0.0806 
    140 H140      -45.6133  -28.1279    9.5683 H         1 UNK         0.0806 
    141 H141      -47.2145  -27.6385    9.0193 H         1 UNK         0.0806 
    142 H142      -45.9091  -25.5069    9.2364 H         1 UNK         0.3061 
    143 H143      -45.0891  -22.3412   10.6498 H         1 UNK         0.0734 
    144 H144      -43.0751  -22.6269    9.2309 H         1 UNK         0.0832 
    145 H145      -42.9367  -23.6081   10.6795 H         1 UNK         0.0832 
    146 H146      -43.3429  -24.3690    9.1480 H         1 UNK         0.0832 
    147 H147      -45.2444  -23.2731    7.9484 H         1 UNK         0.3156 
    148 H148      -48.7149  -22.5737    7.4656 H         1 UNK         0.0589 
    149 H149      -46.1516  -21.2755    6.3967 H         1 UNK         0.0808 
    150 H150      -47.7546  -21.1868    5.6659 H         1 UNK         0.0808 
    151 H151      -47.4527  -20.4241    7.2169 H         1 UNK         0.0808 
    152 H152      -46.9564  -23.5605    5.5676 H         1 UNK         0.3098 
    153 H153      -47.3852  -25.6645    4.7770 H         1 UNK         0.0720 
    154 H154      -45.6732  -27.4520    5.2152 H         1 UNK         0.0791 
    155 H155      -45.7958  -27.1747    6.9496 H         1 UNK         0.0791 
    156 H156      -45.1282  -25.9313    5.8989 H         1 UNK         0.0791 
    157 H157      -48.8680  -27.0406    6.7889 H         1 UNK         0.3028 
@<TRIPOS>BOND
     1    1    2 1    
     2    1   82 1    
     3    1   83 1    
     4    1   84 1    
     5    2    3 2    
     6    2    4 am   BACKBONE|DICT|INTERRES
     7    4    5 1    
     8    4   85 1    
     9    5    6 1    
    10    5   80 1    
    11    5   86 1    
    12    6    7 1    
    13    6   87 1    
    14    6   88 1    
    15    7    8 1    
    16    8    9 1    
    17    8   89 1    
    18    8   90 1    
    19    9   10 ar   
    20    9   14 ar   
    21   10   11 ar   
    22   10   91 1    
    23   11   12 ar   
    24   11   58 1    
    25   12   13 ar   
    26   12   92 1    
    27   13   14 ar   
    28   13   15 1    
    29   14   93 1    
    30   15   16 1    
    31   15   94 1    
    32   15   95 1    
    33   16   17 1    
    34   17   18 1    
    35   17   96 1    
    36   17   97 1    
    37   18   19 1    
    38   18   22 1    
    39   18   98 1    
    40   19   20 am   BACKBONE|DICT|INTERRES
    41   19   21 2    
    42   20   99 1    
    43   20  100 1    
    44   22   23 am   BACKBONE|DICT|INTERRES
    45   22  101 1    
    46   23   24 2    
    47   23   25 1    
    48   25   26 1    
    49   25   27 1    
    50   25  102 1    
    51   26  103 1    
    52   26  104 1    
    53   26  105 1    
    54   27   28 am   BACKBONE|DICT|INTERRES
    55   27  106 1    
    56   28   29 2    
    57   28   30 1    
    58   30   31 1    
    59   30   32 1    
    60   30  107 1    
    61   31  108 1    
    62   31  109 1    
    63   31  110 1    
    64   32   33 am   BACKBONE|DICT|INTERRES
    65   32  111 1    
    66   33   34 2    
    67   33   35 1    
    68   35   36 1    
    69   35   37 1    
    70   35  112 1    
    71   36  113 1    
    72   36  114 1    
    73   36  115 1    
    74   37   38 am   BACKBONE|DICT|INTERRES
    75   37  116 1    
    76   38   39 2    
    77   38   40 1    
    78   40   41 1    
    79   40   42 1    
    80   40  117 1    
    81   41  118 1    
    82   41  119 1    
    83   41  120 1    
    84   42   43 am   BACKBONE|DICT|INTERRES
    85   42  121 1    
    86   43   44 2    
    87   43   45 1    
    88   45   46 1    
    89   45   47 1    
    90   45  122 1    
    91   46  123 1    
    92   46  124 1    
    93   46  125 1    
    94   47   48 am   BACKBONE|DICT|INTERRES
    95   47  126 1    
    96   48   49 2    
    97   48   50 1    
    98   50   51 1    
    99   50   52 1    
   100   50  127 1    
   101   51  128 1    
   102   51  129 1    
   103   51  130 1    
   104   52   53 am   BACKBONE|DICT|INTERRES
   105   52  131 1    
   106   53   54 2    
   107   53   55 1    
   108   55   56 1    
   109   55   59 1    
   110   55  132 1    
   111   56   57 1    
   112   56  133 1    
   113   56  134 1    
   114   57   58 1    
   115   58  135 1    
   116   58  136 1    
   117   59   60 am   BACKBONE|DICT|INTERRES
   118   59  137 1    
   119   60   61 2    
   120   60   62 1    
   121   62   63 1    
   122   62   64 1    
   123   62  138 1    
   124   63  139 1    
   125   63  140 1    
   126   63  141 1    
   127   64   65 am   BACKBONE|DICT|INTERRES
   128   64  142 1    
   129   65   66 2    
   130   65   67 1    
   131   67   68 1    
   132   67   69 1    
   133   67  143 1    
   134   68  144 1    
   135   68  145 1    
   136   68  146 1    
   137   69   70 am   BACKBONE|DICT|INTERRES
   138   69  147 1    
   139   70   71 2    
   140   70   72 1    
   141   72   73 1    
   142   72   74 1    
   143   72  148 1    
   144   73  149 1    
   145   73  150 1    
   146   73  151 1    
   147   74   75 am   BACKBONE|DICT|INTERRES
   148   74  152 1    
   149   75   76 2    
   150   75   77 1    
   151   77   78 1    
   152   77   79 1    
   153   77  153 1    
   154   78  154 1    
   155   78  155 1    
   156   78  156 1    
   157   79   80 am   BACKBONE|DICT|INTERRES
   158   79  157 1    
   159   80   81 2    
@<TRIPOS>SUBSTRUCTURE
     1 UNK         1 GROUP             0       ****    0 ROOT    
