@<TRIPOS>MOLECULE
3R207
157   159    1
SMALL
USER_CHARGES


@<TRIPOS>ATOM
      1 CA        -46.4212  -32.4562    3.4432 C.3       0 UNK        -0.1975 
      2 C         -46.4264  -31.2896    4.4203 C.2       0 UNK         0.4852 
      3 O         -45.3589  -30.8651    4.8646 O.2       0 UNK        -0.5216 
      4 N         -47.6196  -30.7771    4.7535 N.am      1 UNK        -0.4461 
      5 CA        -47.8711  -29.6450    5.6534 C.3       1 UNK         0.0864 
      6 C6        -47.5013  -29.9311    7.1380 C.3       14 UNK        -0.0898 
      7 S7        -48.6200  -31.1477    7.9105 S.3       14 UNK        -0.2598 
      8 C8        -49.2455  -30.2199    9.3555 C.3       14 UNK         0.0286 
      9 C9        -50.5264  -29.4377    9.0757 C.ar      14 UNK        -0.0844 
     10 C10       -50.6057  -28.5118    8.0300 C.ar      14 UNK        -0.0881 
     11 C11       -51.7817  -27.7916    7.7954 C.ar      14 UNK        -0.0643 
     12 C12       -52.8845  -27.9843    8.6333 C.ar      14 UNK        -0.0930 
     13 C13       -52.8084  -28.8828    9.7006 C.ar      14 UNK        -0.0827 
     14 C14       -51.6356  -29.6140    9.9071 C.ar      14 UNK        -0.1249 
     15 C15       -53.9812  -29.0629   10.6475 C.3       14 UNK         0.0141 
     16 S16       -53.8007  -27.9864   12.1040 S.3       14 UNK        -0.2313 
     17 C17       -54.9244  -28.8078   13.2798 C.3       14 UNK        -0.0915 
     18 CA        -56.2256  -28.0139   13.5568 C.3       13 UNK         0.0968 
     19 C         -57.2039  -28.8661   14.4093 C.2       13 UNK         0.5732 
     20 N         -58.2051  -29.4746   13.7880 N.am      13 UNK        -0.7310 
     21 O         -57.0327  -29.0198   15.6168 O.2       13 UNK        -0.5035 
     22 N         -55.9534  -26.7125   14.1836 N.am      13 UNK        -0.4233 
     23 C         -56.8572  -25.7289   14.2989 C.2       13 UNK         0.4989 
     24 O         -57.9936  -25.7960   13.8261 O.2       13 UNK        -0.4996 
     25 CA        -56.4164  -24.4382   15.0206 C.3       12 UNK         0.0216 
     26 CB        -57.6016  -23.6151   15.5714 C.3       12 UNK        -0.1964 
     27 N         -55.3917  -24.6546   16.0488 N.am      12 UNK        -0.4276 
     28 C         -55.5261  -25.3421   17.1921 C.2       12 UNK         0.5020 
     29 O         -56.5743  -25.8617   17.5803 O.2       12 UNK        -0.5489 
     30 CA        -54.2478  -25.4982   18.0353 C.3       11 UNK         0.0294 
     31 CB        -54.5084  -25.1654   19.5149 C.3       11 UNK        -0.2019 
     32 N         -53.6661  -26.8411   17.9364 N.am      11 UNK        -0.4493 
     33 C         -53.2880  -27.4326   16.7969 C.2       11 UNK         0.4932 
     34 O         -53.4560  -26.9445   15.6744 O.2       11 UNK        -0.5029 
     35 CA        -52.5571  -28.7749   16.9202 C.3       10 UNK         0.0280 
     36 CB        -53.5222  -29.9706   16.9823 C.3       10 UNK        -0.1976 
     37 N         -51.7090  -28.8454   15.7399 N.am      10 UNK        -0.4242 
     38 C         -50.4520  -29.2898   15.7005 C.2       10 UNK         0.5072 
     39 O         -49.9571  -30.0580   16.5267 O.2       10 UNK        -0.5224 
     40 CA        -49.5778  -28.6870   14.5843 C.3       9 UNK         0.0343 
     41 CB        -49.8140  -29.4152   13.2505 C.3       9 UNK        -0.2003 
     42 N         -49.8007  -27.2447   14.3937 N.am      9 UNK        -0.4272 
     43 C         -49.6979  -26.2959   15.3418 C.2       9 UNK         0.4988 
     44 O         -49.3486  -26.5230   16.5006 O.2       9 UNK        -0.5108 
     45 CA        -50.0465  -24.8489   14.9570 C.3       8 UNK         0.0248 
     46 CB        -48.7762  -24.0812   14.5551 C.3       8 UNK        -0.2001 
     47 N         -51.0162  -24.7783   13.8620 N.am      8 UNK        -0.4140 
     48 C         -52.2694  -24.3096   13.9618 C.2       8 UNK         0.5028 
     49 O         -52.7702  -23.9068   15.0153 O.2       8 UNK        -0.5428 
     50 CA        -53.1430  -24.2970   12.6887 C.3       7 UNK         0.0264 
     51 CB        -53.7922  -22.9151   12.4470 C.3       7 UNK        -0.1988 
     52 N         -52.4768  -24.7980   11.4770 N.am      7 UNK        -0.4454 
     53 C         -51.4884  -24.2159   10.7809 C.2       7 UNK         0.5027 
     54 O         -51.0184  -23.1044   11.0294 O.2       7 UNK        -0.5083 
     55 CA        -50.8897  -25.0508    9.6346 C.3       6 UNK         0.0844 
     56 C56       -51.3282  -24.5013    8.2546 C.3       14 UNK        -0.0967 
     57 S57       -50.6419  -25.4399    6.8475 S.3       14 UNK        -0.2604 
     58 C58       -51.8485  -26.7903    6.6503 C.3       14 UNK         0.0134 
     59 N         -49.4373  -25.1651    9.7766 N.am      6 UNK        -0.4116 
     60 C         -48.8237  -25.7448   10.8175 C.2       5 UNK         0.5034 
     61 O         -49.4277  -26.2486   11.7666 O.2       5 UNK        -0.5045 
     62 CA        -47.2882  -25.7706   10.8170 C.3       5 UNK         0.0224 
     63 CB        -46.7758  -27.1410   10.3500 C.3       5 UNK        -0.1978 
     64 N         -46.7133  -24.7224    9.9702 N.am      5 UNK        -0.4737 
     65 C         -46.4325  -23.4836   10.3997 C.2       4 UNK         0.5027 
     66 O         -46.6005  -23.1136   11.5617 O.2       4 UNK        -0.5211 
     67 CA        -45.8506  -22.4857    9.3803 C.3       4 UNK         0.0297 
     68 CB        -44.3207  -22.4172    9.5155 C.3       4 UNK        -0.1993 
     69 N         -46.1938  -22.7946    7.9908 N.am      4 UNK        -0.4486 
     70 C         -47.4165  -22.6650    7.4587 C.2       3 UNK         0.4961 
     71 O         -48.3864  -22.2192    8.0708 O.2       3 UNK        -0.5105 
     72 CA        -47.5957  -23.1335    6.0022 C.3       3 UNK         0.0299 
     73 CB        -47.4160  -21.9510    5.0367 C.3       3 UNK        -0.1972 
     74 N         -46.7149  -24.2355    5.5888 N.am      3 UNK        -0.4305 
     75 C         -46.6254  -25.4289    6.1924 C.2       2 UNK         0.5006 
     76 O         -47.1931  -25.7120    7.2501 O.2       2 UNK        -0.5106 
     77 CA        -45.6965  -26.4630    5.5389 C.3       2 UNK         0.0296 
     78 CB        -44.2859  -26.3670    6.1428 C.3       2 UNK        -0.2002 
     79 N         -46.2196  -27.8104    5.7590 N.am      2 UNK        -0.4032 
     80 C         -47.2576  -28.3406    5.0968 C.2       1 UNK         0.5000 
     81 O         -47.7574  -27.8297    4.0916 O.2       1 UNK        -0.5238 
     82 H82       -47.4285  -32.7360    3.1351 H         1 UNK         0.0889 
     83 H83       -45.9535  -33.3269    3.9021 H         1 UNK         0.0889 
     84 H84       -45.8536  -32.1950    2.5505 H         1 UNK         0.0889 
     85 H85       -48.4491  -31.1701    4.3310 H         1 UNK         0.3028 
     86 H86       -48.9488  -29.4827    5.6101 H         1 UNK         0.0864 
     87 H87       -46.4787  -30.2997    7.2297 H         1 UNK         0.0720 
     88 H88       -47.5423  -29.0136    7.7249 H         1 UNK         0.0720 
     89 H89       -48.4819  -29.5434    9.7378 H         1 UNK         0.0814 
     90 H90       -49.4196  -30.9433   10.1535 H         1 UNK         0.0814 
     91 H91       -49.7495  -28.3286    7.4012 H         1 UNK         0.1469 
     92 H92       -53.7928  -27.4206    8.4697 H         1 UNK         0.1381 
     93 H93       -51.5836  -30.3092   10.7338 H         1 UNK         0.1206 
     94 H94       -54.0314  -30.1083   10.9555 H         1 UNK         0.0813 
     95 H95       -54.9242  -28.8415   10.1455 H         1 UNK         0.0813 
     96 H96       -55.1613  -29.8074   12.9118 H         1 UNK         0.0638 
     97 H97       -54.3687  -28.9600   14.2021 H         1 UNK         0.0638 
     98 H98       -56.7006  -27.8167   12.5935 H         1 UNK         0.0568 
     99 H99       -58.3501  -29.3631   12.7968 H         1 UNK         0.3450 
    100 H100      -58.8380  -30.0460   14.3254 H         1 UNK         0.3450 
    101 H101      -55.0567  -26.6283   14.6540 H         1 UNK         0.2987 
    102 H102      -55.9423  -23.8311   14.2524 H         1 UNK         0.0766 
    103 H103      -58.1923  -24.1836   16.2901 H         1 UNK         0.0798 
    104 H104      -57.2584  -22.7050   16.0633 H         1 UNK         0.0798 
    105 H105      -58.2746  -23.3122   14.7684 H         1 UNK         0.0798 
    106 H106      -54.4550  -24.3354   15.7998 H         1 UNK         0.3198 
    107 H107      -53.5011  -24.7926   17.6635 H         1 UNK         0.0843 
    108 H108      -54.9440  -24.1706   19.6185 H         1 UNK         0.0831 
    109 H109      -53.5852  -25.1750   20.0945 H         1 UNK         0.0831 
    110 H110      -55.2014  -25.8725   19.9728 H         1 UNK         0.0831 
    111 H111      -53.5115  -27.3277   18.8075 H         1 UNK         0.3133 
    112 H112      -51.9354  -28.7559   17.8181 H         1 UNK         0.0566 
    113 H113      -52.9790  -30.9156   16.9827 H         1 UNK         0.0814 
    114 H114      -54.1179  -29.9386   17.8952 H         1 UNK         0.0814 
    115 H115      -54.2196  -29.9875   16.1468 H         1 UNK         0.0814 
    116 H116      -52.0023  -28.1918   15.0217 H         1 UNK         0.3091 
    117 H117      -48.5332  -28.8212   14.8715 H         1 UNK         0.0702 
    118 H118      -49.1377  -29.0535   12.4756 H         1 UNK         0.0785 
    119 H119      -50.8347  -29.2753   12.8919 H         1 UNK         0.0785 
    120 H120      -49.6461  -30.4880   13.3536 H         1 UNK         0.0785 
    121 H121      -49.9723  -26.9478   13.4377 H         1 UNK         0.2998 
    122 H122      -50.4568  -24.3723   15.8498 H         1 UNK         0.0697 
    123 H123      -48.3007  -24.5128   13.6743 H         1 UNK         0.0825 
    124 H124      -48.0410  -24.0923   15.3609 H         1 UNK         0.0825 
    125 H125      -48.9985  -23.0372   14.3337 H         1 UNK         0.0825 
    126 H126      -50.6920  -25.1040   12.9591 H         1 UNK         0.3029 
    127 H127      -53.9500  -25.0019   12.8907 H         1 UNK         0.0897 
    128 H128      -54.5003  -22.9498   11.6192 H         1 UNK         0.0792 
    129 H129      -54.3362  -22.5684   13.3248 H         1 UNK         0.0792 
    130 H130      -53.0538  -22.1453   12.2252 H         1 UNK         0.0792 
    131 H131      -52.7572  -25.7318   11.2029 H         1 UNK         0.3086 
    132 H132      -51.2780  -26.0627    9.7384 H         1 UNK         0.0583 
    133 H133      -52.4167  -24.4900    8.1731 H         1 UNK         0.1020 
    134 H134      -51.0069  -23.4631    8.1453 H         1 UNK         0.1020 
    135 H135      -52.8501  -26.3697    6.5492 H         1 UNK         0.0694 
    136 H136      -51.6385  -27.3120    5.7156 H         1 UNK         0.0694 
    137 H137      -48.8786  -24.7773    9.0299 H         1 UNK         0.2989 
    138 H138      -46.9593  -25.6262   11.8485 H         1 UNK         0.1055 
    139 H139      -45.6866  -27.1829   10.3593 H         1 UNK         0.0806 
    140 H140      -47.1127  -27.3717    9.3401 H         1 UNK         0.0806 
    141 H141      -47.1360  -27.9334   11.0073 H         1 UNK         0.0806 
    142 H142      -46.6073  -24.9465    8.9849 H         1 UNK         0.3061 
    143 H143      -46.2588  -21.5011    9.6189 H         1 UNK         0.0734 
    144 H144      -44.0312  -22.1578   10.5350 H         1 UNK         0.0832 
    145 H145      -43.8503  -23.3721    9.2774 H         1 UNK         0.0832 
    146 H146      -43.8962  -21.6581    8.8582 H         1 UNK         0.0832 
    147 H147      -45.4585  -23.1684    7.4089 H         1 UNK         0.3156 
    148 H148      -48.6217  -23.4912    5.9053 H         1 UNK         0.0589 
    149 H149      -46.3946  -21.5685    5.0513 H         1 UNK         0.0808 
    150 H150      -47.6560  -22.2337    4.0115 H         1 UNK         0.0808 
    151 H151      -48.0768  -21.1249    5.3040 H         1 UNK         0.0808 
    152 H152      -46.1889  -24.0889    4.7389 H         1 UNK         0.3098 
    153 H153      -45.6385  -26.2734    4.4649 H         1 UNK         0.0720 
    154 H154      -43.6144  -27.1020    5.6984 H         1 UNK         0.0791 
    155 H155      -44.2947  -26.5303    7.2216 H         1 UNK         0.0791 
    156 H156      -43.8494  -25.3832    5.9654 H         1 UNK         0.0791 
    157 H157      -45.8658  -28.2999    6.5668 H         1 UNK         0.3028 
@<TRIPOS>BOND
     1    1    2 1    
     2    1   82 1    
     3    1   83 1    
     4    1   84 1    
     5    2    3 2    
     6    2    4 am   BACKBONE|DICT|INTERRES
     7    4    5 1    
     8    4   85 1    
     9    5    6 1    
    10    5   80 1    
    11    5   86 1    
    12    6    7 1    
    13    6   87 1    
    14    6   88 1    
    15    7    8 1    
    16    8    9 1    
    17    8   89 1    
    18    8   90 1    
    19    9   10 ar   
    20    9   14 ar   
    21   10   11 ar   
    22   10   91 1    
    23   11   12 ar   
    24   11   58 1    
    25   12   13 ar   
    26   12   92 1    
    27   13   14 ar   
    28   13   15 1    
    29   14   93 1    
    30   15   16 1    
    31   15   94 1    
    32   15   95 1    
    33   16   17 1    
    34   17   18 1    
    35   17   96 1    
    36   17   97 1    
    37   18   19 1    
    38   18   22 1    
    39   18   98 1    
    40   19   20 am   BACKBONE|DICT|INTERRES
    41   19   21 2    
    42   20   99 1    
    43   20  100 1    
    44   22   23 am   BACKBONE|DICT|INTERRES
    45   22  101 1    
    46   23   24 2    
    47   23   25 1    
    48   25   26 1    
    49   25   27 1    
    50   25  102 1    
    51   26  103 1    
    52   26  104 1    
    53   26  105 1    
    54   27   28 am   BACKBONE|DICT|INTERRES
    55   27  106 1    
    56   28   29 2    
    57   28   30 1    
    58   30   31 1    
    59   30   32 1    
    60   30  107 1    
    61   31  108 1    
    62   31  109 1    
    63   31  110 1    
    64   32   33 am   BACKBONE|DICT|INTERRES
    65   32  111 1    
    66   33   34 2    
    67   33   35 1    
    68   35   36 1    
    69   35   37 1    
    70   35  112 1    
    71   36  113 1    
    72   36  114 1    
    73   36  115 1    
    74   37   38 am   BACKBONE|DICT|INTERRES
    75   37  116 1    
    76   38   39 2    
    77   38   40 1    
    78   40   41 1    
    79   40   42 1    
    80   40  117 1    
    81   41  118 1    
    82   41  119 1    
    83   41  120 1    
    84   42   43 am   BACKBONE|DICT|INTERRES
    85   42  121 1    
    86   43   44 2    
    87   43   45 1    
    88   45   46 1    
    89   45   47 1    
    90   45  122 1    
    91   46  123 1    
    92   46  124 1    
    93   46  125 1    
    94   47   48 am   BACKBONE|DICT|INTERRES
    95   47  126 1    
    96   48   49 2    
    97   48   50 1    
    98   50   51 1    
    99   50   52 1    
   100   50  127 1    
   101   51  128 1    
   102   51  129 1    
   103   51  130 1    
   104   52   53 am   BACKBONE|DICT|INTERRES
   105   52  131 1    
   106   53   54 2    
   107   53   55 1    
   108   55   56 1    
   109   55   59 1    
   110   55  132 1    
   111   56   57 1    
   112   56  133 1    
   113   56  134 1    
   114   57   58 1    
   115   58  135 1    
   116   58  136 1    
   117   59   60 am   BACKBONE|DICT|INTERRES
   118   59  137 1    
   119   60   61 2    
   120   60   62 1    
   121   62   63 1    
   122   62   64 1    
   123   62  138 1    
   124   63  139 1    
   125   63  140 1    
   126   63  141 1    
   127   64   65 am   BACKBONE|DICT|INTERRES
   128   64  142 1    
   129   65   66 2    
   130   65   67 1    
   131   67   68 1    
   132   67   69 1    
   133   67  143 1    
   134   68  144 1    
   135   68  145 1    
   136   68  146 1    
   137   69   70 am   BACKBONE|DICT|INTERRES
   138   69  147 1    
   139   70   71 2    
   140   70   72 1    
   141   72   73 1    
   142   72   74 1    
   143   72  148 1    
   144   73  149 1    
   145   73  150 1    
   146   73  151 1    
   147   74   75 am   BACKBONE|DICT|INTERRES
   148   74  152 1    
   149   75   76 2    
   150   75   77 1    
   151   77   78 1    
   152   77   79 1    
   153   77  153 1    
   154   78  154 1    
   155   78  155 1    
   156   78  156 1    
   157   79   80 am   BACKBONE|DICT|INTERRES
   158   79  157 1    
   159   80   81 2    
@<TRIPOS>SUBSTRUCTURE
     1 UNK         1 GROUP             0       ****    0 ROOT    
