@<TRIPOS>MOLECULE
3R207
157   159    1
SMALL
USER_CHARGES


@<TRIPOS>ATOM
      1 CA        -50.5905  -24.4106    3.7955 C.3       0 UNK        -0.1975 
      2 C         -49.7605  -24.4984    5.0665 C.2       0 UNK         0.4852 
      3 O         -49.1716  -25.5453    5.3355 O.2       0 UNK        -0.5216 
      4 N         -49.6950  -23.4021    5.8367 N.am      1 UNK        -0.4461 
      5 CA        -49.0075  -23.2800    7.1334 C.3       1 UNK         0.0864 
      6 C6        -49.7064  -24.0718    8.2704 C.3       14 UNK        -0.0898 
      7 S7        -51.4707  -23.6370    8.4662 S.3       14 UNK        -0.2598 
      8 C8        -52.2813  -25.2428    8.1563 C.3       14 UNK         0.0286 
      9 C9        -52.4685  -26.0524    9.4353 C.ar      14 UNK        -0.0844 
     10 C10       -51.3626  -26.4752   10.1790 C.ar      14 UNK        -0.0881 
     11 C11       -51.5288  -27.2095   11.3554 C.ar      14 UNK        -0.0643 
     12 C12       -52.8176  -27.5180   11.7939 C.ar      14 UNK        -0.0930 
     13 C13       -53.9347  -27.1264   11.0501 C.ar      14 UNK        -0.0827 
     14 C14       -53.7535  -26.3902    9.8744 C.ar      14 UNK        -0.1249 
     15 C15       -55.3378  -27.4748   11.5275 C.3       14 UNK         0.0141 
     16 S16       -55.9391  -29.0437   10.8273 S.3       14 UNK        -0.2313 
     17 C17       -55.0068  -30.2953   11.7766 C.3       14 UNK        -0.0915 
     18 CA        -55.9231  -31.1611   12.6776 C.3       13 UNK         0.0968 
     19 C         -55.1701  -32.4172   13.1948 C.2       13 UNK         0.5732 
     20 N         -55.1013  -33.4701   12.3915 N.am      13 UNK        -0.7310 
     21 O         -54.6223  -32.4386   14.2961 O.2       13 UNK        -0.5035 
     22 N         -56.4983  -30.3798   13.7820 N.am      13 UNK        -0.4233 
     23 C         -57.6012  -30.7368   14.4553 C.2       13 UNK         0.4989 
     24 O         -58.2963  -31.7082   14.1526 O.2       13 UNK        -0.4996 
     25 CA        -58.0141  -29.8925   15.6785 C.3       12 UNK         0.0216 
     26 CB        -57.7397  -30.6662   16.9793 C.3       12 UNK        -0.1964 
     27 N         -57.3553  -28.5876   15.7591 N.am      12 UNK        -0.4276 
     28 C         -57.5644  -27.5593   14.9277 C.2       12 UNK         0.5020 
     29 O         -58.4082  -27.5697   14.0310 O.2       12 UNK        -0.5489 
     30 CA        -56.6858  -26.3074   15.1141 C.3       11 UNK         0.0294 
     31 CB        -57.5160  -25.1546   15.7021 C.3       11 UNK        -0.2019 
     32 N         -55.4825  -26.4835   15.9376 N.am      11 UNK        -0.4493 
     33 C         -54.4591  -27.3220   15.7250 C.2       11 UNK         0.4932 
     34 O         -54.4646  -28.1957   14.8568 O.2       11 UNK        -0.5029 
     35 CA        -53.2327  -27.1475   16.6483 C.3       10 UNK         0.0280 
     36 CB        -52.1021  -28.1367   16.3100 C.3       10 UNK        -0.1976 
     37 N         -52.6955  -25.7816   16.6056 N.am      10 UNK        -0.4242 
     38 C         -53.2620  -24.6982   17.1639 C.2       10 UNK         0.5072 
     39 O         -54.2783  -24.7534   17.8591 O.2       10 UNK        -0.5224 
     40 CA        -52.6330  -23.3182   16.8834 C.3       9 UNK         0.0343 
     41 CB        -51.7821  -22.8639   18.0801 C.3       9 UNK        -0.2003 
     42 N         -51.8116  -23.2808   15.6728 N.am      9 UNK        -0.4272 
     43 C         -52.2487  -23.4928   14.4228 C.2       9 UNK         0.4988 
     44 O         -53.4401  -23.5819   14.1256 O.2       9 UNK        -0.5108 
     45 CA        -51.1824  -23.6729   13.3222 C.3       8 UNK         0.0248 
     46 CB        -51.2138  -22.4986   12.3304 C.3       8 UNK        -0.2001 
     47 N         -49.8039  -23.8604   13.8020 N.am      8 UNK        -0.4140 
     48 C         -49.3744  -24.8660   14.5775 C.2       8 UNK         0.5028 
     49 O         -50.1153  -25.7257   15.0598 O.2       8 UNK        -0.5428 
     50 CA        -47.8645  -24.9303   14.8585 C.3       7 UNK         0.0264 
     51 CB        -47.5878  -25.0231   16.3690 C.3       7 UNK        -0.1988 
     52 N         -47.2721  -26.0859   14.1826 N.am      7 UNK        -0.4454 
     53 C         -47.1250  -26.1873   12.8541 C.2       7 UNK         0.5027 
     54 O         -47.3919  -25.2706   12.0715 O.2       7 UNK        -0.5083 
     55 CA        -46.6321  -27.5501   12.3204 C.3       6 UNK         0.0844 
     56 C56       -47.7182  -28.6561   12.4328 C.3       14 UNK        -0.0967 
     57 S57       -49.0783  -28.5324   11.2166 S.3       14 UNK        -0.2604 
     58 C58       -50.3200  -27.6167   12.1823 C.3       14 UNK         0.0134 
     59 N         -46.1325  -27.4195   10.9517 N.am      6 UNK        -0.4116 
     60 C         -44.9540  -26.8946   10.5984 C.2       5 UNK         0.5034 
     61 O         -44.0872  -26.5708   11.4127 O.2       5 UNK        -0.5045 
     62 CA        -44.6932  -26.6549    9.0968 C.3       5 UNK         0.0224 
     63 CB        -43.3425  -27.2455    8.6417 C.3       5 UNK        -0.1978 
     64 N         -45.7785  -27.0637    8.1921 N.am      5 UNK        -0.4737 
     65 C         -46.2089  -28.3033    7.9099 C.2       4 UNK         0.5027 
     66 O         -45.7776  -29.3238    8.4452 O.2       4 UNK        -0.5211 
     67 CA        -47.3111  -28.4211    6.8439 C.3       4 UNK         0.0297 
     68 CB        -48.6970  -28.2011    7.4689 C.3       4 UNK        -0.1993 
     69 N         -47.1144  -27.4819    5.7372 N.am      4 UNK        -0.4486 
     70 C         -46.1475  -27.5980    4.8148 C.2       3 UNK         0.4961 
     71 O         -45.3586  -28.5421    4.7599 O.2       3 UNK        -0.5105 
     72 CA        -46.0311  -26.4642    3.7848 C.3       3 UNK         0.0299 
     73 CB        -47.1022  -26.5978    2.6895 C.3       3 UNK        -0.1972 
     74 N         -46.1192  -25.1465    4.4158 N.am      3 UNK        -0.4305 
     75 C         -45.1258  -24.5742    5.1124 C.2       2 UNK         0.5006 
     76 O         -44.0108  -25.0773    5.2543 O.2       2 UNK        -0.5106 
     77 CA        -45.4088  -23.2027    5.7544 C.3       2 UNK         0.0296 
     78 CB        -44.8988  -22.0709    4.8473 C.3       2 UNK        -0.2002 
     79 N         -46.8233  -22.9734    6.0640 N.am      2 UNK        -0.4032 
     80 C         -47.5049  -23.6252    7.0169 C.2       1 UNK         0.5000 
     81 O         -47.0027  -24.4934    7.7344 O.2       1 UNK        -0.5238 
     82 H82       -51.3656  -25.1762    3.8040 H         1 UNK         0.0889 
     83 H83       -49.9591  -24.5744    2.9228 H         1 UNK         0.0889 
     84 H84       -51.0739  -23.4397    3.6894 H         1 UNK         0.0889 
     85 H85       -50.2019  -22.5770    5.5475 H         1 UNK         0.3028 
     86 H86       -49.0489  -22.2236    7.4036 H         1 UNK         0.0864 
     87 H87       -49.6115  -25.1388    8.0777 H         1 UNK         0.0720 
     88 H88       -49.2111  -23.8894    9.2262 H         1 UNK         0.0720 
     89 H89       -51.7139  -25.8247    7.4286 H         1 UNK         0.0814 
     90 H90       -53.2482  -25.0456    7.6912 H         1 UNK         0.0814 
     91 H91       -50.3630  -26.2261    9.8578 H         1 UNK         0.1469 
     92 H92       -52.9486  -28.0572   12.7211 H         1 UNK         0.1381 
     93 H93       -54.6176  -26.0780    9.3039 H         1 UNK         0.1206 
     94 H94       -56.0294  -26.6791   11.2469 H         1 UNK         0.0813 
     95 H95       -55.3711  -27.5295   12.6125 H         1 UNK         0.0813 
     96 H96       -54.4854  -30.9164   11.0459 H         1 UNK         0.0638 
     97 H97       -54.2311  -29.8262   12.3792 H         1 UNK         0.0638 
     98 H98       -56.7493  -31.5185   12.0592 H         1 UNK         0.0568 
     99 H99       -55.5371  -33.4626   11.4824 H         1 UNK         0.3450 
    100 H100      -54.6068  -34.2914   12.7029 H         1 UNK         0.3450 
    101 H101      -55.9413  -29.6040   14.1193 H         1 UNK         0.2987 
    102 H102      -59.0899  -29.7208   15.6023 H         1 UNK         0.0766 
    103 H103      -58.0944  -30.1173   17.8520 H         1 UNK         0.0798 
    104 H104      -56.6753  -30.8641   17.1138 H         1 UNK         0.0798 
    105 H105      -58.2513  -31.6299   16.9766 H         1 UNK         0.0798 
    106 H106      -56.6331  -28.4826   16.4568 H         1 UNK         0.3198 
    107 H107      -56.3503  -26.0043   14.1210 H         1 UNK         0.0843 
    108 H108      -57.8543  -25.3779   16.7147 H         1 UNK         0.0831 
    109 H109      -58.4028  -24.9603   15.0969 H         1 UNK         0.0831 
    110 H110      -56.9414  -24.2285   15.7358 H         1 UNK         0.0831 
    111 H111      -55.3529  -25.8107   16.6897 H         1 UNK         0.3133 
    112 H112      -53.5630  -27.3568   17.6676 H         1 UNK         0.0566 
    113 H113      -51.7317  -27.9895   15.2948 H         1 UNK         0.0814 
    114 H114      -51.2585  -28.0250   16.9913 H         1 UNK         0.0814 
    115 H115      -52.4468  -29.1688   16.3859 H         1 UNK         0.0814 
    116 H116      -51.8580  -25.6545   16.0425 H         1 UNK         0.3091 
    117 H117      -53.4518  -22.6079   16.7516 H         1 UNK         0.0702 
    118 H118      -52.3733  -22.8522   18.9970 H         1 UNK         0.0785 
    119 H119      -50.9337  -23.5288   18.2479 H         1 UNK         0.0785 
    120 H120      -51.3961  -21.8548   17.9336 H         1 UNK         0.0785 
    121 H121      -50.8141  -23.2167   15.8104 H         1 UNK         0.2998 
    122 H122      -51.4560  -24.5779   12.7760 H         1 UNK         0.0697 
    123 H123      -50.9241  -21.5603   12.8047 H         1 UNK         0.0825 
    124 H124      -52.2147  -22.3620   11.9181 H         1 UNK         0.0825 
    125 H125      -50.5453  -22.6739   11.4870 H         1 UNK         0.0825 
    126 H126      -49.1177  -23.2153   13.4364 H         1 UNK         0.3029 
    127 H127      -47.3877  -24.0228   14.4808 H         1 UNK         0.0897 
    128 H128      -46.5176  -25.0275   16.5768 H         1 UNK         0.0792 
    129 H129      -48.0182  -25.9249   16.8069 H         1 UNK         0.0792 
    130 H130      -48.0158  -24.1699   16.8970 H         1 UNK         0.0792 
    131 H131      -47.0588  -26.8839   14.7636 H         1 UNK         0.3086 
    132 H132      -45.7938  -27.8515   12.9523 H         1 UNK         0.0583 
    133 H133      -47.2428  -29.6257   12.2759 H         1 UNK         0.1020 
    134 H134      -48.1305  -28.7069   13.4424 H         1 UNK         0.1020 
    135 H135      -50.6153  -28.2126   13.0470 H         1 UNK         0.0694 
    136 H136      -49.8694  -26.7062   12.5645 H         1 UNK         0.0694 
    137 H137      -46.7951  -27.6353   10.2221 H         1 UNK         0.2989 
    138 H138      -44.6258  -25.5710    8.9883 H         1 UNK         0.1055 
    139 H139      -42.5167  -26.8251    9.2170 H         1 UNK         0.0806 
    140 H140      -43.1492  -27.0243    7.5916 H         1 UNK         0.0806 
    141 H141      -43.3076  -28.3276    8.7699 H         1 UNK         0.0806 
    142 H142      -46.2645  -26.2832    7.7549 H         1 UNK         0.3061 
    143 H143      -47.2803  -29.4342    6.4370 H         1 UNK         0.0734 
    144 H144      -49.4865  -28.2400    6.7182 H         1 UNK         0.0832 
    145 H145      -48.9146  -28.9722    8.2086 H         1 UNK         0.0832 
    146 H146      -48.7617  -27.2383    7.9739 H         1 UNK         0.0832 
    147 H147      -47.7651  -26.6999    5.6738 H         1 UNK         0.3156 
    148 H148      -45.0542  -26.5487    3.3033 H         1 UNK         0.0589 
    149 H149      -47.0117  -27.5558    2.1758 H         1 UNK         0.0808 
    150 H150      -48.1129  -26.5439    3.0942 H         1 UNK         0.0808 
    151 H151      -46.9997  -25.8168    1.9360 H         1 UNK         0.0808 
    152 H152      -47.0155  -24.6839    4.3821 H         1 UNK         0.3098 
    153 H153      -44.8504  -23.1637    6.6924 H         1 UNK         0.0720 
    154 H154      -43.8387  -22.1986    4.6229 H         1 UNK         0.0791 
    155 H155      -45.0109  -21.0974    5.3251 H         1 UNK         0.0791 
    156 H156      -45.4317  -22.0431    3.8959 H         1 UNK         0.0791 
    157 H157      -47.3096  -22.2874    5.5043 H         1 UNK         0.3028 
@<TRIPOS>BOND
     1    1    2 1    
     2    1   82 1    
     3    1   83 1    
     4    1   84 1    
     5    2    3 2    
     6    2    4 am   BACKBONE|DICT|INTERRES
     7    4    5 1    
     8    4   85 1    
     9    5    6 1    
    10    5   80 1    
    11    5   86 1    
    12    6    7 1    
    13    6   87 1    
    14    6   88 1    
    15    7    8 1    
    16    8    9 1    
    17    8   89 1    
    18    8   90 1    
    19    9   10 ar   
    20    9   14 ar   
    21   10   11 ar   
    22   10   91 1    
    23   11   12 ar   
    24   11   58 1    
    25   12   13 ar   
    26   12   92 1    
    27   13   14 ar   
    28   13   15 1    
    29   14   93 1    
    30   15   16 1    
    31   15   94 1    
    32   15   95 1    
    33   16   17 1    
    34   17   18 1    
    35   17   96 1    
    36   17   97 1    
    37   18   19 1    
    38   18   22 1    
    39   18   98 1    
    40   19   20 am   BACKBONE|DICT|INTERRES
    41   19   21 2    
    42   20   99 1    
    43   20  100 1    
    44   22   23 am   BACKBONE|DICT|INTERRES
    45   22  101 1    
    46   23   24 2    
    47   23   25 1    
    48   25   26 1    
    49   25   27 1    
    50   25  102 1    
    51   26  103 1    
    52   26  104 1    
    53   26  105 1    
    54   27   28 am   BACKBONE|DICT|INTERRES
    55   27  106 1    
    56   28   29 2    
    57   28   30 1    
    58   30   31 1    
    59   30   32 1    
    60   30  107 1    
    61   31  108 1    
    62   31  109 1    
    63   31  110 1    
    64   32   33 am   BACKBONE|DICT|INTERRES
    65   32  111 1    
    66   33   34 2    
    67   33   35 1    
    68   35   36 1    
    69   35   37 1    
    70   35  112 1    
    71   36  113 1    
    72   36  114 1    
    73   36  115 1    
    74   37   38 am   BACKBONE|DICT|INTERRES
    75   37  116 1    
    76   38   39 2    
    77   38   40 1    
    78   40   41 1    
    79   40   42 1    
    80   40  117 1    
    81   41  118 1    
    82   41  119 1    
    83   41  120 1    
    84   42   43 am   BACKBONE|DICT|INTERRES
    85   42  121 1    
    86   43   44 2    
    87   43   45 1    
    88   45   46 1    
    89   45   47 1    
    90   45  122 1    
    91   46  123 1    
    92   46  124 1    
    93   46  125 1    
    94   47   48 am   BACKBONE|DICT|INTERRES
    95   47  126 1    
    96   48   49 2    
    97   48   50 1    
    98   50   51 1    
    99   50   52 1    
   100   50  127 1    
   101   51  128 1    
   102   51  129 1    
   103   51  130 1    
   104   52   53 am   BACKBONE|DICT|INTERRES
   105   52  131 1    
   106   53   54 2    
   107   53   55 1    
   108   55   56 1    
   109   55   59 1    
   110   55  132 1    
   111   56   57 1    
   112   56  133 1    
   113   56  134 1    
   114   57   58 1    
   115   58  135 1    
   116   58  136 1    
   117   59   60 am   BACKBONE|DICT|INTERRES
   118   59  137 1    
   119   60   61 2    
   120   60   62 1    
   121   62   63 1    
   122   62   64 1    
   123   62  138 1    
   124   63  139 1    
   125   63  140 1    
   126   63  141 1    
   127   64   65 am   BACKBONE|DICT|INTERRES
   128   64  142 1    
   129   65   66 2    
   130   65   67 1    
   131   67   68 1    
   132   67   69 1    
   133   67  143 1    
   134   68  144 1    
   135   68  145 1    
   136   68  146 1    
   137   69   70 am   BACKBONE|DICT|INTERRES
   138   69  147 1    
   139   70   71 2    
   140   70   72 1    
   141   72   73 1    
   142   72   74 1    
   143   72  148 1    
   144   73  149 1    
   145   73  150 1    
   146   73  151 1    
   147   74   75 am   BACKBONE|DICT|INTERRES
   148   74  152 1    
   149   75   76 2    
   150   75   77 1    
   151   77   78 1    
   152   77   79 1    
   153   77  153 1    
   154   78  154 1    
   155   78  155 1    
   156   78  156 1    
   157   79   80 am   BACKBONE|DICT|INTERRES
   158   79  157 1    
   159   80   81 2    
@<TRIPOS>SUBSTRUCTURE
     1 UNK         1 GROUP             0       ****    0 ROOT    
