@<TRIPOS>MOLECULE
3R207
157   159    1
SMALL
USER_CHARGES


@<TRIPOS>ATOM
      1 CA        -48.0137  -31.5987    4.6242 C.3       0 UNK        -0.1975 
      2 C         -48.4860  -30.1858    4.9311 C.2       0 UNK         0.4852 
      3 O         -48.3190  -29.7218    6.0592 O.2       0 UNK        -0.5216 
      4 N         -49.0594  -29.5001    3.9311 N.am      1 UNK        -0.4461 
      5 CA        -49.6454  -28.1474    3.9592 C.3       1 UNK         0.0864 
      6 C6        -50.8098  -27.9825    4.9676 C.3       14 UNK        -0.0898 
      7 S7        -52.2302  -29.0781    4.6249 S.3       14 UNK        -0.2598 
      8 C8        -52.2450  -30.1681    6.0952 C.3       14 UNK         0.0286 
      9 C9        -52.3318  -29.4657    7.4540 C.ar      14 UNK        -0.0844 
     10 C10       -52.7527  -28.1369    7.5961 C.ar      14 UNK        -0.0881 
     11 C11       -52.7307  -27.5076    8.8426 C.ar      14 UNK        -0.0643 
     12 C12       -52.3320  -28.2297    9.9701 C.ar      14 UNK        -0.0930 
     13 C13       -51.9619  -29.5740    9.8571 C.ar      14 UNK        -0.0827 
     14 C14       -51.9551  -30.1781    8.5963 C.ar      14 UNK        -0.1249 
     15 C15       -51.5385  -30.3798   11.0806 C.3       14 UNK         0.0141 
     16 S16       -52.6467  -30.1754   12.5128 S.3       14 UNK        -0.2313 
     17 C17       -54.2729  -30.6333   11.8214 C.3       14 UNK        -0.0915 
     18 CA        -55.3946  -30.7350   12.8905 C.3       13 UNK         0.0968 
     19 C         -55.2631  -32.0193   13.7596 C.2       13 UNK         0.5732 
     20 N         -55.6189  -33.1735   13.2111 N.am      13 UNK        -0.7310 
     21 O         -54.8230  -31.9879   14.9081 O.2       13 UNK        -0.5035 
     22 N         -55.4965  -29.4980   13.6792 N.am      13 UNK        -0.4233 
     23 C         -56.5092  -29.1853   14.4969 C.2       13 UNK         0.4989 
     24 O         -57.5363  -29.8575   14.6038 O.2       13 UNK        -0.4996 
     25 CA        -56.3615  -27.9094   15.3465 C.3       12 UNK         0.0216 
     26 CB        -55.8675  -28.2682   16.7569 C.3       12 UNK        -0.1964 
     27 N         -55.4769  -26.8928   14.7620 N.am      12 UNK        -0.4276 
     28 C         -55.7877  -26.1589   13.6809 C.2       12 UNK         0.5020 
     29 O         -56.8365  -26.3078   13.0511 O.2       12 UNK        -0.5489 
     30 CA        -54.7736  -25.0938   13.2038 C.3       11 UNK         0.0294 
     31 CB        -55.4580  -23.8824   12.5378 C.3       11 UNK        -0.2019 
     32 N         -53.8228  -24.6410   14.2251 N.am      11 UNK        -0.4493 
     33 C         -54.0734  -24.0767   15.4161 C.2       11 UNK         0.4932 
     34 O         -55.2012  -23.7966   15.8248 O.2       11 UNK        -0.5029 
     35 CA        -52.8356  -23.8275   16.3085 C.3       10 UNK         0.0280 
     36 CB        -53.1998  -23.6116   17.7922 C.3       10 UNK        -0.1976 
     37 N         -51.8166  -24.8810   16.1726 N.am      10 UNK        -0.4242 
     38 C         -51.9946  -26.1990   16.3589 C.2       10 UNK         0.5072 
     39 O         -53.0512  -26.6897   16.7573 O.2       10 UNK        -0.5224 
     40 CA        -50.8504  -27.1513   15.9697 C.3       9 UNK         0.0343 
     41 CB        -51.3154  -28.0965   14.8538 C.3       9 UNK        -0.2003 
     42 N         -49.6340  -26.4701   15.5224 N.am      9 UNK        -0.4272 
     43 C         -48.6739  -26.0280   16.3450 C.2       9 UNK         0.4988 
     44 O         -48.7159  -26.1375   17.5709 O.2       9 UNK        -0.5108 
     45 CA        -47.4645  -25.3385   15.6927 C.3       8 UNK         0.0248 
     46 CB        -46.4580  -26.3859   15.1901 C.3       8 UNK        -0.2001 
     47 N         -47.8284  -24.4344   14.5972 N.am      8 UNK        -0.4140 
     48 C         -48.5769  -23.3303   14.7416 C.2       8 UNK         0.5028 
     49 O         -49.0492  -22.9562   15.8156 O.2       8 UNK        -0.5428 
     50 CA        -48.8830  -22.5207   13.4709 C.3       7 UNK         0.0264 
     51 CB        -47.6615  -21.6935   13.0398 C.3       7 UNK        -0.1988 
     52 N         -49.3382  -23.3513   12.3545 N.am      7 UNK        -0.4454 
     53 C         -50.4443  -24.1097   12.3695 C.2       7 UNK         0.5027 
     54 O         -51.2111  -24.1895   13.3275 O.2       7 UNK        -0.5083 
     55 CA        -50.7286  -24.9567   11.1179 C.3       6 UNK         0.0844 
     56 C56       -51.3584  -24.0832   10.0052 C.3       14 UNK        -0.0967 
     57 S57       -51.7085  -24.9864    8.4624 S.3       14 UNK        -0.2604 
     58 C58       -53.1120  -26.0401    8.9487 C.3       14 UNK         0.0134 
     59 N         -49.5384  -25.6945   10.6906 N.am      6 UNK        -0.4116 
     60 C         -48.9031  -26.6103   11.4378 C.2       5 UNK         0.5034 
     61 O         -49.2774  -26.9785   12.5518 O.2       5 UNK        -0.5045 
     62 CA        -47.5845  -27.1540   10.8733 C.3       5 UNK         0.0224 
     63 CB        -47.8444  -28.2540    9.8301 C.3       5 UNK        -0.1978 
     64 N         -46.7674  -26.0820   10.2966 N.am      5 UNK        -0.4737 
     65 C         -46.1848  -25.1158   11.0249 C.2       4 UNK         0.5027 
     66 O         -46.2425  -25.0589   12.2522 O.2       4 UNK        -0.5211 
     67 CA        -45.4473  -24.0007   10.2644 C.3       4 UNK         0.0297 
     68 CB        -43.9901  -24.4078    9.9964 C.3       4 UNK        -0.1993 
     69 N         -46.0938  -23.6389    9.0029 N.am      4 UNK        -0.4486 
     70 C         -47.3314  -23.1360    8.8871 C.2       3 UNK         0.4961 
     71 O         -48.0491  -22.8529    9.8461 O.2       3 UNK        -0.5105 
     72 CA        -47.8775  -22.9684    7.4574 C.3       3 UNK         0.0299 
     73 CB        -47.6250  -21.5404    6.9497 C.3       3 UNK        -0.1972 
     74 N         -47.3227  -23.9374    6.5021 N.am      3 UNK        -0.4305 
     75 C         -47.4851  -25.2643    6.5956 C.2       2 UNK         0.5006 
     76 O         -48.1127  -25.8127    7.5036 O.2       2 UNK        -0.5106 
     77 CA        -46.7707  -26.1289    5.5482 C.3       2 UNK         0.0296 
     78 CB        -45.5178  -26.7799    6.1575 C.3       2 UNK        -0.2002 
     79 N         -47.6753  -27.1756    5.0831 N.am      2 UNK        -0.4032 
     80 C         -48.6234  -27.0064    4.1556 C.2       1 UNK         0.5000 
     81 O         -48.7255  -25.9867    3.4700 O.2       1 UNK        -0.5238 
     82 H82       -48.5139  -32.3101    5.2807 H         1 UNK         0.0889 
     83 H83       -46.9397  -31.6790    4.7897 H         1 UNK         0.0889 
     84 H84       -48.2212  -31.8848    3.5933 H         1 UNK         0.0889 
     85 H85       -49.1265  -29.9524    3.0297 H         1 UNK         0.3028 
     86 H86       -50.0615  -27.9997    2.9610 H         1 UNK         0.0864 
     87 H87       -50.4500  -28.1343    5.9864 H         1 UNK         0.0720 
     88 H88       -51.1925  -26.9600    4.9422 H         1 UNK         0.0720 
     89 H89       -51.3428  -30.7809    6.0651 H         1 UNK         0.0814 
     90 H90       -53.0873  -30.8551    6.0063 H         1 UNK         0.0814 
     91 H91       -53.0615  -27.5644    6.7336 H         1 UNK         0.1469 
     92 H92       -52.3138  -27.7529   10.9390 H         1 UNK         0.1381 
     93 H93       -51.6412  -31.2087    8.4998 H         1 UNK         0.1206 
     94 H94       -51.4796  -31.4428   10.8419 H         1 UNK         0.0813 
     95 H95       -50.5338  -30.0710   11.3718 H         1 UNK         0.0813 
     96 H96       -54.5500  -29.8775   11.0850 H         1 UNK         0.0638 
     97 H97       -54.1747  -31.5668   11.2645 H         1 UNK         0.0638 
     98 H98       -56.3399  -30.8291   12.3523 H         1 UNK         0.0568 
     99 H99       -55.5323  -34.0188   13.7531 H         1 UNK         0.3450 
    100 H100      -55.9741  -33.2172   12.2687 H         1 UNK         0.3450 
    101 H101      -54.6755  -28.9129   13.6784 H         1 UNK         0.2987 
    102 H102      -57.3559  -27.4679   15.4427 H         1 UNK         0.0766 
    103 H103      -55.8055  -27.3855   17.3938 H         1 UNK         0.0798 
    104 H104      -54.8811  -28.7336   16.7315 H         1 UNK         0.0798 
    105 H105      -56.5461  -28.9714   17.2419 H         1 UNK         0.0798 
    106 H106      -54.6160  -26.6974   15.2625 H         1 UNK         0.3198 
    107 H107      -54.1712  -25.5880   12.4404 H         1 UNK         0.0843 
    108 H108      -56.1225  -23.3654   13.2307 H         1 UNK         0.0831 
    109 H109      -56.0573  -24.1898   11.6799 H         1 UNK         0.0831 
    110 H110      -54.7244  -23.1624   12.1751 H         1 UNK         0.0831 
    111 H111      -52.8387  -24.7279   13.9741 H         1 UNK         0.3133 
    112 H112      -52.3736  -22.9102   15.9408 H         1 UNK         0.0566 
    113 H113      -52.3110  -23.4245   18.3947 H         1 UNK         0.0814 
    114 H114      -53.8589  -22.7510   17.9122 H         1 UNK         0.0814 
    115 H115      -53.7145  -24.4765   18.2122 H         1 UNK         0.0814 
    116 H116      -50.9268  -24.5769   15.7976 H         1 UNK         0.3091 
    117 H117      -50.6202  -27.7569   16.8487 H         1 UNK         0.0702 
    118 H118      -52.1733  -28.6897   15.1734 H         1 UNK         0.0785 
    119 H119      -51.6105  -27.5476   13.9584 H         1 UNK         0.0785 
    120 H120      -50.5286  -28.7960   14.5706 H         1 UNK         0.0785 
    121 H121      -49.5061  -26.3820   14.5185 H         1 UNK         0.2998 
    122 H122      -46.9734  -24.7394   16.4623 H         1 UNK         0.0697 
    123 H123      -46.8720  -26.9849   14.3776 H         1 UNK         0.0825 
    124 H124      -46.1712  -27.0704   15.9895 H         1 UNK         0.0825 
    125 H125      -45.5454  -25.9145   14.8250 H         1 UNK         0.0825 
    126 H126      -47.4430  -24.6543   13.6810 H         1 UNK         0.3029 
    127 H127      -49.6927  -21.8282   13.7109 H         1 UNK         0.0897 
    128 H128      -46.8173  -22.3289   12.7718 H         1 UNK         0.0792 
    129 H129      -47.3322  -21.0351   13.8448 H         1 UNK         0.0792 
    130 H130      -47.8919  -21.0646   12.1795 H         1 UNK         0.0792 
    131 H131      -48.7866  -23.3097   11.4992 H         1 UNK         0.3086 
    132 H132      -51.4682  -25.7010   11.4133 H         1 UNK         0.0583 
    133 H133      -52.2871  -23.6280   10.3560 H         1 UNK         0.1020 
    134 H134      -50.6989  -23.2517    9.7501 H         1 UNK         0.1020 
    135 H135      -53.4484  -25.8017    9.9584 H         1 UNK         0.0694 
    136 H136      -53.9566  -25.8296    8.2910 H         1 UNK         0.0694 
    137 H137      -49.1665  -25.4670    9.7780 H         1 UNK         0.2989 
    138 H138      -47.0259  -27.5958   11.7016 H         1 UNK         0.1055 
    139 H139      -48.3676  -29.0978   10.2816 H         1 UNK         0.0806 
    140 H140      -46.9137  -28.6367    9.4114 H         1 UNK         0.0806 
    141 H141      -48.4636  -27.9021    9.0042 H         1 UNK         0.0806 
    142 H142      -46.7476  -26.0185    9.2868 H         1 UNK         0.3061 
    143 H143      -45.4428  -23.1131   10.9001 H         1 UNK         0.0734 
    144 H144      -43.4284  -23.5958    9.5341 H         1 UNK         0.0832 
    145 H145      -43.4806  -24.6619   10.9272 H         1 UNK         0.0832 
    146 H146      -43.9254  -25.2784    9.3424 H         1 UNK         0.0832 
    147 H147      -45.5788  -23.8271    8.1557 H         1 UNK         0.3156 
    148 H148      -48.9570  -23.1296    7.5018 H         1 UNK         0.0589 
    149 H149      -46.5597  -21.3245    6.8588 H         1 UNK         0.0808 
    150 H150      -48.0867  -21.3773    5.9757 H         1 UNK         0.0808 
    151 H151      -48.0492  -20.8037    7.6338 H         1 UNK         0.0808 
    152 H152      -46.7906  -23.5620    5.7295 H         1 UNK         0.3098 
    153 H153      -46.4673  -25.5080    4.7025 H         1 UNK         0.0720 
    154 H154      -44.9968  -27.3957    5.4241 H         1 UNK         0.0791 
    155 H155      -45.7660  -27.4151    7.0094 H         1 UNK         0.0791 
    156 H156      -44.8122  -26.0247    6.5059 H         1 UNK         0.0791 
    157 H157      -47.7247  -28.0281    5.6377 H         1 UNK         0.3028 
@<TRIPOS>BOND
     1    1    2 1    
     2    1   82 1    
     3    1   83 1    
     4    1   84 1    
     5    2    3 2    
     6    2    4 am   BACKBONE|DICT|INTERRES
     7    4    5 1    
     8    4   85 1    
     9    5    6 1    
    10    5   80 1    
    11    5   86 1    
    12    6    7 1    
    13    6   87 1    
    14    6   88 1    
    15    7    8 1    
    16    8    9 1    
    17    8   89 1    
    18    8   90 1    
    19    9   10 ar   
    20    9   14 ar   
    21   10   11 ar   
    22   10   91 1    
    23   11   12 ar   
    24   11   58 1    
    25   12   13 ar   
    26   12   92 1    
    27   13   14 ar   
    28   13   15 1    
    29   14   93 1    
    30   15   16 1    
    31   15   94 1    
    32   15   95 1    
    33   16   17 1    
    34   17   18 1    
    35   17   96 1    
    36   17   97 1    
    37   18   19 1    
    38   18   22 1    
    39   18   98 1    
    40   19   20 am   BACKBONE|DICT|INTERRES
    41   19   21 2    
    42   20   99 1    
    43   20  100 1    
    44   22   23 am   BACKBONE|DICT|INTERRES
    45   22  101 1    
    46   23   24 2    
    47   23   25 1    
    48   25   26 1    
    49   25   27 1    
    50   25  102 1    
    51   26  103 1    
    52   26  104 1    
    53   26  105 1    
    54   27   28 am   BACKBONE|DICT|INTERRES
    55   27  106 1    
    56   28   29 2    
    57   28   30 1    
    58   30   31 1    
    59   30   32 1    
    60   30  107 1    
    61   31  108 1    
    62   31  109 1    
    63   31  110 1    
    64   32   33 am   BACKBONE|DICT|INTERRES
    65   32  111 1    
    66   33   34 2    
    67   33   35 1    
    68   35   36 1    
    69   35   37 1    
    70   35  112 1    
    71   36  113 1    
    72   36  114 1    
    73   36  115 1    
    74   37   38 am   BACKBONE|DICT|INTERRES
    75   37  116 1    
    76   38   39 2    
    77   38   40 1    
    78   40   41 1    
    79   40   42 1    
    80   40  117 1    
    81   41  118 1    
    82   41  119 1    
    83   41  120 1    
    84   42   43 am   BACKBONE|DICT|INTERRES
    85   42  121 1    
    86   43   44 2    
    87   43   45 1    
    88   45   46 1    
    89   45   47 1    
    90   45  122 1    
    91   46  123 1    
    92   46  124 1    
    93   46  125 1    
    94   47   48 am   BACKBONE|DICT|INTERRES
    95   47  126 1    
    96   48   49 2    
    97   48   50 1    
    98   50   51 1    
    99   50   52 1    
   100   50  127 1    
   101   51  128 1    
   102   51  129 1    
   103   51  130 1    
   104   52   53 am   BACKBONE|DICT|INTERRES
   105   52  131 1    
   106   53   54 2    
   107   53   55 1    
   108   55   56 1    
   109   55   59 1    
   110   55  132 1    
   111   56   57 1    
   112   56  133 1    
   113   56  134 1    
   114   57   58 1    
   115   58  135 1    
   116   58  136 1    
   117   59   60 am   BACKBONE|DICT|INTERRES
   118   59  137 1    
   119   60   61 2    
   120   60   62 1    
   121   62   63 1    
   122   62   64 1    
   123   62  138 1    
   124   63  139 1    
   125   63  140 1    
   126   63  141 1    
   127   64   65 am   BACKBONE|DICT|INTERRES
   128   64  142 1    
   129   65   66 2    
   130   65   67 1    
   131   67   68 1    
   132   67   69 1    
   133   67  143 1    
   134   68  144 1    
   135   68  145 1    
   136   68  146 1    
   137   69   70 am   BACKBONE|DICT|INTERRES
   138   69  147 1    
   139   70   71 2    
   140   70   72 1    
   141   72   73 1    
   142   72   74 1    
   143   72  148 1    
   144   73  149 1    
   145   73  150 1    
   146   73  151 1    
   147   74   75 am   BACKBONE|DICT|INTERRES
   148   74  152 1    
   149   75   76 2    
   150   75   77 1    
   151   77   78 1    
   152   77   79 1    
   153   77  153 1    
   154   78  154 1    
   155   78  155 1    
   156   78  156 1    
   157   79   80 am   BACKBONE|DICT|INTERRES
   158   79  157 1    
   159   80   81 2    
@<TRIPOS>SUBSTRUCTURE
     1 UNK         1 GROUP             0       ****    0 ROOT    
