@<TRIPOS>MOLECULE
3R207
157   159    1
SMALL
USER_CHARGES


@<TRIPOS>ATOM
      1 CA        -51.2739  -29.5215    1.4789 C.3       0 UNK        -0.1975 
      2 C         -50.9301  -28.1953    2.1409 C.2       0 UNK         0.4852 
      3 O         -50.7923  -27.1858    1.4490 O.2       0 UNK        -0.5216 
      4 N         -50.7966  -28.1927    3.4744 N.am      1 UNK        -0.4461 
      5 CA        -50.4637  -27.0212    4.2956 C.3       1 UNK         0.0864 
      6 C6        -50.5890  -27.3323    5.8048 C.3       14 UNK        -0.0898 
      7 S7        -52.2901  -27.7600    6.3093 S.3       14 UNK        -0.2598 
      8 C8        -52.3626  -27.0466    7.9873 C.3       14 UNK         0.0286 
      9 C9        -51.7760  -27.9737    9.0494 C.ar      14 UNK        -0.0844 
     10 C10       -50.4185  -28.3113    9.0382 C.ar      14 UNK        -0.0881 
     11 C11       -49.8886  -29.1862    9.9894 C.ar      14 UNK        -0.0643 
     12 C12       -50.7165  -29.6878   10.9975 C.ar      14 UNK        -0.0930 
     13 C13       -52.0675  -29.3289   11.0475 C.ar      14 UNK        -0.0827 
     14 C14       -52.5918  -28.4800   10.0663 C.ar      14 UNK        -0.1249 
     15 C15       -52.9482  -29.8172   12.1882 C.3       14 UNK         0.0141 
     16 S16       -54.3979  -30.7532   11.6130 S.3       14 UNK        -0.2313 
     17 C17       -55.4103  -30.7602   13.1330 C.3       14 UNK        -0.0915 
     18 CA        -56.5026  -29.6552   13.1193 C.3       13 UNK         0.0968 
     19 C         -57.5204  -29.8142   14.2866 C.2       13 UNK         0.5732 
     20 N         -57.8791  -28.7642   15.0185 N.am      13 UNK        -0.7310 
     21 O         -58.0225  -30.9115   14.5198 O.2       13 UNK        -0.5035 
     22 N         -55.9032  -28.3145   13.0765 N.am      13 UNK        -0.4233 
     23 C         -56.1610  -27.3740   12.1600 C.2       13 UNK         0.4989 
     24 O         -56.9001  -27.5509   11.1900 O.2       13 UNK        -0.4996 
     25 CA        -55.4709  -26.0040   12.3414 C.3       12 UNK         0.0216 
     26 CB        -56.3291  -24.8382   11.8076 C.3       12 UNK        -0.1964 
     27 N         -55.0218  -25.7196   13.7107 N.am      12 UNK        -0.4276 
     28 C         -55.7580  -25.6876   14.8295 C.2       12 UNK         0.5020 
     29 O         -56.9701  -25.9135   14.8584 O.2       12 UNK        -0.5489 
     30 CA        -54.9868  -25.4197   16.1387 C.3       11 UNK         0.0294 
     31 CB        -55.8693  -25.6089   17.3900 C.3       11 UNK        -0.2019 
     32 N         -53.7535  -26.2097   16.2801 N.am      11 UNK        -0.4493 
     33 C         -53.6122  -27.5393   16.1534 C.2       11 UNK         0.4932 
     34 O         -54.5144  -28.2875   15.7737 O.2       11 UNK        -0.5029 
     35 CA        -52.2426  -28.1469   16.5148 C.3       10 UNK         0.0280 
     36 CB        -51.8713  -29.3259   15.6005 C.3       10 UNK        -0.1976 
     37 N         -51.1518  -27.1687   16.4869 N.am      10 UNK        -0.4242 
     38 C         -50.6536  -26.5415   17.5604 C.2       10 UNK         0.5072 
     39 O         -51.0908  -26.6829   18.7031 O.2       10 UNK        -0.5224 
     40 CA        -49.4715  -25.5850   17.3228 C.3       9 UNK         0.0343 
     41 CB        -48.1564  -26.3713   17.2033 C.3       9 UNK        -0.2003 
     42 N         -49.6380  -24.7226   16.1497 N.am      9 UNK        -0.4272 
     43 C         -50.5994  -23.7962   16.0174 C.2       9 UNK         0.4988 
     44 O         -51.4648  -23.5765   16.8657 O.2       9 UNK        -0.5108 
     45 CA        -50.6139  -22.9932   14.7060 C.3       8 UNK         0.0248 
     46 CB        -49.5197  -21.9136   14.7080 C.3       8 UNK        -0.2001 
     47 N         -50.4647  -23.8439   13.5256 N.am      8 UNK        -0.4140 
     48 C         -51.3410  -24.7882   13.1572 C.2       8 UNK         0.5028 
     49 O         -52.4007  -25.0075   13.7399 O.2       8 UNK        -0.5428 
     50 CA        -50.9489  -25.6686   11.9639 C.3       7 UNK         0.0264 
     51 CB        -51.1469  -24.9120   10.6404 C.3       7 UNK        -0.1988 
     52 N         -49.5707  -26.1500   12.0678 N.am      7 UNK        -0.4454 
     53 C         -49.1112  -26.9391   13.0512 C.2       7 UNK         0.5027 
     54 O         -49.8081  -27.3638   13.9717 O.2       7 UNK        -0.5083 
     55 CA        -47.6051  -27.2620   13.0481 C.3       6 UNK         0.0844 
     56 C56       -47.2805  -28.5475   12.2497 C.3       14 UNK        -0.0967 
     57 S57       -47.2810  -28.3192   10.4362 S.3       14 UNK        -0.2604 
     58 C58       -48.4322  -29.6164    9.8883 C.3       14 UNK         0.0134 
     59 N         -46.7996  -26.1167   12.6221 N.am      6 UNK        -0.4116 
     60 C         -46.6889  -24.9661   13.2977 C.2       5 UNK         0.5034 
     61 O         -47.2005  -24.7584   14.3987 O.2       5 UNK        -0.5045 
     62 CA        -45.9271  -23.8395   12.5834 C.3       5 UNK         0.0224 
     63 CB        -44.4089  -24.0715   12.6525 C.3       5 UNK        -0.1978 
     64 N         -46.3430  -23.6762   11.1842 N.am      5 UNK        -0.4737 
     65 C         -47.5720  -23.2925   10.8069 C.2       4 UNK         0.5027 
     66 O         -48.4785  -23.0653   11.6066 O.2       4 UNK        -0.5211 
     67 CA        -47.8519  -23.1266    9.3043 C.3       4 UNK         0.0297 
     68 CB        -47.8874  -21.6335    8.9398 C.3       4 UNK        -0.1993 
     69 N         -46.8620  -23.8011    8.4595 N.am      4 UNK        -0.4486 
     70 C         -47.0445  -24.9928    7.8779 C.2       3 UNK         0.4961 
     71 O         -48.0628  -25.6787    7.9938 O.2       3 UNK        -0.5105 
     72 CA        -45.8809  -25.5082    7.0254 C.3       3 UNK         0.0299 
     73 CB        -44.9378  -26.3962    7.8548 C.3       3 UNK        -0.1972 
     74 N         -46.4203  -26.2721    5.9040 N.am      3 UNK        -0.4305 
     75 C         -45.9165  -26.2841    4.6634 C.2       2 UNK         0.5006 
     76 O         -44.8849  -25.6912    4.3434 O.2       2 UNK        -0.5106 
     77 CA        -46.6679  -27.0905    3.5841 C.3       2 UNK         0.0296 
     78 CB        -45.9353  -28.4123    3.2980 C.3       2 UNK        -0.2002 
     79 N         -48.0718  -27.3838    3.8908 N.am      2 UNK        -0.4032 
     80 C         -49.0529  -26.4740    3.9926 C.2       1 UNK         0.5000 
     81 O         -48.8831  -25.2608    3.8599 O.2       1 UNK        -0.5238 
     82 H82       -50.4946  -29.7998    0.7700 H         1 UNK         0.0889 
     83 H83       -52.2146  -29.4365    0.9356 H         1 UNK         0.0889 
     84 H84       -51.3744  -30.3271    2.2060 H         1 UNK         0.0889 
     85 H85       -50.9610  -29.0475    3.9872 H         1 UNK         0.3028 
     86 H86       -51.1753  -26.2306    4.0470 H         1 UNK         0.0864 
     87 H87       -50.2559  -26.4732    6.3911 H         1 UNK         0.0720 
     88 H88       -49.9352  -28.1640    6.0726 H         1 UNK         0.0720 
     89 H89       -53.4078  -26.8317    8.2149 H         1 UNK         0.0814 
     90 H90       -51.8533  -26.0836    8.0021 H         1 UNK         0.0814 
     91 H91       -49.7618  -27.9022    8.2862 H         1 UNK         0.1469 
     92 H92       -50.3068  -30.3524   11.7454 H         1 UNK         0.1381 
     93 H93       -53.6382  -28.2090   10.1035 H         1 UNK         0.1206 
     94 H94       -53.2720  -28.9496   12.7631 H         1 UNK         0.0813 
     95 H95       -52.3826  -30.4542   12.8690 H         1 UNK         0.0813 
     96 H96       -54.7682  -30.6585   14.0100 H         1 UNK         0.0638 
     97 H97       -55.8661  -31.7492   13.2044 H         1 UNK         0.0638 
     98 H98       -57.1004  -29.8118   12.2202 H         1 UNK         0.0568 
     99 H99       -57.4955  -27.8409   14.8436 H         1 UNK         0.3450 
    100 H100      -58.5455  -28.8934   15.7623 H         1 UNK         0.3450 
    101 H101      -55.3351  -28.0785   13.8830 H         1 UNK         0.2987 
    102 H102      -54.5637  -26.0490   11.7369 H         1 UNK         0.0766 
    103 H103      -55.8117  -23.8848   11.9142 H         1 UNK         0.0798 
    104 H104      -57.2806  -24.7649   12.3353 H         1 UNK         0.0798 
    105 H105      -56.5527  -24.9651   10.7476 H         1 UNK         0.0798 
    106 H106      -54.0220  -25.5142   13.8037 H         1 UNK         0.3198 
    107 H107      -54.6790  -24.3734   16.1014 H         1 UNK         0.0843 
    108 H108      -56.2268  -26.6357   17.4771 H         1 UNK         0.0831 
    109 H109      -56.7455  -24.9602   17.3543 H         1 UNK         0.0831 
    110 H110      -55.3239  -25.3647   18.3015 H         1 UNK         0.0831 
    111 H111      -52.9284  -25.6807   16.5309 H         1 UNK         0.3133 
    112 H112      -52.3486  -28.5477   17.5247 H         1 UNK         0.0566 
    113 H113      -50.9437  -29.7982   15.9236 H         1 UNK         0.0814 
    114 H114      -52.6431  -30.0966   15.6018 H         1 UNK         0.0814 
    115 H115      -51.7320  -28.9943   14.5740 H         1 UNK         0.0814 
    116 H116      -50.7117  -27.0193   15.5801 H         1 UNK         0.3091 
    117 H117      -49.3954  -24.9342   18.1964 H         1 UNK         0.0702 
    118 H118      -47.3006  -25.7021   17.1115 H         1 UNK         0.0785 
    119 H119      -48.1594  -27.0316   16.3359 H         1 UNK         0.0785 
    120 H120      -47.9903  -26.9913   18.0853 H         1 UNK         0.0785 
    121 H121      -48.9417  -24.8112   15.4156 H         1 UNK         0.2998 
    122 H122      -51.5828  -22.4948   14.6327 H         1 UNK         0.0697 
    123 H123      -48.5204  -22.3487   14.7445 H         1 UNK         0.0825 
    124 H124      -49.6222  -21.2544   15.5710 H         1 UNK         0.0825 
    125 H125      -49.5774  -21.2913   13.8146 H         1 UNK         0.0825 
    126 H126      -49.6417  -23.6909   12.9460 H         1 UNK         0.3029 
    127 H127      -51.5962  -26.5474   11.9621 H         1 UNK         0.0897 
    128 H128      -50.7781  -23.8877   10.6877 H         1 UNK         0.0792 
    129 H129      -52.2057  -24.8584   10.3853 H         1 UNK         0.0792 
    130 H130      -50.6309  -25.4055    9.8181 H         1 UNK         0.0792 
    131 H131      -48.9268  -25.8540   11.3499 H         1 UNK         0.3086 
    132 H132      -47.3360  -27.4630   14.0871 H         1 UNK         0.0583 
    133 H133      -46.2860  -28.8981   12.5297 H         1 UNK         0.1020 
    134 H134      -47.9578  -29.3554   12.5334 H         1 UNK         0.1020 
    135 H135      -48.2078  -29.8553    8.8477 H         1 UNK         0.0694 
    136 H136      -48.2538  -30.5346   10.4499 H         1 UNK         0.0694 
    137 H137      -46.3642  -26.1954   11.7147 H         1 UNK         0.2989 
    138 H138      -46.1545  -22.9101   13.1110 H         1 UNK         0.1055 
    139 H139      -44.0799  -24.1898   13.6861 H         1 UNK         0.0806 
    140 H140      -43.8601  -23.2265   12.2362 H         1 UNK         0.0806 
    141 H141      -44.1067  -24.9680   12.1098 H         1 UNK         0.0806 
    142 H142      -45.6475  -23.8453   10.4733 H         1 UNK         0.3061 
    143 H143      -48.8444  -23.5394    9.1126 H         1 UNK         0.0734 
    144 H144      -46.9278  -21.1476    9.1205 H         1 UNK         0.0832 
    145 H145      -48.1464  -21.4878    7.8910 H         1 UNK         0.0832 
    146 H146      -48.6361  -21.1053    9.5323 H         1 UNK         0.0832 
    147 H147      -45.9994  -23.3035    8.2870 H         1 UNK         0.3156 
    148 H148      -45.3244  -24.6463    6.6505 H         1 UNK         0.0589 
    149 H149      -45.4485  -27.2842    8.2287 H         1 UNK         0.0808 
    150 H150      -44.0852  -26.7278    7.2619 H         1 UNK         0.0808 
    151 H151      -44.5432  -25.8573    8.7169 H         1 UNK         0.0808 
    152 H152      -47.2989  -26.7352    6.0933 H         1 UNK         0.3098 
    153 H153      -46.6521  -26.4905    2.6718 H         1 UNK         0.0720 
    154 H154      -46.3936  -28.9498    2.4675 H         1 UNK         0.0791 
    155 H155      -45.9357  -29.0704    4.1679 H         1 UNK         0.0791 
    156 H156      -44.8939  -28.2318    3.0272 H         1 UNK         0.0791 
    157 H157      -48.3141  -28.3576    4.0024 H         1 UNK         0.3028 
@<TRIPOS>BOND
     1    1    2 1    
     2    1   82 1    
     3    1   83 1    
     4    1   84 1    
     5    2    3 2    
     6    2    4 am   BACKBONE|DICT|INTERRES
     7    4    5 1    
     8    4   85 1    
     9    5    6 1    
    10    5   80 1    
    11    5   86 1    
    12    6    7 1    
    13    6   87 1    
    14    6   88 1    
    15    7    8 1    
    16    8    9 1    
    17    8   89 1    
    18    8   90 1    
    19    9   10 ar   
    20    9   14 ar   
    21   10   11 ar   
    22   10   91 1    
    23   11   12 ar   
    24   11   58 1    
    25   12   13 ar   
    26   12   92 1    
    27   13   14 ar   
    28   13   15 1    
    29   14   93 1    
    30   15   16 1    
    31   15   94 1    
    32   15   95 1    
    33   16   17 1    
    34   17   18 1    
    35   17   96 1    
    36   17   97 1    
    37   18   19 1    
    38   18   22 1    
    39   18   98 1    
    40   19   20 am   BACKBONE|DICT|INTERRES
    41   19   21 2    
    42   20   99 1    
    43   20  100 1    
    44   22   23 am   BACKBONE|DICT|INTERRES
    45   22  101 1    
    46   23   24 2    
    47   23   25 1    
    48   25   26 1    
    49   25   27 1    
    50   25  102 1    
    51   26  103 1    
    52   26  104 1    
    53   26  105 1    
    54   27   28 am   BACKBONE|DICT|INTERRES
    55   27  106 1    
    56   28   29 2    
    57   28   30 1    
    58   30   31 1    
    59   30   32 1    
    60   30  107 1    
    61   31  108 1    
    62   31  109 1    
    63   31  110 1    
    64   32   33 am   BACKBONE|DICT|INTERRES
    65   32  111 1    
    66   33   34 2    
    67   33   35 1    
    68   35   36 1    
    69   35   37 1    
    70   35  112 1    
    71   36  113 1    
    72   36  114 1    
    73   36  115 1    
    74   37   38 am   BACKBONE|DICT|INTERRES
    75   37  116 1    
    76   38   39 2    
    77   38   40 1    
    78   40   41 1    
    79   40   42 1    
    80   40  117 1    
    81   41  118 1    
    82   41  119 1    
    83   41  120 1    
    84   42   43 am   BACKBONE|DICT|INTERRES
    85   42  121 1    
    86   43   44 2    
    87   43   45 1    
    88   45   46 1    
    89   45   47 1    
    90   45  122 1    
    91   46  123 1    
    92   46  124 1    
    93   46  125 1    
    94   47   48 am   BACKBONE|DICT|INTERRES
    95   47  126 1    
    96   48   49 2    
    97   48   50 1    
    98   50   51 1    
    99   50   52 1    
   100   50  127 1    
   101   51  128 1    
   102   51  129 1    
   103   51  130 1    
   104   52   53 am   BACKBONE|DICT|INTERRES
   105   52  131 1    
   106   53   54 2    
   107   53   55 1    
   108   55   56 1    
   109   55   59 1    
   110   55  132 1    
   111   56   57 1    
   112   56  133 1    
   113   56  134 1    
   114   57   58 1    
   115   58  135 1    
   116   58  136 1    
   117   59   60 am   BACKBONE|DICT|INTERRES
   118   59  137 1    
   119   60   61 2    
   120   60   62 1    
   121   62   63 1    
   122   62   64 1    
   123   62  138 1    
   124   63  139 1    
   125   63  140 1    
   126   63  141 1    
   127   64   65 am   BACKBONE|DICT|INTERRES
   128   64  142 1    
   129   65   66 2    
   130   65   67 1    
   131   67   68 1    
   132   67   69 1    
   133   67  143 1    
   134   68  144 1    
   135   68  145 1    
   136   68  146 1    
   137   69   70 am   BACKBONE|DICT|INTERRES
   138   69  147 1    
   139   70   71 2    
   140   70   72 1    
   141   72   73 1    
   142   72   74 1    
   143   72  148 1    
   144   73  149 1    
   145   73  150 1    
   146   73  151 1    
   147   74   75 am   BACKBONE|DICT|INTERRES
   148   74  152 1    
   149   75   76 2    
   150   75   77 1    
   151   77   78 1    
   152   77   79 1    
   153   77  153 1    
   154   78  154 1    
   155   78  155 1    
   156   78  156 1    
   157   79   80 am   BACKBONE|DICT|INTERRES
   158   79  157 1    
   159   80   81 2    
@<TRIPOS>SUBSTRUCTURE
     1 UNK         1 GROUP             0       ****    0 ROOT    
