@<TRIPOS>MOLECULE
3R207
157   159    1
SMALL
USER_CHARGES


@<TRIPOS>ATOM
      1 CA        -45.9816  -30.8894    3.5259 C.3       0 UNK        -0.1975 
      2 C         -47.1690  -30.0069    3.8816 C.2       0 UNK         0.4852 
      3 O         -47.8020  -29.4460    2.9865 O.2       0 UNK        -0.5216 
      4 N         -47.4754  -29.8861    5.1806 N.am      1 UNK        -0.4461 
      5 CA        -48.5743  -29.0762    5.7220 C.3       1 UNK         0.0864 
      6 C6        -48.7941  -29.3553    7.2290 C.3       14 UNK        -0.0898 
      7 S7        -49.4467  -31.0271    7.5642 S.3       14 UNK        -0.2598 
      8 C8        -51.2440  -30.8264    7.3124 C.3       14 UNK         0.0286 
      9 C9        -51.8548  -29.7837    8.2385 C.ar      14 UNK        -0.0844 
     10 C10       -52.0646  -28.4825    7.7758 C.ar      14 UNK        -0.0881 
     11 C11       -52.5750  -27.4984    8.6243 C.ar      14 UNK        -0.0643 
     12 C12       -52.9184  -27.8314    9.9373 C.ar      14 UNK        -0.0930 
     13 C13       -52.7405  -29.1373   10.4049 C.ar      14 UNK        -0.0827 
     14 C14       -52.2036  -30.1093    9.5531 C.ar      14 UNK        -0.1249 
     15 C15       -53.1098  -29.4910   11.8361 C.3       14 UNK         0.0141 
     16 S16       -54.8520  -29.9899   11.9662 S.3       14 UNK        -0.2313 
     17 C17       -54.9342  -30.4409   13.7313 C.3       14 UNK        -0.0915 
     18 CA        -56.3471  -30.2250   14.3327 C.3       13 UNK         0.0968 
     19 C         -56.4431  -30.8384   15.7573 C.2       13 UNK         0.5732 
     20 N         -56.6290  -32.1482   15.8531 N.am      13 UNK        -0.7310 
     21 O         -56.3225  -30.1529   16.7717 O.2       13 UNK        -0.5035 
     22 N         -56.7447  -28.8098   14.3037 N.am      13 UNK        -0.4233 
     23 C         -58.0032  -28.3760   14.4688 C.2       13 UNK         0.4989 
     24 O         -58.9715  -29.1307   14.5763 O.2       13 UNK        -0.4996 
     25 CA        -58.2507  -26.8545   14.5343 C.3       12 UNK         0.0216 
     26 CB        -58.5640  -26.4257   15.9779 C.3       12 UNK        -0.1964 
     27 N         -57.1341  -26.0509   14.0362 N.am      12 UNK        -0.4276 
     28 C         -56.7658  -25.9491   12.7528 C.2       12 UNK         0.5020 
     29 O         -57.4124  -26.4248   11.8189 O.2       12 UNK        -0.5489 
     30 CA        -55.4467  -25.2073   12.4549 C.3       11 UNK         0.0294 
     31 CB        -55.7249  -23.8492   11.7902 C.3       11 UNK        -0.2019 
     32 N         -54.5612  -25.0016   13.6114 N.am      11 UNK        -0.4493 
     33 C         -54.0075  -25.9714   14.3524 C.2       11 UNK         0.4932 
     34 O         -54.2716  -27.1650   14.2115 O.2       11 UNK        -0.5029 
     35 CA        -53.0348  -25.5165   15.4504 C.3       10 UNK         0.0280 
     36 CB        -53.6774  -25.5789   16.8505 C.3       10 UNK        -0.1976 
     37 N         -51.7689  -26.2507   15.3601 N.am      10 UNK        -0.4242 
     38 C         -51.4812  -27.5079   15.7303 C.2       10 UNK         0.5072 
     39 O         -52.2246  -28.2376   16.3872 O.2       10 UNK        -0.5224 
     40 CA        -50.1164  -28.0641   15.2859 C.3       9 UNK         0.0343 
     41 CB        -50.2812  -28.9409   14.0345 C.3       9 UNK        -0.2003 
     42 N         -49.1130  -27.0294   15.0167 N.am      9 UNK        -0.4272 
     43 C         -48.4370  -26.3697   15.9679 C.2       9 UNK         0.4988 
     44 O         -48.6035  -26.5485   17.1751 O.2       9 UNK        -0.5108 
     45 CA        -47.3871  -25.3479   15.4981 C.3       8 UNK         0.0248 
     46 CB        -46.1199  -26.0609   14.9988 C.3       8 UNK        -0.2001 
     47 N         -47.8866  -24.4406   14.4624 N.am      8 UNK        -0.4140 
     48 C         -48.8309  -23.5098   14.6633 C.2       8 UNK         0.5028 
     49 O         -49.3669  -23.2981   15.7515 O.2       8 UNK        -0.5428 
     50 CA        -49.2672  -22.6810   13.4427 C.3       7 UNK         0.0264 
     51 CB        -48.2805  -21.5326   13.1777 C.3       7 UNK        -0.1988 
     52 N         -49.4264  -23.4842   12.2288 N.am      7 UNK        -0.4454 
     53 C         -50.3260  -24.4690   12.0842 C.2       7 UNK         0.5027 
     54 O         -51.1419  -24.7812   12.9491 O.2       7 UNK        -0.5083 
     55 CA        -50.2917  -25.2562   10.7603 C.3       6 UNK         0.0844 
     56 C56       -51.0244  -24.4365    9.6679 C.3       14 UNK        -0.0967 
     57 S57       -51.1136  -25.2406    8.0376 S.3       14 UNK        -0.2604 
     58 C58       -52.7286  -26.0783    8.1084 C.3       14 UNK         0.0134 
     59 N         -48.9212  -25.6562   10.4095 N.am      6 UNK        -0.4116 
     60 C         -48.1275  -26.4055   11.1949 C.2       5 UNK         0.5034 
     61 O         -48.4926  -26.9178   12.2518 O.2       5 UNK        -0.5045 
     62 CA        -46.6533  -26.5478   10.7909 C.3       5 UNK         0.0224 
     63 CB        -46.4440  -27.7049    9.8041 C.3       5 UNK        -0.1978 
     64 N         -46.1237  -25.3032   10.2357 N.am      5 UNK        -0.4737 
     65 C         -45.8432  -24.2168   10.9683 C.2       4 UNK         0.5027 
     66 O         -45.9445  -24.1777   12.1943 O.2       4 UNK        -0.5211 
     67 CA        -45.4193  -22.9522   10.2012 C.3       4 UNK         0.0297 
     68 CB        -43.9074  -22.9691    9.9275 C.3       4 UNK        -0.1993 
     69 N         -46.1461  -22.7855    8.9392 N.am      4 UNK        -0.4486 
     70 C         -47.4630  -22.5500    8.8549 C.2       3 UNK         0.4961 
     71 O         -48.1888  -22.3836    9.8353 O.2       3 UNK        -0.5105 
     72 CA        -48.0858  -22.5451    7.4456 C.3       3 UNK         0.0299 
     73 CB        -48.0334  -21.1324    6.8435 C.3       3 UNK        -0.1972 
     74 N         -47.4906  -23.5042    6.5029 N.am      3 UNK        -0.4305 
     75 C         -47.3913  -24.8259    6.7061 C.2       2 UNK         0.5006 
     76 O         -47.7065  -25.3766    7.7613 O.2       2 UNK        -0.5106 
     77 CA        -46.7750  -25.6585    5.5673 C.3       2 UNK         0.0296 
     78 CB        -45.2414  -25.5463    5.5986 C.3       2 UNK        -0.2002 
     79 N         -47.1425  -27.0757    5.6551 N.am      2 UNK        -0.4032 
     80 C         -48.3795  -27.5637    5.4754 C.2       1 UNK         0.5000 
     81 O         -49.3407  -26.8826    5.1128 O.2       1 UNK        -0.5238 
     82 H82       -45.2251  -30.3066    3.0012 H         1 UNK         0.0889 
     83 H83       -46.3004  -31.7013    2.8726 H         1 UNK         0.0889 
     84 H84       -45.5190  -31.3279    4.4099 H         1 UNK         0.0889 
     85 H85       -46.9374  -30.4008    5.8635 H         1 UNK         0.3028 
     86 H86       -49.4827  -29.3602    5.1865 H         1 UNK         0.0864 
     87 H87       -47.8455  -29.2763    7.7588 H         1 UNK         0.0720 
     88 H88       -49.4390  -28.6084    7.6915 H         1 UNK         0.0720 
     89 H89       -51.7308  -31.7886    7.4780 H         1 UNK         0.0814 
     90 H90       -51.4347  -30.5696    6.2694 H         1 UNK         0.0814 
     91 H91       -51.7909  -28.2196    6.7627 H         1 UNK         0.1469 
     92 H92       -53.3142  -27.0748   10.5991 H         1 UNK         0.1381 
     93 H93       -52.0493  -31.1168    9.9146 H         1 UNK         0.1206 
     94 H94       -52.9295  -28.6366   12.4889 H         1 UNK         0.0813 
     95 H95       -52.4740  -30.3000   12.1985 H         1 UNK         0.0813 
     96 H96       -54.6350  -31.4876   13.8108 H         1 UNK         0.0638 
     97 H97       -54.1933  -29.8682   14.2929 H         1 UNK         0.0638 
     98 H98       -57.0577  -30.7688   13.7067 H         1 UNK         0.0568 
     99 H99       -56.6831  -32.5687   16.7675 H         1 UNK         0.3450 
    100 H100      -56.7217  -32.7240   15.0308 H         1 UNK         0.3450 
    101 H101      -55.9821  -28.1422   14.2413 H         1 UNK         0.2987 
    102 H102      -59.1250  -26.6411   13.9157 H         1 UNK         0.0766 
    103 H103      -57.7227  -26.6142   16.6464 H         1 UNK         0.0798 
    104 H104      -59.4206  -26.9750   16.3713 H         1 UNK         0.0798 
    105 H105      -58.8094  -25.3650   16.0342 H         1 UNK         0.0798 
    106 H106      -56.5352  -25.6248   14.7279 H         1 UNK         0.3198 
    107 H107      -54.9022  -25.8270   11.7410 H         1 UNK         0.0843 
    108 H108      -54.8019  -23.3676   11.4666 H         1 UNK         0.0831 
    109 H109      -56.2433  -23.1681   12.4662 H         1 UNK         0.0831 
    110 H110      -56.3514  -23.9679   10.9048 H         1 UNK         0.0831 
    111 H111      -54.2954  -24.0460   13.8033 H         1 UNK         0.3133 
    112 H112      -52.7694  -24.4752   15.2607 H         1 UNK         0.0566 
    113 H113      -54.5053  -24.8734   16.9273 H         1 UNK         0.0814 
    114 H114      -54.0798  -26.5678   17.0731 H         1 UNK         0.0814 
    115 H115      -52.9590  -25.3238   17.6294 H         1 UNK         0.0814 
    116 H116      -51.0907  -25.7942   14.7597 H         1 UNK         0.3091 
    117 H117      -49.7457  -28.6998   16.0930 H         1 UNK         0.0702 
    118 H118      -49.3397  -29.4135   13.7543 H         1 UNK         0.0785 
    119 H119      -50.6273  -28.3573   13.1806 H         1 UNK         0.0785 
    120 H120      -51.0065  -29.7370   14.2075 H         1 UNK         0.0785 
    121 H121      -48.8924  -26.8558   14.0370 H         1 UNK         0.2998 
    122 H122      -47.1090  -24.7401   16.3619 H         1 UNK         0.0697 
    123 H123      -45.3414  -25.3459   14.7318 H         1 UNK         0.0825 
    124 H124      -45.7099  -26.7139   15.7704 H         1 UNK         0.0825 
    125 H125      -46.3214  -26.6778   14.1230 H         1 UNK         0.0825 
    126 H126      -47.4480  -24.5013   13.5487 H         1 UNK         0.3029 
    127 H127      -50.2406  -22.2437   13.6756 H         1 UNK         0.0897 
    128 H128      -48.6241  -20.8955   12.3624 H         1 UNK         0.0792 
    129 H129      -48.1710  -20.9006   14.0600 H         1 UNK         0.0792 
    130 H130      -47.2889  -21.9026   12.9156 H         1 UNK         0.0792 
    131 H131      -48.8308  -23.2451   11.4393 H         1 UNK         0.3086 
    132 H132      -50.8513  -26.1790   10.9213 H         1 UNK         0.0583 
    133 H133      -52.0379  -24.1947    9.9940 H         1 UNK         0.1020 
    134 H134      -50.5348  -23.4733    9.5213 H         1 UNK         0.1020 
    135 H135      -53.4358  -25.5117    8.7156 H         1 UNK         0.0694 
    136 H136      -53.1498  -26.1064    7.1024 H         1 UNK         0.0694 
    137 H137      -48.5590  -25.3338    9.5164 H         1 UNK         0.2989 
    138 H138      -46.0893  -26.7824   11.6962 H         1 UNK         0.1055 
    139 H139      -46.8474  -28.6365   10.2038 H         1 UNK         0.0806 
    140 H140      -45.3849  -27.8681    9.6049 H         1 UNK         0.0806 
    141 H141      -46.9371  -27.5169    8.8532 H         1 UNK         0.0806 
    142 H142      -46.1242  -25.2249    9.2269 H         1 UNK         0.3061 
    143 H143      -45.6425  -22.0911   10.8350 H         1 UNK         0.0734 
    144 H144      -43.5786  -22.0433    9.4552 H         1 UNK         0.0832 
    145 H145      -43.3459  -23.0735   10.8571 H         1 UNK         0.0832 
    146 H146      -43.6210  -23.7987    9.2797 H         1 UNK         0.0832 
    147 H147      -45.6237  -22.9056    8.0838 H         1 UNK         0.3156 
    148 H148      -49.1352  -22.8228    7.5584 H         1 UNK         0.0589 
    149 H149      -47.0084  -20.8080    6.6597 H         1 UNK         0.0808 
    150 H150      -48.5775  -21.0815    5.9002 H         1 UNK         0.0808 
    151 H151      -48.4897  -20.4046    7.5164 H         1 UNK         0.0808 
    152 H152      -47.1864  -23.1299    5.6153 H         1 UNK         0.3098 
    153 H153      -47.1427  -25.2702    4.6153 H         1 UNK         0.0720 
    154 H154      -44.9179  -24.5102    5.4904 H         1 UNK         0.0791 
    155 H155      -44.8280  -25.9205    6.5364 H         1 UNK         0.0791 
    156 H156      -44.7862  -26.1094    4.7835 H         1 UNK         0.0791 
    157 H157      -46.4194  -27.7118    5.9547 H         1 UNK         0.3028 
@<TRIPOS>BOND
     1    1    2 1    
     2    1   82 1    
     3    1   83 1    
     4    1   84 1    
     5    2    3 2    
     6    2    4 am   BACKBONE|DICT|INTERRES
     7    4    5 1    
     8    4   85 1    
     9    5    6 1    
    10    5   80 1    
    11    5   86 1    
    12    6    7 1    
    13    6   87 1    
    14    6   88 1    
    15    7    8 1    
    16    8    9 1    
    17    8   89 1    
    18    8   90 1    
    19    9   10 ar   
    20    9   14 ar   
    21   10   11 ar   
    22   10   91 1    
    23   11   12 ar   
    24   11   58 1    
    25   12   13 ar   
    26   12   92 1    
    27   13   14 ar   
    28   13   15 1    
    29   14   93 1    
    30   15   16 1    
    31   15   94 1    
    32   15   95 1    
    33   16   17 1    
    34   17   18 1    
    35   17   96 1    
    36   17   97 1    
    37   18   19 1    
    38   18   22 1    
    39   18   98 1    
    40   19   20 am   BACKBONE|DICT|INTERRES
    41   19   21 2    
    42   20   99 1    
    43   20  100 1    
    44   22   23 am   BACKBONE|DICT|INTERRES
    45   22  101 1    
    46   23   24 2    
    47   23   25 1    
    48   25   26 1    
    49   25   27 1    
    50   25  102 1    
    51   26  103 1    
    52   26  104 1    
    53   26  105 1    
    54   27   28 am   BACKBONE|DICT|INTERRES
    55   27  106 1    
    56   28   29 2    
    57   28   30 1    
    58   30   31 1    
    59   30   32 1    
    60   30  107 1    
    61   31  108 1    
    62   31  109 1    
    63   31  110 1    
    64   32   33 am   BACKBONE|DICT|INTERRES
    65   32  111 1    
    66   33   34 2    
    67   33   35 1    
    68   35   36 1    
    69   35   37 1    
    70   35  112 1    
    71   36  113 1    
    72   36  114 1    
    73   36  115 1    
    74   37   38 am   BACKBONE|DICT|INTERRES
    75   37  116 1    
    76   38   39 2    
    77   38   40 1    
    78   40   41 1    
    79   40   42 1    
    80   40  117 1    
    81   41  118 1    
    82   41  119 1    
    83   41  120 1    
    84   42   43 am   BACKBONE|DICT|INTERRES
    85   42  121 1    
    86   43   44 2    
    87   43   45 1    
    88   45   46 1    
    89   45   47 1    
    90   45  122 1    
    91   46  123 1    
    92   46  124 1    
    93   46  125 1    
    94   47   48 am   BACKBONE|DICT|INTERRES
    95   47  126 1    
    96   48   49 2    
    97   48   50 1    
    98   50   51 1    
    99   50   52 1    
   100   50  127 1    
   101   51  128 1    
   102   51  129 1    
   103   51  130 1    
   104   52   53 am   BACKBONE|DICT|INTERRES
   105   52  131 1    
   106   53   54 2    
   107   53   55 1    
   108   55   56 1    
   109   55   59 1    
   110   55  132 1    
   111   56   57 1    
   112   56  133 1    
   113   56  134 1    
   114   57   58 1    
   115   58  135 1    
   116   58  136 1    
   117   59   60 am   BACKBONE|DICT|INTERRES
   118   59  137 1    
   119   60   61 2    
   120   60   62 1    
   121   62   63 1    
   122   62   64 1    
   123   62  138 1    
   124   63  139 1    
   125   63  140 1    
   126   63  141 1    
   127   64   65 am   BACKBONE|DICT|INTERRES
   128   64  142 1    
   129   65   66 2    
   130   65   67 1    
   131   67   68 1    
   132   67   69 1    
   133   67  143 1    
   134   68  144 1    
   135   68  145 1    
   136   68  146 1    
   137   69   70 am   BACKBONE|DICT|INTERRES
   138   69  147 1    
   139   70   71 2    
   140   70   72 1    
   141   72   73 1    
   142   72   74 1    
   143   72  148 1    
   144   73  149 1    
   145   73  150 1    
   146   73  151 1    
   147   74   75 am   BACKBONE|DICT|INTERRES
   148   74  152 1    
   149   75   76 2    
   150   75   77 1    
   151   77   78 1    
   152   77   79 1    
   153   77  153 1    
   154   78  154 1    
   155   78  155 1    
   156   78  156 1    
   157   79   80 am   BACKBONE|DICT|INTERRES
   158   79  157 1    
   159   80   81 2    
@<TRIPOS>SUBSTRUCTURE
     1 UNK         1 GROUP             0       ****    0 ROOT    
