@<TRIPOS>MOLECULE
3R207
157   159    1
SMALL
USER_CHARGES


@<TRIPOS>ATOM
      1 CA        -50.2960  -31.7218    2.4122 C.3       0 UNK        -0.1975 
      2 C         -50.5248  -30.2299    2.6060 C.2       0 UNK         0.4852 
      3 O         -49.7494  -29.4209    2.0944 O.2       0 UNK        -0.5216 
      4 N         -51.5882  -29.8604    3.3310 N.am      1 UNK        -0.4461 
      5 CA        -51.9122  -28.4774    3.6879 C.3       1 UNK         0.0864 
      6 C6        -53.4063  -28.3458    4.0764 C.3       14 UNK        -0.0898 
      7 S7        -53.9798  -26.6137    4.1712 S.3       14 UNK        -0.2598 
      8 C8        -54.7807  -26.5608    5.8086 C.3       14 UNK         0.0286 
      9 C9        -53.7749  -26.5204    6.9519 C.ar      14 UNK        -0.0844 
     10 C10       -53.2153  -25.3031    7.3548 C.ar      14 UNK        -0.0881 
     11 C11       -52.3143  -25.2558    8.4234 C.ar      14 UNK        -0.0643 
     12 C12       -51.9639  -26.4401    9.0802 C.ar      14 UNK        -0.0930 
     13 C13       -52.5069  -27.6634    8.6805 C.ar      14 UNK        -0.0827 
     14 C14       -53.4234  -27.6946    7.6255 C.ar      14 UNK        -0.1249 
     15 C15       -52.0880  -28.9516    9.3737 C.3       14 UNK         0.0141 
     16 S16       -52.7072  -29.0187   11.0811 S.3       14 UNK        -0.2313 
     17 C17       -52.3022  -30.7351   11.5359 C.3       14 UNK        -0.0915 
     18 CA        -53.0730  -31.1811   12.8130 C.3       13 UNK         0.0968 
     19 C         -53.1301  -32.7304   12.9987 C.2       13 UNK         0.5732 
     20 N         -53.2911  -33.2387   14.2151 N.am      13 UNK        -0.7310 
     21 O         -53.0653  -33.4869   12.0321 O.2       13 UNK        -0.5035 
     22 N         -52.6650  -30.4294   14.0160 N.am      13 UNK        -0.4233 
     23 C         -51.4967  -30.5413   14.6676 C.2       13 UNK         0.4989 
     24 O         -50.5845  -31.2836   14.3018 O.2       13 UNK        -0.4996 
     25 CA        -51.3018  -29.6980   15.9473 C.3       12 UNK         0.0216 
     26 CB        -49.8668  -29.1535   16.0694 C.3       12 UNK        -0.1964 
     27 N         -52.2381  -28.5770   16.0494 N.am      12 UNK        -0.4276 
     28 C         -53.4702  -28.6273   16.5728 C.2       12 UNK         0.5020 
     29 O         -53.9595  -29.6382   17.0767 O.2       12 UNK        -0.5489 
     30 CA        -54.3098  -27.3401   16.4811 C.3       11 UNK         0.0294 
     31 CB        -54.2543  -26.5692   17.8089 C.3       11 UNK        -0.2019 
     32 N         -53.8837  -26.4682   15.3774 N.am      11 UNK        -0.4493 
     33 C         -54.0894  -26.7567   14.0804 C.2       11 UNK         0.4932 
     34 O         -54.7156  -27.7525   13.7156 O.2       11 UNK        -0.5029 
     35 CA        -53.4540  -25.8398   13.0138 C.3       10 UNK         0.0280 
     36 CB        -54.3721  -25.6260   11.7911 C.3       10 UNK        -0.1976 
     37 N         -52.9425  -24.5692   13.5389 N.am      10 UNK        -0.4242 
     38 C         -53.6537  -23.5364   14.0182 C.2       10 UNK         0.5072 
     39 O         -54.8851  -23.4992   14.0343 O.2       10 UNK        -0.5224 
     40 CA        -52.8476  -22.3533   14.5962 C.3       9 UNK         0.0343 
     41 CB        -53.6735  -21.4963   15.5792 C.3       9 UNK        -0.2003 
     42 N         -51.5716  -22.7440   15.2118 N.am      9 UNK        -0.4272 
     43 C         -51.3879  -23.6180   16.2163 C.2       9 UNK         0.4988 
     44 O         -52.3092  -24.2483   16.7343 O.2       9 UNK        -0.5108 
     45 CA        -49.9440  -23.8702   16.6962 C.3       8 UNK         0.0248 
     46 CB        -49.7155  -25.3554   17.0375 C.3       8 UNK        -0.2001 
     47 N         -48.9674  -23.4653   15.6848 N.am      8 UNK        -0.4140 
     48 C         -48.2879  -22.3101   15.6639 C.2       8 UNK         0.5028 
     49 O         -48.3221  -21.4771   16.5696 O.2       8 UNK        -0.5428 
     50 CA        -47.4618  -22.0117   14.3967 C.3       7 UNK         0.0264 
     51 CB        -45.9772  -22.3310   14.6328 C.3       7 UNK        -0.1988 
     52 N         -47.9443  -22.7404   13.2156 N.am      7 UNK        -0.4454 
     53 C         -49.1141  -22.4826   12.6042 C.2       7 UNK         0.5027 
     54 O         -49.8496  -21.5505   12.9303 O.2       7 UNK        -0.5083 
     55 CA        -49.5966  -23.4560   11.5064 C.3       6 UNK         0.0844 
     56 C56       -49.3873  -22.8476   10.0965 C.3       14 UNK        -0.0967 
     57 S57       -49.9088  -23.9477    8.7393 S.3       14 UNK        -0.2604 
     58 C58       -51.7223  -23.9317    8.8826 C.3       14 UNK         0.0134 
     59 N         -49.0333  -24.8030   11.6587 N.am      6 UNK        -0.4116 
     60 C         -49.3133  -25.6145   12.6909 C.2       5 UNK         0.5034 
     61 O         -50.1250  -25.3242   13.5710 O.2       5 UNK        -0.5045 
     62 CA        -48.5460  -26.9438   12.8112 C.3       5 UNK         0.0224 
     63 CB        -49.4372  -28.1108   12.3605 C.3       5 UNK        -0.1978 
     64 N         -47.2801  -26.9933   12.0759 N.am      5 UNK        -0.4737 
     65 C         -46.2402  -26.1624   12.2408 C.2       4 UNK         0.5027 
     66 O         -46.2076  -25.2745   13.0918 O.2       4 UNK        -0.5211 
     67 CA        -45.0751  -26.2980   11.2394 C.3       4 UNK         0.0297 
     68 CB        -43.9486  -27.1506   11.8436 C.3       4 UNK        -0.1993 
     69 N         -45.4644  -26.8552    9.9342 N.am      4 UNK        -0.4486 
     70 C         -46.4124  -26.3460    9.1338 C.2       3 UNK         0.4961 
     71 O         -47.0429  -25.3211    9.4045 O.2       3 UNK        -0.5105 
     72 CA        -46.7511  -27.1356    7.8602 C.3       3 UNK         0.0299 
     73 CB        -47.0130  -28.6286    8.1579 C.3       3 UNK        -0.1972 
     74 N         -47.9390  -26.5387    7.2569 N.am      3 UNK        -0.4305 
     75 C         -48.3688  -26.7098    6.0040 C.2       2 UNK         0.5006 
     76 O         -47.7585  -27.3471    5.1418 O.2       2 UNK        -0.5106 
     77 CA        -49.6957  -26.0122    5.6588 C.3       2 UNK         0.0296 
     78 CB        -49.4393  -24.5880    5.1386 C.3       2 UNK        -0.2002 
     79 N         -50.5125  -26.7336    4.6816 N.am      2 UNK        -0.4032 
     80 C         -50.9749  -27.9857    4.8110 C.2       1 UNK         0.5000 
     81 O         -50.7278  -28.7306    5.7641 O.2       1 UNK        -0.5238 
     82 H82       -50.3037  -31.9680    1.3507 H         1 UNK         0.0889 
     83 H83       -51.0629  -32.3197    2.9043 H         1 UNK         0.0889 
     84 H84       -49.3279  -32.0086    2.8220 H         1 UNK         0.0889 
     85 H85       -52.1677  -30.5693    3.7572 H         1 UNK         0.3028 
     86 H86       -51.7429  -27.8634    2.8000 H         1 UNK         0.0864 
     87 H87       -54.0243  -28.8379    3.3236 H         1 UNK         0.0720 
     88 H88       -53.6098  -28.8696    5.0108 H         1 UNK         0.0720 
     89 H89       -55.4516  -27.4146    5.9159 H         1 UNK         0.0814 
     90 H90       -55.4160  -25.6750    5.8562 H         1 UNK         0.0814 
     91 H91       -53.4882  -24.3928    6.8388 H         1 UNK         0.1469 
     92 H92       -51.2637  -26.4090    9.9036 H         1 UNK         0.1381 
     93 H93       -53.8549  -28.6379    7.3217 H         1 UNK         0.1206 
     94 H94       -50.9999  -29.0270    9.3761 H         1 UNK         0.0813 
     95 H95       -52.4559  -29.8166    8.8200 H         1 UNK         0.0813 
     96 H96       -52.5647  -31.3653   10.6848 H         1 UNK         0.0638 
     97 H97       -51.2238  -30.8301   11.6702 H         1 UNK         0.0638 
     98 H98       -54.1185  -30.9126   12.6575 H         1 UNK         0.0568 
     99 H99       -53.3389  -34.2388   14.3283 H         1 UNK         0.3450 
    100 H100      -53.3662  -32.6345   15.0176 H         1 UNK         0.3450 
    101 H101      -53.3587  -29.7905   14.3773 H         1 UNK         0.2987 
    102 H102      -51.4691  -30.3733   16.7890 H         1 UNK         0.0766 
    103 H103      -49.6236  -28.4753   15.2536 H         1 UNK         0.0798 
    104 H104      -49.1327  -29.9602   16.0543 H         1 UNK         0.0798 
    105 H105      -49.7271  -28.6139   17.0063 H         1 UNK         0.0798 
    106 H106      -51.9422  -27.7023   15.6416 H         1 UNK         0.3198 
    107 H107      -55.3470  -27.6326   16.3025 H         1 UNK         0.0843 
    108 H108      -54.8258  -25.6422   17.7570 H         1 UNK         0.0831 
    109 H109      -53.2307  -26.3177   18.0889 H         1 UNK         0.0831 
    110 H110      -54.6736  -27.1649   18.6207 H         1 UNK         0.0831 
    111 H111      -53.3783  -25.6247   15.6326 H         1 UNK         0.3133 
    112 H112      -52.5726  -26.3751   12.6588 H         1 UNK         0.0566 
    113 H113      -54.5819  -26.5724   11.2912 H         1 UNK         0.0814 
    114 H114      -55.3317  -25.1917   12.0715 H         1 UNK         0.0814 
    115 H115      -53.9085  -24.9723   11.0535 H         1 UNK         0.0814 
    116 H116      -51.9303  -24.5305   13.6196 H         1 UNK         0.3091 
    117 H117      -52.5917  -21.7225   13.7437 H         1 UNK         0.0702 
    118 H118      -53.0926  -20.6547   15.9563 H         1 UNK         0.0785 
    119 H119      -54.0135  -22.0801   16.4354 H         1 UNK         0.0785 
    120 H120      -54.5590  -21.0840   15.0938 H         1 UNK         0.0785 
    121 H121      -50.7553  -22.2928   14.8181 H         1 UNK         0.2998 
    122 H122      -49.8028  -23.2867   17.6079 H         1 UNK         0.0697 
    123 H123      -48.6926  -25.5331   17.3696 H         1 UNK         0.0825 
    124 H124      -50.3751  -25.6813   17.8430 H         1 UNK         0.0825 
    125 H125      -49.9058  -26.0006   16.1799 H         1 UNK         0.0825 
    126 H126      -48.9068  -24.0725   14.8774 H         1 UNK         0.3029 
    127 H127      -47.5501  -20.9421   14.1928 H         1 UNK         0.0897 
    128 H128      -45.3779  -22.1219   13.7465 H         1 UNK         0.0792 
    129 H129      -45.5750  -21.7260   15.4465 H         1 UNK         0.0792 
    130 H130      -45.8259  -23.3766   14.9026 H         1 UNK         0.0792 
    131 H131      -47.3941  -23.5434   12.9259 H         1 UNK         0.3086 
    132 H132      -50.6717  -23.5544   11.6624 H         1 UNK         0.0583 
    133 H133      -49.9244  -21.9016   10.0012 H         1 UNK         0.1020 
    134 H134      -48.3320  -22.6154    9.9390 H         1 UNK         0.1020 
    135 H135      -52.0299  -23.7568    9.9124 H         1 UNK         0.0694 
    136 H136      -52.1145  -23.0988    8.2973 H         1 UNK         0.0694 
    137 H137      -48.3582  -25.0905   10.9568 H         1 UNK         0.2989 
    138 H138      -48.3089  -27.0717   13.8689 H         1 UNK         0.1055 
    139 H139      -49.6483  -28.0668   11.2917 H         1 UNK         0.0806 
    140 H140      -50.3962  -28.0965   12.8804 H         1 UNK         0.0806 
    141 H141      -48.9737  -29.0744   12.5733 H         1 UNK         0.0806 
    142 H142      -47.2089  -27.6875   11.3470 H         1 UNK         0.3061 
    143 H143      -44.6872  -25.2928   11.0617 H         1 UNK         0.0734 
    144 H144      -43.0737  -27.1737   11.1936 H         1 UNK         0.0832 
    145 H145      -43.6247  -26.7443   12.8031 H         1 UNK         0.0832 
    146 H146      -44.2680  -28.1790   12.0173 H         1 UNK         0.0832 
    147 H147      -44.9862  -27.6957    9.6424 H         1 UNK         0.3156 
    148 H148      -45.9118  -27.0366    7.1693 H         1 UNK         0.0589 
    149 H149      -47.8151  -28.7581    8.8859 H         1 UNK         0.0808 
    150 H150      -47.2988  -29.1704    7.2561 H         1 UNK         0.0808 
    151 H151      -46.1255  -29.1251    8.5506 H         1 UNK         0.0808 
    152 H152      -48.4332  -25.9020    7.8742 H         1 UNK         0.3098 
    153 H153      -50.2900  -25.9506    6.5709 H         1 UNK         0.0720 
    154 H154      -48.8338  -24.0152    5.8423 H         1 UNK         0.0791 
    155 H155      -48.9085  -24.5968    4.1858 H         1 UNK         0.0791 
    156 H156      -50.3733  -24.0423    5.0024 H         1 UNK         0.0791 
    157 H157      -50.7704  -26.2152    3.8554 H         1 UNK         0.3028 
@<TRIPOS>BOND
     1    1    2 1    
     2    1   82 1    
     3    1   83 1    
     4    1   84 1    
     5    2    3 2    
     6    2    4 am   BACKBONE|DICT|INTERRES
     7    4    5 1    
     8    4   85 1    
     9    5    6 1    
    10    5   80 1    
    11    5   86 1    
    12    6    7 1    
    13    6   87 1    
    14    6   88 1    
    15    7    8 1    
    16    8    9 1    
    17    8   89 1    
    18    8   90 1    
    19    9   10 ar   
    20    9   14 ar   
    21   10   11 ar   
    22   10   91 1    
    23   11   12 ar   
    24   11   58 1    
    25   12   13 ar   
    26   12   92 1    
    27   13   14 ar   
    28   13   15 1    
    29   14   93 1    
    30   15   16 1    
    31   15   94 1    
    32   15   95 1    
    33   16   17 1    
    34   17   18 1    
    35   17   96 1    
    36   17   97 1    
    37   18   19 1    
    38   18   22 1    
    39   18   98 1    
    40   19   20 am   BACKBONE|DICT|INTERRES
    41   19   21 2    
    42   20   99 1    
    43   20  100 1    
    44   22   23 am   BACKBONE|DICT|INTERRES
    45   22  101 1    
    46   23   24 2    
    47   23   25 1    
    48   25   26 1    
    49   25   27 1    
    50   25  102 1    
    51   26  103 1    
    52   26  104 1    
    53   26  105 1    
    54   27   28 am   BACKBONE|DICT|INTERRES
    55   27  106 1    
    56   28   29 2    
    57   28   30 1    
    58   30   31 1    
    59   30   32 1    
    60   30  107 1    
    61   31  108 1    
    62   31  109 1    
    63   31  110 1    
    64   32   33 am   BACKBONE|DICT|INTERRES
    65   32  111 1    
    66   33   34 2    
    67   33   35 1    
    68   35   36 1    
    69   35   37 1    
    70   35  112 1    
    71   36  113 1    
    72   36  114 1    
    73   36  115 1    
    74   37   38 am   BACKBONE|DICT|INTERRES
    75   37  116 1    
    76   38   39 2    
    77   38   40 1    
    78   40   41 1    
    79   40   42 1    
    80   40  117 1    
    81   41  118 1    
    82   41  119 1    
    83   41  120 1    
    84   42   43 am   BACKBONE|DICT|INTERRES
    85   42  121 1    
    86   43   44 2    
    87   43   45 1    
    88   45   46 1    
    89   45   47 1    
    90   45  122 1    
    91   46  123 1    
    92   46  124 1    
    93   46  125 1    
    94   47   48 am   BACKBONE|DICT|INTERRES
    95   47  126 1    
    96   48   49 2    
    97   48   50 1    
    98   50   51 1    
    99   50   52 1    
   100   50  127 1    
   101   51  128 1    
   102   51  129 1    
   103   51  130 1    
   104   52   53 am   BACKBONE|DICT|INTERRES
   105   52  131 1    
   106   53   54 2    
   107   53   55 1    
   108   55   56 1    
   109   55   59 1    
   110   55  132 1    
   111   56   57 1    
   112   56  133 1    
   113   56  134 1    
   114   57   58 1    
   115   58  135 1    
   116   58  136 1    
   117   59   60 am   BACKBONE|DICT|INTERRES
   118   59  137 1    
   119   60   61 2    
   120   60   62 1    
   121   62   63 1    
   122   62   64 1    
   123   62  138 1    
   124   63  139 1    
   125   63  140 1    
   126   63  141 1    
   127   64   65 am   BACKBONE|DICT|INTERRES
   128   64  142 1    
   129   65   66 2    
   130   65   67 1    
   131   67   68 1    
   132   67   69 1    
   133   67  143 1    
   134   68  144 1    
   135   68  145 1    
   136   68  146 1    
   137   69   70 am   BACKBONE|DICT|INTERRES
   138   69  147 1    
   139   70   71 2    
   140   70   72 1    
   141   72   73 1    
   142   72   74 1    
   143   72  148 1    
   144   73  149 1    
   145   73  150 1    
   146   73  151 1    
   147   74   75 am   BACKBONE|DICT|INTERRES
   148   74  152 1    
   149   75   76 2    
   150   75   77 1    
   151   77   78 1    
   152   77   79 1    
   153   77  153 1    
   154   78  154 1    
   155   78  155 1    
   156   78  156 1    
   157   79   80 am   BACKBONE|DICT|INTERRES
   158   79  157 1    
   159   80   81 2    
@<TRIPOS>SUBSTRUCTURE
     1 UNK         1 GROUP             0       ****    0 ROOT    
