@<TRIPOS>MOLECULE
3R207
157   159    1
SMALL
USER_CHARGES


@<TRIPOS>ATOM
      1 CA        -51.1879  -31.3106    7.3192 C.3       0 UNK        -0.1975 
      2 C         -51.1851  -30.5112    6.0248 C.2       0 UNK         0.4852 
      3 O         -50.8609  -31.0546    4.9687 O.2       0 UNK        -0.5216 
      4 N         -51.5504  -29.2246    6.0992 N.am      1 UNK        -0.4461 
      5 CA        -51.6438  -28.3054    4.9589 C.3       1 UNK         0.0864 
      6 C6        -52.5502  -27.0899    5.2845 C.3       14 UNK        -0.0898 
      7 S7        -51.8570  -25.8820    6.4725 S.3       14 UNK        -0.2598 
      8 C8        -52.6360  -26.3700    8.0497 C.3       14 UNK         0.0286 
      9 C9        -51.8742  -27.4162    8.8691 C.ar      14 UNK        -0.0844 
     10 C10       -50.5227  -27.7266    8.6570 C.ar      14 UNK        -0.0881 
     11 C11       -49.8925  -28.7257    9.4067 C.ar      14 UNK        -0.0643 
     12 C12       -50.6000  -29.3701   10.4242 C.ar      14 UNK        -0.0930 
     13 C13       -51.9293  -29.0305   10.6894 C.ar      14 UNK        -0.0827 
     14 C14       -52.5574  -28.0648    9.8998 C.ar      14 UNK        -0.1249 
     15 C15       -52.6561  -29.6634   11.8679 C.3       14 UNK         0.0141 
     16 S16       -53.8484  -30.9575   11.3951 S.3       14 UNK        -0.2313 
     17 C17       -55.3471  -30.0493   10.8625 C.3       14 UNK        -0.0915 
     18 CA        -56.1651  -29.3268   11.9773 C.3       13 UNK         0.0968 
     19 C         -56.5974  -30.2601   13.1422 C.2       13 UNK         0.5732 
     20 N         -56.2160  -30.0154   14.3889 N.am      13 UNK        -0.7310 
     21 O         -57.3314  -31.2187   12.9120 O.2       13 UNK        -0.5035 
     22 N         -55.5706  -28.0408   12.3819 N.am      13 UNK        -0.4233 
     23 C         -55.6943  -26.9082   11.6734 C.2       13 UNK         0.4989 
     24 O         -56.3557  -26.8313   10.6361 O.2       13 UNK        -0.4996 
     25 CA        -54.9155  -25.6633   12.1515 C.3       12 UNK         0.0216 
     26 CB        -55.5321  -24.3383   11.6558 C.3       12 UNK        -0.1964 
     27 N         -54.6712  -25.6114   13.5948 N.am      12 UNK        -0.4276 
     28 C         -55.5768  -25.6112   14.5817 C.2       12 UNK         0.5020 
     29 O         -56.7946  -25.5960   14.3918 O.2       12 UNK        -0.5489 
     30 CA        -55.0262  -25.6579   16.0255 C.3       11 UNK         0.0294 
     31 CB        -56.0549  -26.2443   17.0153 C.3       11 UNK        -0.2019 
     32 N         -53.7393  -26.3567   16.1872 N.am      11 UNK        -0.4493 
     33 C         -53.4243  -27.5923   15.7679 C.2       11 UNK         0.4932 
     34 O         -54.1523  -28.2740   15.0434 O.2       11 UNK        -0.5029 
     35 CA        -52.0789  -28.1572   16.2479 C.3       10 UNK         0.0280 
     36 CB        -51.6124  -29.3887   15.4511 C.3       10 UNK        -0.1976 
     37 N         -51.0233  -27.1427   16.2337 N.am      10 UNK        -0.4242 
     38 C         -50.0735  -27.0278   17.1732 C.2       10 UNK         0.5072 
     39 O         -50.0490  -27.7092   18.1998 O.2       10 UNK        -0.5224 
     40 CA        -48.9372  -26.0102   16.9486 C.3       9 UNK         0.0343 
     41 CB        -47.6403  -26.7422   16.5671 C.3       9 UNK        -0.2003 
     42 N         -49.2208  -24.9901   15.9379 N.am      9 UNK        -0.4272 
     43 C         -50.1225  -24.0088   16.0758 C.2       9 UNK         0.4988 
     44 O         -50.8068  -23.8417   17.0860 O.2       9 UNK        -0.5108 
     45 CA        -50.3202  -23.0770   14.8685 C.3       8 UNK         0.0248 
     46 CB        -49.2888  -21.9380   14.8919 C.3       8 UNK        -0.2001 
     47 N         -50.2554  -23.7694   13.5778 N.am      8 UNK        -0.4140 
     48 C         -51.0687  -24.7676   13.2030 C.2       8 UNK         0.5028 
     49 O         -51.9558  -25.2347   13.9165 O.2       8 UNK        -0.5428 
     50 CA        -50.8180  -25.3864   11.8214 C.3       7 UNK         0.0264 
     51 CB        -51.1532  -24.3913   10.6986 C.3       7 UNK        -0.1988 
     52 N         -49.4416  -25.8594   11.6862 N.am      7 UNK        -0.4454 
     53 C         -48.9007  -26.8328   12.4368 C.2       7 UNK         0.5027 
     54 O         -49.5300  -27.4933   13.2632 O.2       7 UNK        -0.5083 
     55 CA        -47.3848  -27.0712   12.2995 C.3       6 UNK         0.0844 
     56 C56       -47.0438  -28.2611   11.3688 C.3       14 UNK        -0.0967 
     57 S57       -47.2235  -27.9207    9.5844 S.3       14 UNK        -0.2604 
     58 C58       -48.4678  -29.1487    9.0797 C.3       14 UNK         0.0134 
     59 N         -46.6570  -25.8414   11.9701 N.am      6 UNK        -0.4116 
     60 C         -46.5174  -24.8081   12.8144 C.2       5 UNK         0.5034 
     61 O         -46.9586  -24.7948   13.9640 O.2       5 UNK        -0.5045 
     62 CA        -45.8052  -23.5618   12.2678 C.3       5 UNK         0.0224 
     63 CB        -44.2951  -23.8093   12.1177 C.3       5 UNK        -0.1978 
     64 N         -46.3616  -23.1066   10.9914 N.am      5 UNK        -0.4737 
     65 C         -47.6122  -22.6529   10.8210 C.2       4 UNK         0.5027 
     66 O         -48.4316  -22.5637   11.7337 O.2       4 UNK        -0.5211 
     67 CA        -48.0244  -22.2349    9.3970 C.3       4 UNK         0.0297 
     68 CB        -47.8922  -20.7134    9.2280 C.3       4 UNK        -0.1993 
     69 N         -47.2487  -22.9118    8.3532 N.am      4 UNK        -0.4486 
     70 C         -47.3595  -24.2142    8.0623 C.2       3 UNK         0.4961 
     71 O         -48.1767  -24.9646    8.5972 O.2       3 UNK        -0.5105 
     72 CA        -46.3186  -24.7635    7.0727 C.3       3 UNK         0.0299 
     73 CB        -44.9793  -25.0007    7.7929 C.3       3 UNK        -0.1972 
     74 N         -46.7337  -26.0187    6.4466 N.am      3 UNK        -0.4305 
     75 C         -47.6212  -26.1308    5.4504 C.2       2 UNK         0.5006 
     76 O         -48.2154  -25.1715    4.9560 O.2       2 UNK        -0.5106 
     77 CA        -47.8544  -27.5395    4.8702 C.3       2 UNK         0.0296 
     78 CB        -46.8378  -28.6001    5.3452 C.3       2 UNK        -0.2002 
     79 N         -49.2081  -27.9868    5.1899 N.am      2 UNK        -0.4032 
     80 C         -50.2731  -27.8776    4.3825 C.2       1 UNK         0.5000 
     81 O         -50.2161  -27.4646    3.2219 O.2       1 UNK        -0.5238 
     82 H82       -51.7412  -30.8007    8.1081 H         1 UNK         0.0889 
     83 H83       -50.1677  -31.4736    7.6649 H         1 UNK         0.0889 
     84 H84       -51.6542  -32.2826    7.1610 H         1 UNK         0.0889 
     85 H85       -51.7947  -28.8287    6.9981 H         1 UNK         0.3028 
     86 H86       -52.1398  -28.8569    4.1568 H         1 UNK         0.0864 
     87 H87       -52.7648  -26.5450    4.3634 H         1 UNK         0.0720 
     88 H88       -53.5220  -27.4360    5.6391 H         1 UNK         0.0720 
     89 H89       -53.6485  -26.7252    7.8519 H         1 UNK         0.0814 
     90 H90       -52.7587  -25.4741    8.6556 H         1 UNK         0.0814 
     91 H91       -49.9518  -27.2025    7.9041 H         1 UNK         0.1469 
     92 H92       -50.1107  -30.1280   11.0200 H         1 UNK         0.1381 
     93 H93       -53.5811  -27.7944   10.0997 H         1 UNK         0.1206 
     94 H94       -53.1271  -28.8936   12.4753 H         1 UNK         0.0813 
     95 H95       -51.9258  -30.1396   12.5215 H         1 UNK         0.0813 
     96 H96       -55.9931  -30.7899   10.3881 H         1 UNK         0.0638 
     97 H97       -55.0923  -29.3628   10.0574 H         1 UNK         0.0638 
     98 H98       -57.1252  -29.0742   11.5227 H         1 UNK         0.0568 
     99 H99       -55.5428  -29.2882   14.6158 H         1 UNK         0.3450 
    100 H100      -56.5330  -30.6347   15.1166 H         1 UNK         0.3450 
    101 H101      -55.0435  -28.0374   13.2485 H         1 UNK         0.2987 
    102 H102      -53.9302  -25.7506   11.6937 H         1 UNK         0.0766 
    103 H103      -56.5478  -24.2026   12.0285 H         1 UNK         0.0798 
    104 H104      -54.9390  -23.4818   11.9763 H         1 UNK         0.0798 
    105 H105      -55.5774  -24.3076   10.5665 H         1 UNK         0.0798 
    106 H106      -53.6849  -25.5920   13.8634 H         1 UNK         0.3198 
    107 H107      -54.8463  -24.6195   16.3080 H         1 UNK         0.0843 
    108 H108      -56.3161  -27.2718   16.7588 H         1 UNK         0.0831 
    109 H109      -56.9782  -25.6636   17.0166 H         1 UNK         0.0831 
    110 H110      -55.6728  -26.2399   18.0360 H         1 UNK         0.0831 
    111 H111      -53.0397  -25.8593   16.7219 H         1 UNK         0.3133 
    112 H112      -52.2655  -28.4801   17.2739 H         1 UNK         0.0566 
    113 H113      -52.3901  -30.1512   15.3895 H         1 UNK         0.0814 
    114 H114      -51.3333  -29.1096   14.4367 H         1 UNK         0.0814 
    115 H115      -50.7426  -29.8520   15.9164 H         1 UNK         0.0814 
    116 H116      -50.9930  -26.5417   15.4161 H         1 UNK         0.3091 
    117 H117      -48.7705  -25.4989   17.8990 H         1 UNK         0.0702 
    118 H118      -46.8044  -26.0487   16.4725 H         1 UNK         0.0785 
    119 H119      -47.7460  -27.2736   15.6210 H         1 UNK         0.0785 
    120 H120      -47.3663  -27.4770   17.3253 H         1 UNK         0.0785 
    121 H121      -48.6602  -25.0193   15.0920 H         1 UNK         0.2998 
    122 H122      -51.3167  -22.6387   14.9523 H         1 UNK         0.0697 
    123 H123      -48.2724  -22.3133   14.7642 H         1 UNK         0.0825 
    124 H124      -49.3231  -21.3963   15.8381 H         1 UNK         0.0825 
    125 H125      -49.4784  -21.2161   14.0973 H         1 UNK         0.0825 
    126 H126      -49.5517  -23.4370   12.9197 H         1 UNK         0.3029 
    127 H127      -51.4679  -26.2564   11.7189 H         1 UNK         0.0897 
    128 H128      -50.6880  -23.4191   10.8504 H         1 UNK         0.0792 
    129 H129      -52.2283  -24.2197   10.6447 H         1 UNK         0.0792 
    130 H130      -50.8234  -24.7605    9.7277 H         1 UNK         0.0792 
    131 H131      -48.8639  -25.4034   10.9926 H         1 UNK         0.3086 
    132 H132      -47.0462  -27.3677   13.2946 H         1 UNK         0.0583 
    133 H133      -46.0062  -28.5538   11.5356 H         1 UNK         0.1020 
    134 H134      -47.6332  -29.1373   11.6456 H         1 UNK         0.1020 
    135 H135      -48.3946  -29.3031    8.0044 H         1 UNK         0.0694 
    136 H136      -48.2322  -30.1142    9.5300 H         1 UNK         0.0694 
    137 H137      -46.3049  -25.7673   11.0271 H         1 UNK         0.2989 
    138 H138      -45.9483  -22.7610   12.9972 H         1 UNK         0.1055 
    139 H139      -43.8607  -24.1491   13.0592 H         1 UNK         0.0806 
    140 H140      -43.7710  -22.8964   11.8340 H         1 UNK         0.0806 
    141 H141      -44.0768  -24.5682   11.3654 H         1 UNK         0.0806 
    142 H142      -45.7515  -23.1319   10.1884 H         1 UNK         0.3061 
    143 H143      -49.0750  -22.5018    9.2657 H         1 UNK         0.0734 
    144 H144      -46.8592  -20.3808    9.3373 H         1 UNK         0.0832 
    145 H145      -48.2498  -20.3892    8.2505 H         1 UNK         0.0832 
    146 H146      -48.4843  -20.1865    9.9780 H         1 UNK         0.0832 
    147 H147      -46.5562  -22.3588    7.8679 H         1 UNK         0.3156 
    148 H148      -46.1646  -24.0218    6.2859 H         1 UNK         0.0589 
    149 H149      -45.0787  -25.7249    8.6027 H         1 UNK         0.0808 
    150 H150      -44.2200  -25.3726    7.1045 H         1 UNK         0.0808 
    151 H151      -44.5907  -24.0781    8.2253 H         1 UNK         0.0808 
    152 H152      -46.3350  -26.8621    6.8314 H         1 UNK         0.3098 
    153 H153      -47.7419  -27.4521    3.7875 H         1 UNK         0.0720 
    154 H154      -47.0360  -29.5647    4.8771 H         1 UNK         0.0791 
    155 H155      -46.8562  -28.7505    6.4236 H         1 UNK         0.0791 
    156 H156      -45.8209  -28.3182    5.0681 H         1 UNK         0.0791 
    157 H157      -49.3665  -28.3248    6.1258 H         1 UNK         0.3028 
@<TRIPOS>BOND
     1    1    2 1    
     2    1   82 1    
     3    1   83 1    
     4    1   84 1    
     5    2    3 2    
     6    2    4 am   BACKBONE|DICT|INTERRES
     7    4    5 1    
     8    4   85 1    
     9    5    6 1    
    10    5   80 1    
    11    5   86 1    
    12    6    7 1    
    13    6   87 1    
    14    6   88 1    
    15    7    8 1    
    16    8    9 1    
    17    8   89 1    
    18    8   90 1    
    19    9   10 ar   
    20    9   14 ar   
    21   10   11 ar   
    22   10   91 1    
    23   11   12 ar   
    24   11   58 1    
    25   12   13 ar   
    26   12   92 1    
    27   13   14 ar   
    28   13   15 1    
    29   14   93 1    
    30   15   16 1    
    31   15   94 1    
    32   15   95 1    
    33   16   17 1    
    34   17   18 1    
    35   17   96 1    
    36   17   97 1    
    37   18   19 1    
    38   18   22 1    
    39   18   98 1    
    40   19   20 am   BACKBONE|DICT|INTERRES
    41   19   21 2    
    42   20   99 1    
    43   20  100 1    
    44   22   23 am   BACKBONE|DICT|INTERRES
    45   22  101 1    
    46   23   24 2    
    47   23   25 1    
    48   25   26 1    
    49   25   27 1    
    50   25  102 1    
    51   26  103 1    
    52   26  104 1    
    53   26  105 1    
    54   27   28 am   BACKBONE|DICT|INTERRES
    55   27  106 1    
    56   28   29 2    
    57   28   30 1    
    58   30   31 1    
    59   30   32 1    
    60   30  107 1    
    61   31  108 1    
    62   31  109 1    
    63   31  110 1    
    64   32   33 am   BACKBONE|DICT|INTERRES
    65   32  111 1    
    66   33   34 2    
    67   33   35 1    
    68   35   36 1    
    69   35   37 1    
    70   35  112 1    
    71   36  113 1    
    72   36  114 1    
    73   36  115 1    
    74   37   38 am   BACKBONE|DICT|INTERRES
    75   37  116 1    
    76   38   39 2    
    77   38   40 1    
    78   40   41 1    
    79   40   42 1    
    80   40  117 1    
    81   41  118 1    
    82   41  119 1    
    83   41  120 1    
    84   42   43 am   BACKBONE|DICT|INTERRES
    85   42  121 1    
    86   43   44 2    
    87   43   45 1    
    88   45   46 1    
    89   45   47 1    
    90   45  122 1    
    91   46  123 1    
    92   46  124 1    
    93   46  125 1    
    94   47   48 am   BACKBONE|DICT|INTERRES
    95   47  126 1    
    96   48   49 2    
    97   48   50 1    
    98   50   51 1    
    99   50   52 1    
   100   50  127 1    
   101   51  128 1    
   102   51  129 1    
   103   51  130 1    
   104   52   53 am   BACKBONE|DICT|INTERRES
   105   52  131 1    
   106   53   54 2    
   107   53   55 1    
   108   55   56 1    
   109   55   59 1    
   110   55  132 1    
   111   56   57 1    
   112   56  133 1    
   113   56  134 1    
   114   57   58 1    
   115   58  135 1    
   116   58  136 1    
   117   59   60 am   BACKBONE|DICT|INTERRES
   118   59  137 1    
   119   60   61 2    
   120   60   62 1    
   121   62   63 1    
   122   62   64 1    
   123   62  138 1    
   124   63  139 1    
   125   63  140 1    
   126   63  141 1    
   127   64   65 am   BACKBONE|DICT|INTERRES
   128   64  142 1    
   129   65   66 2    
   130   65   67 1    
   131   67   68 1    
   132   67   69 1    
   133   67  143 1    
   134   68  144 1    
   135   68  145 1    
   136   68  146 1    
   137   69   70 am   BACKBONE|DICT|INTERRES
   138   69  147 1    
   139   70   71 2    
   140   70   72 1    
   141   72   73 1    
   142   72   74 1    
   143   72  148 1    
   144   73  149 1    
   145   73  150 1    
   146   73  151 1    
   147   74   75 am   BACKBONE|DICT|INTERRES
   148   74  152 1    
   149   75   76 2    
   150   75   77 1    
   151   77   78 1    
   152   77   79 1    
   153   77  153 1    
   154   78  154 1    
   155   78  155 1    
   156   78  156 1    
   157   79   80 am   BACKBONE|DICT|INTERRES
   158   79  157 1    
   159   80   81 2    
@<TRIPOS>SUBSTRUCTURE
     1 UNK         1 GROUP             0       ****    0 ROOT    
