@<TRIPOS>MOLECULE
3R207
157   159    1
SMALL
USER_CHARGES


@<TRIPOS>ATOM
      1 CA        -45.5660  -31.8477    8.8077 C.3       0 UNK        -0.1975 
      2 C         -46.2550  -30.7246    8.0479 C.2       0 UNK         0.4852 
      3 O         -46.2601  -29.5881    8.5179 O.2       0 UNK        -0.5216 
      4 N         -46.8219  -31.0339    6.8735 N.am      1 UNK        -0.4461 
      5 CA        -47.5851  -30.1625    5.9623 C.3       1 UNK         0.0864 
      6 C6        -48.8383  -29.4961    6.5904 C.3       14 UNK        -0.0898 
      7 S7        -49.9601  -30.6272    7.4832 S.3       14 UNK        -0.2598 
      8 C8        -50.2550  -29.6990    9.0319 C.3       14 UNK         0.0286 
      9 C9        -51.3750  -28.6612    8.9289 C.ar      14 UNK        -0.0844 
     10 C10       -51.3985  -27.7141    7.8988 C.ar      14 UNK        -0.0881 
     11 C11       -52.4126  -26.7571    7.8195 C.ar      14 UNK        -0.0643 
     12 C12       -53.4117  -26.7355    8.7959 C.ar      14 UNK        -0.0930 
     13 C13       -53.3861  -27.6509    9.8522 C.ar      14 UNK        -0.0827 
     14 C14       -52.3778  -28.6187    9.9040 C.ar      14 UNK        -0.1249 
     15 C15       -54.4423  -27.5791   10.9422 C.3       14 UNK         0.0141 
     16 S16       -53.8818  -26.5427   12.3277 S.3       14 UNK        -0.2313 
     17 C17       -55.4879  -26.2232   13.1272 C.3       14 UNK        -0.0915 
     18 CA        -55.3773  -25.6347   14.5578 C.3       13 UNK         0.0968 
     19 C         -56.7892  -25.2457   15.0898 C.2       13 UNK         0.5732 
     20 N         -57.3387  -25.9080   16.1027 N.am      13 UNK        -0.7310 
     21 O         -57.3973  -24.3120   14.5720 O.2       13 UNK        -0.5035 
     22 N         -54.6132  -26.5054   15.4619 N.am      13 UNK        -0.4233 
     23 C         -54.1305  -26.1087   16.6496 C.2       13 UNK         0.4989 
     24 O         -54.1138  -24.9306   17.0099 O.2       13 UNK        -0.4996 
     25 CA        -53.5984  -27.1939   17.6102 C.3       12 UNK         0.0216 
     26 CB        -53.8408  -26.8389   19.0930 C.3       12 UNK        -0.1964 
     27 N         -54.0909  -28.5432   17.3106 N.am      12 UNK        -0.4276 
     28 C         -55.3663  -28.9645   17.3003 C.2       12 UNK         0.5020 
     29 O         -56.3211  -28.2520   17.6169 O.2       12 UNK        -0.5489 
     30 CA        -55.6170  -30.4037   16.7967 C.3       11 UNK         0.0294 
     31 CB        -57.0424  -30.5889   16.2333 C.3       11 UNK        -0.2019 
     32 N         -54.6150  -30.8639   15.8222 N.am      11 UNK        -0.4493 
     33 C         -54.2994  -30.2731   14.6601 C.2       11 UNK         0.4932 
     34 O         -54.8596  -29.2700   14.2190 O.2       11 UNK        -0.5029 
     35 CA        -53.1147  -30.8764   13.8913 C.3       10 UNK         0.0280 
     36 CB        -53.5757  -31.4810   12.5554 C.3       10 UNK        -0.1976 
     37 N         -52.0483  -29.8980   13.6512 N.am      10 UNK        -0.4242 
     38 C         -51.3861  -29.2124   14.5958 C.2       10 UNK         0.5072 
     39 O         -51.6547  -29.2813   15.7968 O.2       10 UNK        -0.5224 
     40 CA        -50.1676  -28.3842   14.1370 C.3       9 UNK         0.0343 
     41 CB        -49.5853  -28.8377   12.7849 C.3       9 UNK        -0.2003 
     42 N         -50.4187  -26.9400   14.0905 N.am      9 UNK        -0.4272 
     43 C         -50.4619  -26.1405   15.1671 C.2       9 UNK         0.4988 
     44 O         -50.3292  -26.5415   16.3226 O.2       9 UNK        -0.5108 
     45 CA        -50.6312  -24.6311   14.9427 C.3       8 UNK         0.0248 
     46 CB        -49.2636  -23.9585   14.7174 C.3       8 UNK        -0.2001 
     47 N         -51.5427  -24.3047   13.8445 N.am      8 UNK        -0.4140 
     48 C         -52.2457  -23.1648   13.7617 C.2       8 UNK         0.5028 
     49 O         -52.2257  -22.2880   14.6279 O.2       8 UNK        -0.5428 
     50 CA        -53.1131  -22.9635   12.4994 C.3       7 UNK         0.0264 
     51 CB        -53.4794  -21.4852   12.2438 C.3       7 UNK        -0.1988 
     52 N         -52.5309  -23.5802   11.3017 N.am      7 UNK        -0.4454 
     53 C         -51.3660  -23.2669   10.7160 C.2       7 UNK         0.5027 
     54 O         -50.6450  -22.3234   11.0480 O.2       7 UNK        -0.5083 
     55 CA        -50.9444  -24.1810    9.5534 C.3       6 UNK         0.0844 
     56 C56       -51.3478  -23.5703    8.1892 C.3       14 UNK        -0.0967 
     57 S57       -50.9436  -24.6446    6.7699 S.3       14 UNK        -0.2604 
     58 C58       -52.4033  -25.7349    6.6906 C.3       14 UNK         0.0134 
     59 N         -49.5252  -24.5188    9.6336 N.am      6 UNK        -0.4116 
     60 C         -48.9800  -25.2649   10.6046 C.2       5 UNK         0.5034 
     61 O         -49.6245  -25.7475   11.5398 O.2       5 UNK        -0.5045 
     62 CA        -47.4690  -25.5392   10.5192 C.3       5 UNK         0.0224 
     63 CB        -47.2132  -26.9900   10.0881 C.3       5 UNK        -0.1978 
     64 N         -46.7771  -24.6476    9.5845 N.am      5 UNK        -0.4737 
     65 C         -46.3476  -23.4160    9.8950 C.2       4 UNK         0.5027 
     66 O         -46.4782  -22.9151   11.0118 O.2       4 UNK        -0.5211 
     67 CA        -45.6384  -22.6028    8.7942 C.3       4 UNK         0.0297 
     68 CB        -44.1199  -22.5883    9.0360 C.3       4 UNK        -0.1993 
     69 N         -45.8971  -23.0895    7.4371 N.am      4 UNK        -0.4486 
     70 C         -47.0665  -22.9817    6.7919 C.2       3 UNK         0.4961 
     71 O         -48.0523  -22.4114    7.2581 O.2       3 UNK        -0.5105 
     72 CA        -47.1586  -23.6503    5.4058 C.3       3 UNK         0.0299 
     73 CB        -46.8631  -22.6280    4.2968 C.3       3 UNK        -0.1972 
     74 N         -46.2810  -24.8191    5.2399 N.am      3 UNK        -0.4305 
     75 C         -46.3621  -25.9353    5.9769 C.2       2 UNK         0.5006 
     76 O         -47.1560  -26.0746    6.9091 O.2       2 UNK        -0.5106 
     77 CA        -45.3530  -27.0531    5.6679 C.3       2 UNK         0.0296 
     78 CB        -44.0625  -26.8413    6.4765 C.3       2 UNK        -0.2002 
     79 N         -45.9349  -28.3406    6.0397 N.am      2 UNK        -0.4032 
     80 C         -46.7430  -29.0712    5.2641 C.2       1 UNK         0.5000 
     81 O         -46.8778  -28.8858    4.0528 O.2       1 UNK        -0.5238 
     82 H82       -45.6328  -32.7993    8.2808 H         1 UNK         0.0889 
     83 H83       -46.0245  -31.9700    9.7885 H         1 UNK         0.0889 
     84 H84       -44.5120  -31.6112    8.9510 H         1 UNK         0.0889 
     85 H85       -46.7446  -31.9890    6.5523 H         1 UNK         0.3028 
     86 H86       -47.9384  -30.8265    5.1715 H         1 UNK         0.0864 
     87 H87       -48.5331  -28.6934    7.2643 H         1 UNK         0.0720 
     88 H88       -49.4239  -29.0203    5.8013 H         1 UNK         0.0720 
     89 H89       -49.3359  -29.2122    9.3606 H         1 UNK         0.0814 
     90 H90       -50.4967  -30.4286    9.8060 H         1 UNK         0.0814 
     91 H91       -50.6220  -27.6949    7.1527 H         1 UNK         0.1469 
     92 H92       -54.1932  -25.9894    8.7496 H         1 UNK         0.1381 
     93 H93       -52.3679  -29.3288   10.7170 H         1 UNK         0.1206 
     94 H94       -54.6825  -28.5755   11.3131 H         1 UNK         0.0813 
     95 H95       -55.3689  -27.1740   10.5324 H         1 UNK         0.0813 
     96 H96       -56.0392  -25.5408   12.4774 H         1 UNK         0.0638 
     97 H97       -56.0609  -27.1519   13.1481 H         1 UNK         0.0638 
     98 H98       -54.8264  -24.6972   14.4855 H         1 UNK         0.0568 
     99 H99       -56.8630  -26.6858   16.5502 H         1 UNK         0.3450 
    100 H100      -58.2507  -25.6315   16.4280 H         1 UNK         0.3450 
    101 H101      -54.5976  -27.4881   15.2104 H         1 UNK         0.2987 
    102 H102      -52.5210  -27.2317   17.4578 H         1 UNK         0.0766 
    103 H103      -54.9012  -26.7069   19.3102 H         1 UNK         0.0798 
    104 H104      -53.4559  -27.6146   19.7549 H         1 UNK         0.0798 
    105 H105      -53.3370  -25.9093   19.3606 H         1 UNK         0.0798 
    106 H106      -53.3774  -29.1734   16.9552 H         1 UNK         0.3198 
    107 H107      -55.5188  -31.0492   17.6709 H         1 UNK         0.0843 
    108 H108      -57.7951  -30.3799   16.9946 H         1 UNK         0.0831 
    109 H109      -57.2054  -31.6108   15.8914 H         1 UNK         0.0831 
    110 H110      -57.2355  -29.9190   15.3947 H         1 UNK         0.0831 
    111 H111      -54.0761  -31.6722   16.1036 H         1 UNK         0.3133 
    112 H112      -52.6802  -31.6802   14.4892 H         1 UNK         0.0566 
    113 H113      -52.7488  -31.9489   12.0209 H         1 UNK         0.0814 
    114 H114      -54.3308  -32.2511   12.7186 H         1 UNK         0.0814 
    115 H115      -54.0186  -30.7308   11.9011 H         1 UNK         0.0814 
    116 H116      -51.7659  -29.7656   12.6934 H         1 UNK         0.3091 
    117 H117      -49.3916  -28.5657   14.8839 H         1 UNK         0.0702 
    118 H118      -48.5958  -28.4060   12.6491 H         1 UNK         0.0785 
    119 H119      -50.2021  -28.5257   11.9418 H         1 UNK         0.0785 
    120 H120      -49.4608  -29.9207   12.7377 H         1 UNK         0.0785 
    121 H121      -50.4065  -26.5208   13.1657 H         1 UNK         0.2998 
    122 H122      -51.0571  -24.2354   15.8678 H         1 UNK         0.0697 
    123 H123      -48.8096  -24.2750   13.7777 H         1 UNK         0.0825 
    124 H124      -48.5669  -24.2074   15.5190 H         1 UNK         0.0825 
    125 H125      -49.3536  -22.8724   14.6938 H         1 UNK         0.0825 
    126 H126      -51.6287  -24.9838   13.1013 H         1 UNK         0.3029 
    127 H127      -54.0477  -23.4920   12.6844 H         1 UNK         0.0897 
    128 H128      -54.0877  -21.3757   11.3461 H         1 UNK         0.0792 
    129 H129      -54.0555  -21.0773   13.0753 H         1 UNK         0.0792 
    130 H130      -52.5934  -20.8603   12.1284 H         1 UNK         0.0792 
    131 H131      -53.0330  -24.3858   10.9518 H         1 UNK         0.3086 
    132 H132      -51.4782  -25.1203    9.6818 H         1 UNK         0.0583 
    133 H133      -52.4161  -23.3466    8.1657 H         1 UNK         0.1020 
    134 H134      -50.8378  -22.6162    8.0398 H         1 UNK         0.1020 
    135 H135      -52.3919  -26.2651    5.7374 H         1 UNK         0.0694 
    136 H136      -53.3123  -25.1316    6.6946 H         1 UNK         0.0694 
    137 H137      -48.9305  -24.1439    8.9083 H         1 UNK         0.2989 
    138 H138      -47.0541  -25.4016   11.5203 H         1 UNK         0.1055 
    139 H139      -46.1485  -27.1923    9.9715 H         1 UNK         0.0806 
    140 H140      -47.7038  -27.2241    9.1436 H         1 UNK         0.0806 
    141 H141      -47.5933  -27.6953   10.8228 H         1 UNK         0.0806 
    142 H142      -46.6763  -24.9874    8.6335 H         1 UNK         0.3061 
    143 H143      -46.0056  -21.5764    8.8619 H         1 UNK         0.0734 
    144 H144      -43.8866  -22.1976   10.0276 H         1 UNK         0.0832 
    145 H145      -43.6908  -23.5892    8.9722 H         1 UNK         0.0832 
    146 H146      -43.6072  -21.9541    8.3126 H         1 UNK         0.0832 
    147 H147      -45.1416  -23.5724    6.9736 H         1 UNK         0.3156 
    148 H148      -48.1875  -23.9955    5.2835 H         1 UNK         0.0589 
    149 H149      -45.8360  -22.2641    4.3447 H         1 UNK         0.0808 
    150 H150      -47.0238  -23.0565    3.3074 H         1 UNK         0.0808 
    151 H151      -47.5200  -21.7609    4.3816 H         1 UNK         0.0808 
    152 H152      -45.5937  -24.7702    4.5008 H         1 UNK         0.3098 
    153 H153      -45.1159  -27.0460    4.6020 H         1 UNK         0.0720 
    154 H154      -43.3422  -27.6368    6.2850 H         1 UNK         0.0791 
    155 H155      -44.2579  -26.8200    7.5500 H         1 UNK         0.0791 
    156 H156      -43.5813  -25.8991    6.2116 H         1 UNK         0.0791 
    157 H157      -45.9503  -28.5611    7.0343 H         1 UNK         0.3028 
@<TRIPOS>BOND
     1    1    2 1    
     2    1   82 1    
     3    1   83 1    
     4    1   84 1    
     5    2    3 2    
     6    2    4 am   BACKBONE|DICT|INTERRES
     7    4    5 1    
     8    4   85 1    
     9    5    6 1    
    10    5   80 1    
    11    5   86 1    
    12    6    7 1    
    13    6   87 1    
    14    6   88 1    
    15    7    8 1    
    16    8    9 1    
    17    8   89 1    
    18    8   90 1    
    19    9   10 ar   
    20    9   14 ar   
    21   10   11 ar   
    22   10   91 1    
    23   11   12 ar   
    24   11   58 1    
    25   12   13 ar   
    26   12   92 1    
    27   13   14 ar   
    28   13   15 1    
    29   14   93 1    
    30   15   16 1    
    31   15   94 1    
    32   15   95 1    
    33   16   17 1    
    34   17   18 1    
    35   17   96 1    
    36   17   97 1    
    37   18   19 1    
    38   18   22 1    
    39   18   98 1    
    40   19   20 am   BACKBONE|DICT|INTERRES
    41   19   21 2    
    42   20   99 1    
    43   20  100 1    
    44   22   23 am   BACKBONE|DICT|INTERRES
    45   22  101 1    
    46   23   24 2    
    47   23   25 1    
    48   25   26 1    
    49   25   27 1    
    50   25  102 1    
    51   26  103 1    
    52   26  104 1    
    53   26  105 1    
    54   27   28 am   BACKBONE|DICT|INTERRES
    55   27  106 1    
    56   28   29 2    
    57   28   30 1    
    58   30   31 1    
    59   30   32 1    
    60   30  107 1    
    61   31  108 1    
    62   31  109 1    
    63   31  110 1    
    64   32   33 am   BACKBONE|DICT|INTERRES
    65   32  111 1    
    66   33   34 2    
    67   33   35 1    
    68   35   36 1    
    69   35   37 1    
    70   35  112 1    
    71   36  113 1    
    72   36  114 1    
    73   36  115 1    
    74   37   38 am   BACKBONE|DICT|INTERRES
    75   37  116 1    
    76   38   39 2    
    77   38   40 1    
    78   40   41 1    
    79   40   42 1    
    80   40  117 1    
    81   41  118 1    
    82   41  119 1    
    83   41  120 1    
    84   42   43 am   BACKBONE|DICT|INTERRES
    85   42  121 1    
    86   43   44 2    
    87   43   45 1    
    88   45   46 1    
    89   45   47 1    
    90   45  122 1    
    91   46  123 1    
    92   46  124 1    
    93   46  125 1    
    94   47   48 am   BACKBONE|DICT|INTERRES
    95   47  126 1    
    96   48   49 2    
    97   48   50 1    
    98   50   51 1    
    99   50   52 1    
   100   50  127 1    
   101   51  128 1    
   102   51  129 1    
   103   51  130 1    
   104   52   53 am   BACKBONE|DICT|INTERRES
   105   52  131 1    
   106   53   54 2    
   107   53   55 1    
   108   55   56 1    
   109   55   59 1    
   110   55  132 1    
   111   56   57 1    
   112   56  133 1    
   113   56  134 1    
   114   57   58 1    
   115   58  135 1    
   116   58  136 1    
   117   59   60 am   BACKBONE|DICT|INTERRES
   118   59  137 1    
   119   60   61 2    
   120   60   62 1    
   121   62   63 1    
   122   62   64 1    
   123   62  138 1    
   124   63  139 1    
   125   63  140 1    
   126   63  141 1    
   127   64   65 am   BACKBONE|DICT|INTERRES
   128   64  142 1    
   129   65   66 2    
   130   65   67 1    
   131   67   68 1    
   132   67   69 1    
   133   67  143 1    
   134   68  144 1    
   135   68  145 1    
   136   68  146 1    
   137   69   70 am   BACKBONE|DICT|INTERRES
   138   69  147 1    
   139   70   71 2    
   140   70   72 1    
   141   72   73 1    
   142   72   74 1    
   143   72  148 1    
   144   73  149 1    
   145   73  150 1    
   146   73  151 1    
   147   74   75 am   BACKBONE|DICT|INTERRES
   148   74  152 1    
   149   75   76 2    
   150   75   77 1    
   151   77   78 1    
   152   77   79 1    
   153   77  153 1    
   154   78  154 1    
   155   78  155 1    
   156   78  156 1    
   157   79   80 am   BACKBONE|DICT|INTERRES
   158   79  157 1    
   159   80   81 2    
@<TRIPOS>SUBSTRUCTURE
     1 UNK         1 GROUP             0       ****    0 ROOT    
