@<TRIPOS>MOLECULE
3R207
157   159    1
SMALL
USER_CHARGES


@<TRIPOS>ATOM
      1 CA        -46.2701  -29.5399    9.3546 C.3       0 UNK        -0.1975 
      2 C         -46.8503  -29.9057    7.9973 C.2       0 UNK         0.4852 
      3 O         -46.1533  -30.4807    7.1598 O.2       0 UNK        -0.5216 
      4 N         -48.1163  -29.5477    7.7580 N.am      1 UNK        -0.4461 
      5 CA        -48.8654  -29.7457    6.5121 C.3       1 UNK         0.0864 
      6 C6        -50.3981  -29.7791    6.7709 C.3       14 UNK        -0.0898 
      7 S7        -51.0302  -28.4879    7.9072 S.3       14 UNK        -0.2598 
      8 C8        -51.9986  -27.4302    6.7876 C.3       14 UNK         0.0286 
      9 C9        -53.1054  -26.7136    7.5455 C.ar      14 UNK        -0.0844 
     10 C10       -52.9718  -25.3714    7.9126 C.ar      14 UNK        -0.0881 
     11 C11       -53.9966  -24.7267    8.6121 C.ar      14 UNK        -0.0643 
     12 C12       -55.1573  -25.4340    8.9389 C.ar      14 UNK        -0.0930 
     13 C13       -55.3059  -26.7785    8.5863 C.ar      14 UNK        -0.0827 
     14 C14       -54.2715  -27.4081    7.8811 C.ar      14 UNK        -0.1249 
     15 C15       -56.5741  -27.5040    9.0421 C.3       14 UNK         0.0141 
     16 S16       -56.8148  -29.1923    8.3834 S.3       14 UNK        -0.2313 
     17 C17       -57.7731  -29.9589    9.7381 C.3       14 UNK        -0.0915 
     18 CA        -56.9507  -30.9730   10.5878 C.3       13 UNK         0.0968 
     19 C         -56.7370  -32.3497    9.8933 C.2       13 UNK         0.5732 
     20 N         -55.5893  -33.0012   10.0489 N.am      13 UNK        -0.7310 
     21 O         -57.6332  -32.8559    9.2218 O.2       13 UNK        -0.5035 
     22 N         -55.7096  -30.3882   11.1219 N.am      13 UNK        -0.4233 
     23 C         -55.6245  -29.6074   12.2016 C.2       13 UNK         0.4989 
     24 O         -56.5861  -29.2947   12.9099 O.2       13 UNK        -0.4996 
     25 CA        -54.2271  -29.0686   12.5351 C.3       12 UNK         0.0216 
     26 CB        -53.7525  -28.0479   11.4836 C.3       12 UNK        -0.1964 
     27 N         -54.2679  -28.4463   13.8551 N.am      12 UNK        -0.4276 
     28 C         -53.2098  -28.1727   14.6222 C.2       12 UNK         0.5020 
     29 O         -52.0443  -28.4224   14.3094 O.2       12 UNK        -0.5489 
     30 CA        -53.5028  -27.5412   15.9849 C.3       11 UNK         0.0294 
     31 CB        -53.6263  -28.6322   17.0668 C.3       11 UNK        -0.2019 
     32 N         -52.4245  -26.6117   16.3121 N.am      11 UNK        -0.4493 
     33 C         -52.4712  -25.6778   17.2713 C.2       11 UNK         0.4932 
     34 O         -53.4627  -25.4898   17.9787 O.2       11 UNK        -0.5029 
     35 CA        -51.2260  -24.7889   17.4761 C.3       10 UNK         0.0280 
     36 CB        -51.0131  -24.3965   18.9538 C.3       10 UNK        -0.1976 
     37 N         -49.9967  -25.3351   16.8927 N.am      10 UNK        -0.4242 
     38 C         -49.3283  -26.4458   17.2417 C.2       10 UNK         0.5072 
     39 O         -49.6474  -27.1762   18.1805 O.2       10 UNK        -0.5224 
     40 CA        -48.0988  -26.8173   16.3913 C.3       9 UNK         0.0343 
     41 CB        -48.3299  -28.1517   15.6594 C.3       9 UNK        -0.2003 
     42 N         -47.7897  -25.7812   15.3999 N.am      9 UNK        -0.4272 
     43 C         -46.7624  -24.9259   15.4773 C.2       9 UNK         0.4988 
     44 O         -45.9098  -24.9543   16.3656 O.2       9 UNK        -0.5108 
     45 CA        -46.6642  -23.8476   14.3847 C.3       8 UNK         0.0248 
     46 CB        -45.9407  -24.3933   13.1421 C.3       8 UNK        -0.2001 
     47 N         -47.9518  -23.2678   13.9881 N.am      8 UNK        -0.4140 
     48 C         -48.7140  -22.4871   14.7693 C.2       8 UNK         0.5028 
     49 O         -48.4772  -22.2690   15.9571 O.2       8 UNK        -0.5428 
     50 CA        -49.9429  -21.8320   14.1214 C.3       7 UNK         0.0264 
     51 CB        -49.5184  -20.6680   13.2102 C.3       7 UNK        -0.1988 
     52 N         -50.7013  -22.8034   13.3376 N.am      7 UNK        -0.4454 
     53 C         -51.8860  -23.3225   13.6906 C.2       7 UNK         0.5027 
     54 O         -52.5172  -22.9715   14.6879 O.2       7 UNK        -0.5083 
     55 CA        -52.4698  -24.4419   12.7959 C.3       6 UNK         0.0844 
     56 C56       -53.4824  -23.8664   11.7723 C.3       14 UNK        -0.0967 
     57 S57       -52.6798  -23.0060   10.3669 S.3       14 UNK        -0.2604 
     58 C58       -53.8620  -23.2622    9.0061 C.3       14 UNK         0.0134 
     59 N         -51.4566  -25.2663   12.1317 N.am      6 UNK        -0.4116 
     60 C         -50.4201  -25.8879   12.7069 C.2       5 UNK         0.5034 
     61 O         -50.2136  -25.9089   13.9192 O.2       5 UNK        -0.5045 
     62 CA        -49.3743  -26.4920   11.7545 C.3       5 UNK         0.0224 
     63 CB        -49.7048  -27.9601   11.4486 C.3       5 UNK        -0.1978 
     64 N         -49.2118  -25.7468   10.4969 N.am      5 UNK        -0.4737 
     65 C         -48.9347  -24.4398   10.3856 C.2       4 UNK         0.5027 
     66 O         -48.7666  -23.6963   11.3541 O.2       4 UNK        -0.5211 
     67 CA        -48.8390  -23.8737    8.9582 C.3       4 UNK         0.0297 
     68 CB        -49.0129  -22.3437    8.9320 C.3       4 UNK        -0.1993 
     69 N         -47.5673  -24.2167    8.3208 N.am      4 UNK        -0.4486 
     70 C         -47.2276  -25.4363    7.8902 C.2       3 UNK         0.4961 
     71 O         -47.9484  -26.4308    8.0040 O.2       3 UNK        -0.5105 
     72 CA        -45.8358  -25.5730    7.2569 C.3       3 UNK         0.0299 
     73 CB        -44.7879  -25.8967    8.3342 C.3       3 UNK        -0.1972 
     74 N         -45.8609  -26.6516    6.2728 N.am      3 UNK        -0.4305 
     75 C         -46.2057  -26.5082    4.9859 C.2       2 UNK         0.5006 
     76 O         -46.3447  -25.4214    4.4234 O.2       2 UNK        -0.5106 
     77 CA        -46.4717  -27.8075    4.2054 C.3       2 UNK         0.0296 
     78 CB        -45.1612  -28.3955    3.6575 C.3       2 UNK        -0.2002 
     79 N         -47.1462  -28.8032    5.0422 N.am      2 UNK        -0.4032 
     80 C         -48.4291  -28.7341    5.4266 C.2       1 UNK         0.5000 
     81 O         -49.2284  -27.9133    4.9714 O.2       1 UNK        -0.5238 
     82 H82       -46.7289  -28.6345    9.7515 H         1 UNK         0.0889 
     83 H83       -45.1975  -29.3649    9.2758 H         1 UNK         0.0889 
     84 H84       -46.4316  -30.3509   10.0639 H         1 UNK         0.0889 
     85 H85       -48.6175  -29.0064    8.4494 H         1 UNK         0.3028 
     86 H86       -48.5985  -30.7290    6.1179 H         1 UNK         0.0864 
     87 H87       -50.9538  -29.7713    5.8318 H         1 UNK         0.0720 
     88 H88       -50.6471  -30.7358    7.2324 H         1 UNK         0.0720 
     89 H89       -52.4447  -28.0291    5.9927 H         1 UNK         0.0814 
     90 H90       -51.3318  -26.7168    6.3009 H         1 UNK         0.0814 
     91 H91       -52.0725  -24.8278    7.6582 H         1 UNK         0.1469 
     92 H92       -55.9470  -24.9375    9.4867 H         1 UNK         0.1381 
     93 H93       -54.3462  -28.4496    7.6044 H         1 UNK         0.1206 
     94 H94       -56.5513  -27.5450   10.1313 H         1 UNK         0.0813 
     95 H95       -57.4484  -26.9085    8.7751 H         1 UNK         0.0813 
     96 H96       -58.6553  -30.4353    9.3076 H         1 UNK         0.0638 
     97 H97       -58.1682  -29.1779   10.3890 H         1 UNK         0.0638 
     98 H98       -57.5731  -31.2318   11.4462 H         1 UNK         0.0568 
     99 H99       -55.4750  -33.8945    9.5963 H         1 UNK         0.3450 
    100 H100      -54.8635  -32.6524   10.6526 H         1 UNK         0.3450 
    101 H101      -54.8813  -30.5673   10.5731 H         1 UNK         0.2987 
    102 H102      -53.5350  -29.9130   12.5650 H         1 UNK         0.0766 
    103 H103      -53.6970  -28.4935   10.4902 H         1 UNK         0.0798 
    104 H104      -52.7577  -27.6761   11.7169 H         1 UNK         0.0798 
    105 H105      -54.4212  -27.1893   11.4253 H         1 UNK         0.0798 
    106 H106      -55.2085  -28.2829   14.1964 H         1 UNK         0.3198 
    107 H107      -54.4387  -26.9817   15.9205 H         1 UNK         0.0843 
    108 H108      -54.3990  -29.3570   16.8071 H         1 UNK         0.0831 
    109 H109      -53.8948  -28.2109   18.0354 H         1 UNK         0.0831 
    110 H110      -52.6910  -29.1803   17.1888 H         1 UNK         0.0831 
    111 H111      -51.5996  -26.6986   15.7259 H         1 UNK         0.3133 
    112 H112      -51.4235  -23.8681   16.9275 H         1 UNK         0.0566 
    113 H113      -50.1343  -23.7628   19.0731 H         1 UNK         0.0814 
    114 H114      -51.8672  -23.8370   19.3374 H         1 UNK         0.0814 
    115 H115      -50.8872  -25.2713   19.5923 H         1 UNK         0.0814 
    116 H116      -49.6484  -24.8340   16.0882 H         1 UNK         0.3091 
    117 H117      -47.2610  -26.9496   17.0788 H         1 UNK         0.0702 
    118 H118      -47.4667  -28.4266   15.0533 H         1 UNK         0.0785 
    119 H119      -49.2012  -28.1124   15.0046 H         1 UNK         0.0785 
    120 H120      -48.4976  -28.9620   16.3701 H         1 UNK         0.0785 
    121 H121      -48.4677  -25.6841   14.6496 H         1 UNK         0.2998 
    122 H122      -46.0571  -23.0351   14.7897 H         1 UNK         0.0697 
    123 H123      -46.4989  -25.1978   12.6649 H         1 UNK         0.0825 
    124 H124      -44.9588  -24.7894   13.4047 H         1 UNK         0.0825 
    125 H125      -45.7854  -23.6109   12.3988 H         1 UNK         0.0825 
    126 H126      -48.2208  -23.3917   13.0125 H         1 UNK         0.3029 
    127 H127      -50.5610  -21.4227   14.9237 H         1 UNK         0.0897 
    128 H128      -50.3874  -20.1548   12.7980 H         1 UNK         0.0792 
    129 H129      -48.9378  -19.9292   13.7643 H         1 UNK         0.0792 
    130 H130      -48.9056  -21.0071   12.3736 H         1 UNK         0.0792 
    131 H131      -50.2434  -23.1602   12.5040 H         1 UNK         0.3086 
    132 H132      -53.0156  -25.1114   13.4639 H         1 UNK         0.0583 
    133 H133      -54.1871  -23.1847   12.2532 H         1 UNK         0.1020 
    134 H134      -54.0907  -24.6855   11.3905 H         1 UNK         0.1020 
    135 H135      -54.8289  -22.8446    9.2913 H         1 UNK         0.0694 
    136 H136      -53.5275  -22.6891    8.1402 H         1 UNK         0.0694 
    137 H137      -51.5036  -25.2747   11.1232 H         1 UNK         0.2989 
    138 H138      -48.4169  -26.4666   12.2757 H         1 UNK         0.1055 
    139 H139      -49.8633  -28.5256   12.3687 H         1 UNK         0.0806 
    140 H140      -48.8948  -28.4462   10.9066 H         1 UNK         0.0806 
    141 H141      -50.6107  -28.0540   10.8506 H         1 UNK         0.0806 
    142 H142      -49.2336  -26.2838    9.6356 H         1 UNK         0.3061 
    143 H143      -49.6513  -24.3110    8.3735 H         1 UNK         0.0734 
    144 H144      -49.9509  -22.0489    9.4039 H         1 UNK         0.0832 
    145 H145      -48.2094  -21.8341    9.4655 H         1 UNK         0.0832 
    146 H146      -49.0334  -21.9632    7.9108 H         1 UNK         0.0832 
    147 H147      -46.8976  -23.4666    8.2259 H         1 UNK         0.3156 
    148 H148      -45.5642  -24.6336    6.7706 H         1 UNK         0.0589 
    149 H149      -45.0307  -26.8110    8.8762 H         1 UNK         0.0808 
    150 H150      -43.7961  -26.0188    7.8983 H         1 UNK         0.0808 
    151 H151      -44.7211  -25.0930    9.0688 H         1 UNK         0.0808 
    152 H152      -45.8249  -27.5875    6.6463 H         1 UNK         0.3098 
    153 H153      -47.1200  -27.5667    3.3601 H         1 UNK         0.0720 
    154 H154      -45.3483  -29.2832    3.0529 H         1 UNK         0.0791 
    155 H155      -44.4743  -28.6737    4.4579 H         1 UNK         0.0791 
    156 H156      -44.6468  -27.6737    3.0215 H         1 UNK         0.0791 
    157 H157      -46.5669  -29.5062    5.4926 H         1 UNK         0.3028 
@<TRIPOS>BOND
     1    1    2 1    
     2    1   82 1    
     3    1   83 1    
     4    1   84 1    
     5    2    3 2    
     6    2    4 am   BACKBONE|DICT|INTERRES
     7    4    5 1    
     8    4   85 1    
     9    5    6 1    
    10    5   80 1    
    11    5   86 1    
    12    6    7 1    
    13    6   87 1    
    14    6   88 1    
    15    7    8 1    
    16    8    9 1    
    17    8   89 1    
    18    8   90 1    
    19    9   10 ar   
    20    9   14 ar   
    21   10   11 ar   
    22   10   91 1    
    23   11   12 ar   
    24   11   58 1    
    25   12   13 ar   
    26   12   92 1    
    27   13   14 ar   
    28   13   15 1    
    29   14   93 1    
    30   15   16 1    
    31   15   94 1    
    32   15   95 1    
    33   16   17 1    
    34   17   18 1    
    35   17   96 1    
    36   17   97 1    
    37   18   19 1    
    38   18   22 1    
    39   18   98 1    
    40   19   20 am   BACKBONE|DICT|INTERRES
    41   19   21 2    
    42   20   99 1    
    43   20  100 1    
    44   22   23 am   BACKBONE|DICT|INTERRES
    45   22  101 1    
    46   23   24 2    
    47   23   25 1    
    48   25   26 1    
    49   25   27 1    
    50   25  102 1    
    51   26  103 1    
    52   26  104 1    
    53   26  105 1    
    54   27   28 am   BACKBONE|DICT|INTERRES
    55   27  106 1    
    56   28   29 2    
    57   28   30 1    
    58   30   31 1    
    59   30   32 1    
    60   30  107 1    
    61   31  108 1    
    62   31  109 1    
    63   31  110 1    
    64   32   33 am   BACKBONE|DICT|INTERRES
    65   32  111 1    
    66   33   34 2    
    67   33   35 1    
    68   35   36 1    
    69   35   37 1    
    70   35  112 1    
    71   36  113 1    
    72   36  114 1    
    73   36  115 1    
    74   37   38 am   BACKBONE|DICT|INTERRES
    75   37  116 1    
    76   38   39 2    
    77   38   40 1    
    78   40   41 1    
    79   40   42 1    
    80   40  117 1    
    81   41  118 1    
    82   41  119 1    
    83   41  120 1    
    84   42   43 am   BACKBONE|DICT|INTERRES
    85   42  121 1    
    86   43   44 2    
    87   43   45 1    
    88   45   46 1    
    89   45   47 1    
    90   45  122 1    
    91   46  123 1    
    92   46  124 1    
    93   46  125 1    
    94   47   48 am   BACKBONE|DICT|INTERRES
    95   47  126 1    
    96   48   49 2    
    97   48   50 1    
    98   50   51 1    
    99   50   52 1    
   100   50  127 1    
   101   51  128 1    
   102   51  129 1    
   103   51  130 1    
   104   52   53 am   BACKBONE|DICT|INTERRES
   105   52  131 1    
   106   53   54 2    
   107   53   55 1    
   108   55   56 1    
   109   55   59 1    
   110   55  132 1    
   111   56   57 1    
   112   56  133 1    
   113   56  134 1    
   114   57   58 1    
   115   58  135 1    
   116   58  136 1    
   117   59   60 am   BACKBONE|DICT|INTERRES
   118   59  137 1    
   119   60   61 2    
   120   60   62 1    
   121   62   63 1    
   122   62   64 1    
   123   62  138 1    
   124   63  139 1    
   125   63  140 1    
   126   63  141 1    
   127   64   65 am   BACKBONE|DICT|INTERRES
   128   64  142 1    
   129   65   66 2    
   130   65   67 1    
   131   67   68 1    
   132   67   69 1    
   133   67  143 1    
   134   68  144 1    
   135   68  145 1    
   136   68  146 1    
   137   69   70 am   BACKBONE|DICT|INTERRES
   138   69  147 1    
   139   70   71 2    
   140   70   72 1    
   141   72   73 1    
   142   72   74 1    
   143   72  148 1    
   144   73  149 1    
   145   73  150 1    
   146   73  151 1    
   147   74   75 am   BACKBONE|DICT|INTERRES
   148   74  152 1    
   149   75   76 2    
   150   75   77 1    
   151   77   78 1    
   152   77   79 1    
   153   77  153 1    
   154   78  154 1    
   155   78  155 1    
   156   78  156 1    
   157   79   80 am   BACKBONE|DICT|INTERRES
   158   79  157 1    
   159   80   81 2    
@<TRIPOS>SUBSTRUCTURE
     1 UNK         1 GROUP             0       ****    0 ROOT    
