@<TRIPOS>MOLECULE
3R207
157   159    1
SMALL
USER_CHARGES


@<TRIPOS>ATOM
      1 CA        -51.8515  -26.6561   10.2170 C.3       0 UNK        -0.1975 
      2 C         -52.8450  -26.3621    9.1003 C.2       0 UNK         0.4852 
      3 O         -53.9980  -26.0580    9.3974 O.2       0 UNK        -0.5216 
      4 N         -52.4521  -26.4431    7.8193 N.am      1 UNK        -0.4461 
      5 CA        -51.0943  -26.7485    7.3391 C.3       1 UNK         0.0864 
      6 C6        -51.0551  -27.1837    5.8513 C.3       14 UNK        -0.0898 
      7 S7        -52.2597  -28.4888    5.4266 S.3       14 UNK        -0.2598 
      8 C8        -51.3814  -30.0198    5.8987 C.3       14 UNK         0.0286 
      9 C9        -51.2677  -30.1992    7.4094 C.ar      14 UNK        -0.0844 
     10 C10       -50.0253  -30.4683    7.9968 C.ar      14 UNK        -0.0881 
     11 C11       -49.9112  -30.6099    9.3838 C.ar      14 UNK        -0.0643 
     12 C12       -51.0531  -30.4915   10.1816 C.ar      14 UNK        -0.0930 
     13 C13       -52.2926  -30.1973    9.6111 C.ar      14 UNK        -0.0827 
     14 C14       -52.4001  -30.0791    8.2241 C.ar      14 UNK        -0.1249 
     15 C15       -53.4856  -29.9133   10.5075 C.3       14 UNK         0.0141 
     16 S16       -54.3496  -31.4276   11.0143 S.3       14 UNK        -0.2313 
     17 C17       -54.9308  -30.9635   12.6825 C.3       14 UNK        -0.0915 
     18 CA        -56.3022  -30.2384   12.6756 C.3       13 UNK         0.0968 
     19 C         -56.9190  -30.2032   14.1005 C.2       13 UNK         0.5732 
     20 N         -57.6393  -31.2474   14.4874 N.am      13 UNK        -0.7310 
     21 O         -56.7198  -29.2666   14.8710 O.2       13 UNK        -0.5035 
     22 N         -56.2055  -28.8964   12.0816 N.am      13 UNK        -0.4233 
     23 C         -57.2544  -28.1934   11.6327 C.2       13 UNK         0.4989 
     24 O         -58.4082  -28.6275   11.6318 O.2       13 UNK        -0.4996 
     25 CA        -56.9735  -26.7942   11.0427 C.3       12 UNK         0.0216 
     26 CB        -58.2006  -25.8581   11.1033 C.3       12 UNK        -0.1964 
     27 N         -55.7787  -26.1364   11.5869 N.am      12 UNK        -0.4276 
     28 C         -55.5762  -25.7396   12.8517 C.2       12 UNK         0.5020 
     29 O         -56.4088  -25.8407   13.7553 O.2       12 UNK        -0.5489 
     30 CA        -54.2020  -25.1208   13.1682 C.3       11 UNK         0.0294 
     31 CB        -54.3293  -23.6129   13.4374 C.3       11 UNK        -0.2019 
     32 N         -53.5798  -25.7763   14.3236 N.am      11 UNK        -0.4493 
     33 C         -53.2314  -27.0692   14.3549 C.2       11 UNK         0.4932 
     34 O         -53.2587  -27.8032   13.3664 O.2       11 UNK        -0.5029 
     35 CA        -52.7838  -27.6307   15.7094 C.3       10 UNK         0.0280 
     36 CB        -53.0527  -29.1470   15.8204 C.3       10 UNK        -0.1976 
     37 N         -51.3634  -27.3568   15.9185 N.am      10 UNK        -0.4242 
     38 C         -50.7565  -27.3833   17.1135 C.2       10 UNK         0.5072 
     39 O         -51.3482  -27.5604   18.1796 O.2       10 UNK        -0.5224 
     40 CA        -49.2335  -27.1908   17.1328 C.3       9 UNK         0.0343 
     41 CB        -48.5121  -28.4189   16.5503 C.3       9 UNK        -0.2003 
     42 N         -48.8398  -25.9917   16.3976 N.am      9 UNK        -0.4272 
     43 C         -48.7078  -24.7729   16.9414 C.2       9 UNK         0.4988 
     44 O         -48.8708  -24.5352   18.1388 O.2       9 UNK        -0.5108 
     45 CA        -48.3174  -23.6177   16.0008 C.3       8 UNK         0.0248 
     46 CB        -46.8068  -23.3435   16.0830 C.3       8 UNK        -0.2001 
     47 N         -48.6938  -23.8759   14.6090 N.am      8 UNK        -0.4140 
     48 C         -49.9536  -23.7946   14.1546 C.2       8 UNK         0.5028 
     49 O         -50.8965  -23.3911   14.8355 O.2       8 UNK        -0.5428 
     50 CA        -50.2295  -24.2739   12.7178 C.3       7 UNK         0.0264 
     51 CB        -50.3565  -23.0848   11.7535 C.3       7 UNK        -0.1988 
     52 N         -49.2446  -25.2299   12.1998 N.am      7 UNK        -0.4454 
     53 C         -49.0536  -26.4600   12.7009 C.2       7 UNK         0.5027 
     54 O         -49.6899  -26.9053   13.6564 O.2       7 UNK        -0.5083 
     55 CA        -47.9683  -27.3402   12.0446 C.3       6 UNK         0.0844 
     56 C56       -48.6205  -28.1529   10.9043 C.3       14 UNK        -0.0967 
     57 S57       -47.5157  -29.3583   10.0943 S.3       14 UNK        -0.2604 
     58 C58       -48.5540  -30.8604   10.0332 C.3       14 UNK         0.0134 
     59 N         -46.7907  -26.6041   11.5730 N.am      6 UNK        -0.4116 
     60 C         -46.0705  -25.6863   12.2346 C.2       5 UNK         0.5034 
     61 O         -46.3359  -25.2979   13.3727 O.2       5 UNK        -0.5045 
     62 CA        -44.8532  -25.0817   11.5046 C.3       5 UNK         0.0224 
     63 CB        -43.5478  -25.5104   12.1949 C.3       5 UNK        -0.1978 
     64 N         -44.7678  -25.4131   10.0745 N.am      5 UNK        -0.4737 
     65 C         -45.6271  -24.9935    9.1364 C.2       4 UNK         0.5027 
     66 O         -46.5923  -24.2669    9.3840 O.2       4 UNK        -0.5211 
     67 CA        -45.3760  -25.5090    7.7093 C.3       4 UNK         0.0297 
     68 CB        -45.5291  -27.0397    7.6420 C.3       4 UNK        -0.1993 
     69 N         -46.3533  -24.9176    6.8022 N.am      4 UNK        -0.4486 
     70 C         -46.0920  -24.0984    5.7758 C.2       3 UNK         0.4961 
     71 O         -44.9551  -23.8087    5.4012 O.2       3 UNK        -0.5105 
     72 CA        -47.3026  -23.4931    5.0327 C.3       3 UNK         0.0299 
     73 CB        -47.5636  -24.2549    3.7230 C.3       3 UNK        -0.1972 
     74 N         -48.5265  -23.4961    5.8387 N.am      3 UNK        -0.4305 
     75 C         -48.7208  -22.7428    6.9303 C.2       2 UNK         0.5006 
     76 O         -47.9793  -21.8130    7.2506 O.2       2 UNK        -0.5106 
     77 CA        -49.9188  -23.0883    7.8385 C.3       2 UNK         0.0296 
     78 CB        -50.9359  -21.9349    7.8692 C.3       2 UNK        -0.2002 
     79 N         -50.6285  -24.3385    7.5290 N.am      2 UNK        -0.4032 
     80 C         -50.1184  -25.5796    7.5810 C.2       1 UNK         0.5000 
     81 O         -48.9369  -25.8224    7.8196 O.2       1 UNK        -0.5238 
     82 H82       -51.3310  -27.5931   10.0426 H         1 UNK         0.0889 
     83 H83       -52.3597  -26.7596   11.1715 H         1 UNK         0.0889 
     84 H84       -51.1261  -25.8508   10.3037 H         1 UNK         0.0889 
     85 H85       -53.1424  -26.2997    7.0958 H         1 UNK         0.3028 
     86 H86       -50.7098  -27.5880    7.9171 H         1 UNK         0.0864 
     87 H87       -51.2653  -26.3330    5.2000 H         1 UNK         0.0720 
     88 H88       -50.0554  -27.5304    5.5813 H         1 UNK         0.0720 
     89 H89       -50.3982  -30.0280    5.4256 H         1 UNK         0.0814 
     90 H90       -51.9251  -30.8728    5.4908 H         1 UNK         0.0814 
     91 H91       -49.1403  -30.5510    7.3805 H         1 UNK         0.1469 
     92 H92       -50.9722  -30.5839   11.2563 H         1 UNK         0.1381 
     93 H93       -53.3591  -29.8492    7.7801 H         1 UNK         0.1206 
     94 H94       -54.1906  -29.2491   10.0052 H         1 UNK         0.0813 
     95 H95       -53.1337  -29.3736   11.3851 H         1 UNK         0.0813 
     96 H96       -54.9999  -31.8943   13.2488 H         1 UNK         0.0638 
     97 H97       -54.1730  -30.3668   13.1918 H         1 UNK         0.0638 
     98 H98       -56.9795  -30.8222   12.0485 H         1 UNK         0.0568 
     99 H99       -58.0357  -31.2507   15.4141 H         1 UNK         0.3450 
    100 H100      -57.8004  -32.0288   13.8710 H         1 UNK         0.3450 
    101 H101      -55.3008  -28.4502   12.1336 H         1 UNK         0.2987 
    102 H102      -56.7530  -26.9655    9.9880 H         1 UNK         0.0766 
    103 H103      -57.9799  -24.8854   10.6638 H         1 UNK         0.0798 
    104 H104      -58.5367  -25.6959   12.1278 H         1 UNK         0.0798 
    105 H105      -59.0417  -26.2773   10.5497 H         1 UNK         0.0798 
    106 H106      -55.0326  -26.0087   10.9024 H         1 UNK         0.3198 
    107 H107      -53.5474  -25.2494   12.3070 H         1 UNK         0.0843 
    108 H108      -54.9584  -23.4092   14.3049 H         1 UNK         0.0831 
    109 H109      -54.7766  -23.1019   12.5837 H         1 UNK         0.0831 
    110 H110      -53.3557  -23.1555   13.6132 H         1 UNK         0.0831 
    111 H111      -53.5288  -25.2376   15.1763 H         1 UNK         0.3133 
    112 H112      -53.3642  -27.1234   16.4830 H         1 UNK         0.0566 
    113 H113      -52.8395  -29.5211   16.8215 H         1 UNK         0.0814 
    114 H114      -54.0984  -29.3725   15.6106 H         1 UNK         0.0814 
    115 H115      -52.4466  -29.7160   15.1143 H         1 UNK         0.0814 
    116 H116      -50.8090  -27.1958   15.0775 H         1 UNK         0.3091 
    117 H117      -48.9222  -27.0947   18.1755 H         1 UNK         0.0702 
    118 H118      -47.4296  -28.3066   16.6129 H         1 UNK         0.0785 
    119 H119      -48.7691  -28.5922   15.5051 H         1 UNK         0.0785 
    120 H120      -48.7762  -29.3216   17.1028 H         1 UNK         0.0785 
    121 H121      -48.7425  -26.0913   15.3955 H         1 UNK         0.2998 
    122 H122      -48.8412  -22.7216   16.3411 H         1 UNK         0.0697 
    123 H123      -46.2198  -24.2195   15.8050 H         1 UNK         0.0825 
    124 H124      -46.5170  -23.0691   17.0982 H         1 UNK         0.0825 
    125 H125      -46.5145  -22.5216   15.4293 H         1 UNK         0.0825 
    126 H126      -47.9657  -24.2400   14.0022 H         1 UNK         0.3029 
    127 H127      -51.1938  -24.7842   12.7483 H         1 UNK         0.0897 
    128 H128      -50.7623  -23.4009   10.7936 H         1 UNK         0.0792 
    129 H129      -51.0363  -22.3288   12.1497 H         1 UNK         0.0792 
    130 H130      -49.3956  -22.5999   11.5767 H         1 UNK         0.0792 
    131 H131      -48.6633  -24.9243   11.4307 H         1 UNK         0.3086 
    132 H132      -47.6171  -28.0363   12.8087 H         1 UNK         0.0583 
    133 H133      -49.4871  -28.6790   11.3029 H         1 UNK         0.1020 
    134 H134      -48.9908  -27.4865   10.1234 H         1 UNK         0.1020 
    135 H135      -48.0230  -31.6344    9.4774 H         1 UNK         0.0694 
    136 H136      -48.6788  -31.2454   11.0465 H         1 UNK         0.0694 
    137 H137      -46.4780  -26.8484   10.6453 H         1 UNK         0.2989 
    138 H138      -44.9458  -23.9967   11.5911 H         1 UNK         0.1055 
    139 H139      -43.5581  -25.2439   13.2530 H         1 UNK         0.0806 
    140 H140      -42.6824  -25.0187   11.7501 H         1 UNK         0.0806 
    141 H141      -43.3928  -26.5883   12.1327 H         1 UNK         0.0806 
    142 H142      -43.9993  -26.0076    9.7964 H         1 UNK         0.3061 
    143 H143      -44.3598  -25.2323    7.4214 H         1 UNK         0.0734 
    144 H144      -45.3687  -27.4059    6.6279 H         1 UNK         0.0832 
    145 H145      -44.8073  -27.5481    8.2820 H         1 UNK         0.0832 
    146 H146      -46.5254  -27.3574    7.9530 H         1 UNK         0.0832 
    147 H147      -47.3194  -25.0543    7.0910 H         1 UNK         0.3156 
    148 H148      -47.0567  -22.4582    4.7857 H         1 UNK         0.0589 
    149 H149      -47.8203  -25.2991    3.9065 H         1 UNK         0.0808 
    150 H150      -48.3762  -23.8023    3.1544 H         1 UNK         0.0808 
    151 H151      -46.6792  -24.2450    3.0841 H         1 UNK         0.0808 
    152 H152      -49.1982  -24.2213    5.6387 H         1 UNK         0.3098 
    153 H153      -49.5003  -23.1998    8.8401 H         1 UNK         0.0720 
    154 H154      -50.4564  -20.9950    8.1467 H         1 UNK         0.0791 
    155 H155      -51.7244  -22.1181    8.5995 H         1 UNK         0.0791 
    156 H156      -51.4049  -21.7861    6.8958 H         1 UNK         0.0791 
    157 H157      -51.6114  -24.2471    7.3138 H         1 UNK         0.3028 
@<TRIPOS>BOND
     1    1    2 1    
     2    1   82 1    
     3    1   83 1    
     4    1   84 1    
     5    2    3 2    
     6    2    4 am   BACKBONE|DICT|INTERRES
     7    4    5 1    
     8    4   85 1    
     9    5    6 1    
    10    5   80 1    
    11    5   86 1    
    12    6    7 1    
    13    6   87 1    
    14    6   88 1    
    15    7    8 1    
    16    8    9 1    
    17    8   89 1    
    18    8   90 1    
    19    9   10 ar   
    20    9   14 ar   
    21   10   11 ar   
    22   10   91 1    
    23   11   12 ar   
    24   11   58 1    
    25   12   13 ar   
    26   12   92 1    
    27   13   14 ar   
    28   13   15 1    
    29   14   93 1    
    30   15   16 1    
    31   15   94 1    
    32   15   95 1    
    33   16   17 1    
    34   17   18 1    
    35   17   96 1    
    36   17   97 1    
    37   18   19 1    
    38   18   22 1    
    39   18   98 1    
    40   19   20 am   BACKBONE|DICT|INTERRES
    41   19   21 2    
    42   20   99 1    
    43   20  100 1    
    44   22   23 am   BACKBONE|DICT|INTERRES
    45   22  101 1    
    46   23   24 2    
    47   23   25 1    
    48   25   26 1    
    49   25   27 1    
    50   25  102 1    
    51   26  103 1    
    52   26  104 1    
    53   26  105 1    
    54   27   28 am   BACKBONE|DICT|INTERRES
    55   27  106 1    
    56   28   29 2    
    57   28   30 1    
    58   30   31 1    
    59   30   32 1    
    60   30  107 1    
    61   31  108 1    
    62   31  109 1    
    63   31  110 1    
    64   32   33 am   BACKBONE|DICT|INTERRES
    65   32  111 1    
    66   33   34 2    
    67   33   35 1    
    68   35   36 1    
    69   35   37 1    
    70   35  112 1    
    71   36  113 1    
    72   36  114 1    
    73   36  115 1    
    74   37   38 am   BACKBONE|DICT|INTERRES
    75   37  116 1    
    76   38   39 2    
    77   38   40 1    
    78   40   41 1    
    79   40   42 1    
    80   40  117 1    
    81   41  118 1    
    82   41  119 1    
    83   41  120 1    
    84   42   43 am   BACKBONE|DICT|INTERRES
    85   42  121 1    
    86   43   44 2    
    87   43   45 1    
    88   45   46 1    
    89   45   47 1    
    90   45  122 1    
    91   46  123 1    
    92   46  124 1    
    93   46  125 1    
    94   47   48 am   BACKBONE|DICT|INTERRES
    95   47  126 1    
    96   48   49 2    
    97   48   50 1    
    98   50   51 1    
    99   50   52 1    
   100   50  127 1    
   101   51  128 1    
   102   51  129 1    
   103   51  130 1    
   104   52   53 am   BACKBONE|DICT|INTERRES
   105   52  131 1    
   106   53   54 2    
   107   53   55 1    
   108   55   56 1    
   109   55   59 1    
   110   55  132 1    
   111   56   57 1    
   112   56  133 1    
   113   56  134 1    
   114   57   58 1    
   115   58  135 1    
   116   58  136 1    
   117   59   60 am   BACKBONE|DICT|INTERRES
   118   59  137 1    
   119   60   61 2    
   120   60   62 1    
   121   62   63 1    
   122   62   64 1    
   123   62  138 1    
   124   63  139 1    
   125   63  140 1    
   126   63  141 1    
   127   64   65 am   BACKBONE|DICT|INTERRES
   128   64  142 1    
   129   65   66 2    
   130   65   67 1    
   131   67   68 1    
   132   67   69 1    
   133   67  143 1    
   134   68  144 1    
   135   68  145 1    
   136   68  146 1    
   137   69   70 am   BACKBONE|DICT|INTERRES
   138   69  147 1    
   139   70   71 2    
   140   70   72 1    
   141   72   73 1    
   142   72   74 1    
   143   72  148 1    
   144   73  149 1    
   145   73  150 1    
   146   73  151 1    
   147   74   75 am   BACKBONE|DICT|INTERRES
   148   74  152 1    
   149   75   76 2    
   150   75   77 1    
   151   77   78 1    
   152   77   79 1    
   153   77  153 1    
   154   78  154 1    
   155   78  155 1    
   156   78  156 1    
   157   79   80 am   BACKBONE|DICT|INTERRES
   158   79  157 1    
   159   80   81 2    
@<TRIPOS>SUBSTRUCTURE
     1 UNK         1 GROUP             0       ****    0 ROOT    
