@<TRIPOS>MOLECULE
3R207
157   159    1
SMALL
USER_CHARGES


@<TRIPOS>ATOM
      1 CA        -49.6138  -23.4369    2.5263 C.3       0 UNK        -0.1975 
      2 C         -50.2060  -23.7885    3.8826 C.2       0 UNK         0.4852 
      3 O         -50.6734  -22.9005    4.5978 O.2       0 UNK        -0.5216 
      4 N         -50.1811  -25.0758    4.2540 N.am      1 UNK        -0.4461 
      5 CA        -50.6952  -25.6112    5.5201 C.3       1 UNK         0.0864 
      6 C6        -51.0627  -27.1092    5.3674 C.3       14 UNK        -0.0898 
      7 S7        -52.1371  -27.7198    6.7104 S.3       14 UNK        -0.2598 
      8 C8        -51.2710  -29.2609    7.1352 C.3       14 UNK         0.0286 
      9 C9        -51.8659  -29.9240    8.3673 C.ar      14 UNK        -0.0844 
     10 C10       -51.1962  -29.8642    9.5920 C.ar      14 UNK        -0.0881 
     11 C11       -51.7157  -30.4971   10.7279 C.ar      14 UNK        -0.0643 
     12 C12       -52.9243  -31.1915   10.6204 C.ar      14 UNK        -0.0930 
     13 C13       -53.6287  -31.2200    9.4114 C.ar      14 UNK        -0.0827 
     14 C14       -53.0846  -30.6003    8.2836 C.ar      14 UNK        -0.1249 
     15 C15       -54.9967  -31.8828    9.3294 C.3       14 UNK         0.0141 
     16 S16       -56.1749  -31.1916   10.5382 S.3       14 UNK        -0.2313 
     17 C17       -56.2250  -29.4138   10.0977 C.3       14 UNK        -0.0915 
     18 CA        -55.2186  -28.5166   10.8890 C.3       13 UNK         0.0968 
     19 C         -55.3583  -27.0050   10.5373 C.2       13 UNK         0.5732 
     20 N         -55.1682  -26.0868   11.4772 N.am      13 UNK        -0.7310 
     21 O         -55.6106  -26.6532    9.3877 O.2       13 UNK        -0.5035 
     22 N         -55.1563  -28.8323   12.3296 N.am      13 UNK        -0.4233 
     23 C         -56.1659  -28.7346   13.2055 C.2       13 UNK         0.4989 
     24 O         -57.2574  -28.2218   12.9602 O.2       13 UNK        -0.4996 
     25 CA        -55.9010  -29.3202   14.5961 C.3       12 UNK         0.0216 
     26 CB        -55.7674  -30.8571   14.5248 C.3       12 UNK        -0.1964 
     27 N         -54.7139  -28.7015   15.1874 N.am      12 UNK        -0.4276 
     28 C         -54.3379  -28.8007   16.4688 C.2       12 UNK         0.5020 
     29 O         -54.9258  -29.4782   17.3131 O.2       12 UNK        -0.5489 
     30 CA        -53.0964  -27.9924   16.8850 C.3       11 UNK         0.0294 
     31 CB        -51.8224  -28.8273   16.6809 C.3       11 UNK        -0.2019 
     32 N         -52.9663  -26.7227   16.1631 N.am      11 UNK        -0.4493 
     33 C         -53.7901  -25.6749   16.3175 C.2       11 UNK         0.4932 
     34 O         -54.7526  -25.6712   17.0869 O.2       11 UNK        -0.5029 
     35 CA        -53.4817  -24.4312   15.4632 C.3       10 UNK         0.0280 
     36 CB        -54.3045  -23.1905   15.8703 C.3       10 UNK        -0.1976 
     37 N         -52.0504  -24.1193   15.4179 N.am      10 UNK        -0.4242 
     38 C         -51.2408  -23.8019   16.4414 C.2       10 UNK         0.5072 
     39 O         -51.6169  -23.6926   17.6093 O.2       10 UNK        -0.5224 
     40 CA        -49.7479  -23.5796   16.1215 C.3       9 UNK         0.0343 
     41 CB        -48.9040  -24.7307   16.6941 C.3       9 UNK        -0.2003 
     42 N         -49.4626  -23.4578   14.6898 N.am      9 UNK        -0.4272 
     43 C         -49.7971  -22.4150   13.9167 C.2       9 UNK         0.4988 
     44 O         -50.2984  -21.3745   14.3424 O.2       9 UNK        -0.5108 
     45 CA        -49.5808  -22.5921   12.4044 C.3       8 UNK         0.0248 
     46 CB        -48.1336  -22.2448   12.0201 C.3       8 UNK        -0.2001 
     47 N         -49.9119  -23.9500   11.9538 N.am      8 UNK        -0.4140 
     48 C         -51.1545  -24.4585   11.9343 C.2       8 UNK         0.5028 
     49 O         -52.1570  -23.8206   12.2512 O.2       8 UNK        -0.5428 
     50 CA        -51.3069  -25.9382   11.5462 C.3       7 UNK         0.0264 
     51 CB        -51.4059  -26.0952   10.0229 C.3       7 UNK        -0.1988 
     52 N         -50.2176  -26.7696   12.0604 N.am      7 UNK        -0.4454 
     53 C         -50.0588  -27.0973   13.3516 C.2       7 UNK         0.5027 
     54 O         -50.8601  -26.7865   14.2345 O.2       7 UNK        -0.5083 
     55 CA        -48.7694  -27.8653   13.7236 C.3       6 UNK         0.0844 
     56 C56       -48.9651  -29.4029   13.7119 C.3       14 UNK        -0.0967 
     57 S57       -49.2415  -30.1133   12.0509 S.3       14 UNK        -0.2604 
     58 C58       -51.0473  -30.3849   12.0972 C.3       14 UNK         0.0134 
     59 N         -47.6113  -27.4471   12.9251 N.am      6 UNK        -0.4116 
     60 C         -47.0897  -26.2144   12.9142 C.2       5 UNK         0.5034 
     61 O         -47.5333  -25.2895   13.5935 O.2       5 UNK        -0.5045 
     62 CA        -45.9179  -25.9357   11.9594 C.3       5 UNK         0.0224 
     63 CB        -44.5706  -26.3249   12.5973 C.3       5 UNK        -0.1978 
     64 N         -46.0784  -26.5070   10.6137 N.am      5 UNK        -0.4737 
     65 C         -46.0501  -27.7932   10.2303 C.2       4 UNK         0.5027 
     66 O         -45.9071  -28.7289   11.0172 O.2       4 UNK        -0.5211 
     67 CA        -46.2551  -28.1072    8.7341 C.3       4 UNK         0.0297 
     68 CB        -47.5696  -28.8744    8.5296 C.3       4 UNK        -0.1993 
     69 N         -46.2683  -26.9176    7.8776 N.am      4 UNK        -0.4486 
     70 C         -45.1790  -26.2178    7.5244 C.2       3 UNK         0.4961 
     71 O         -44.0305  -26.5619    7.8046 O.2       3 UNK        -0.5105 
     72 CA        -45.3935  -24.8968    6.7557 C.3       3 UNK         0.0299 
     73 CB        -45.1379  -25.1049    5.2542 C.3       3 UNK        -0.1972 
     74 N         -46.7202  -24.2972    6.9335 N.am      3 UNK        -0.4305 
     75 C         -47.2652  -23.9260    8.1015 C.2       2 UNK         0.5006 
     76 O         -46.6765  -23.9900    9.1807 O.2       2 UNK        -0.5106 
     77 CA        -48.7339  -23.4637    8.0792 C.3       2 UNK         0.0296 
     78 CB        -48.8096  -21.9297    8.0149 C.3       2 UNK        -0.2002 
     79 N         -49.5557  -24.0246    6.9985 N.am      2 UNK        -0.4032 
     80 C         -49.7127  -25.3182    6.6782 C.2       1 UNK         0.5000 
     81 O         -49.0892  -26.2337    7.2205 O.2       1 UNK        -0.5238 
     82 H82       -49.2344  -24.3161    2.0060 H         1 UNK         0.0889 
     83 H83       -48.7910  -22.7327    2.6475 H         1 UNK         0.0889 
     84 H84       -50.3713  -22.9709    1.8968 H         1 UNK         0.0889 
     85 H85       -49.7621  -25.7558    3.6350 H         1 UNK         0.3028 
     86 H86       -51.6200  -25.0773    5.7519 H         1 UNK         0.0864 
     87 H87       -51.6138  -27.2608    4.4379 H         1 UNK         0.0720 
     88 H88       -50.1636  -27.7224    5.2806 H         1 UNK         0.0720 
     89 H89       -50.2147  -29.0439    7.2948 H         1 UNK         0.0814 
     90 H90       -51.3206  -29.9484    6.2896 H         1 UNK         0.0814 
     91 H91       -50.2737  -29.3094    9.6582 H         1 UNK         0.1469 
     92 H92       -53.3494  -31.6690   11.4928 H         1 UNK         0.1381 
     93 H93       -53.6166  -30.6237    7.3422 H         1 UNK         0.1206 
     94 H94       -55.4210  -31.7844    8.3290 H         1 UNK         0.0813 
     95 H95       -54.8853  -32.9519    9.5142 H         1 UNK         0.0813 
     96 H96       -57.2451  -29.0676   10.2712 H         1 UNK         0.0638 
     97 H97       -56.0548  -29.3174    9.0239 H         1 UNK         0.0638 
     98 H98       -54.2241  -28.7555   10.5168 H         1 UNK         0.0568 
     99 H99       -55.2459  -25.1125   11.2333 H         1 UNK         0.3450 
    100 H100      -54.9929  -26.3570   12.4286 H         1 UNK         0.3450 
    101 H101      -54.3072  -29.2870   12.6267 H         1 UNK         0.2987 
    102 H102      -56.7603  -29.0753   15.2242 H         1 UNK         0.0766 
    103 H103      -55.7497  -31.3051   15.5181 H         1 UNK         0.0798 
    104 H104      -54.8592  -31.1648   14.0058 H         1 UNK         0.0798 
    105 H105      -56.6117  -31.2981   13.9926 H         1 UNK         0.0798 
    106 H106      -54.1875  -28.0760   14.5949 H         1 UNK         0.3198 
    107 H107      -53.1894  -27.7645   17.9492 H         1 UNK         0.0843 
    108 H108      -51.6962  -29.1131   15.6369 H         1 UNK         0.0831 
    109 H109      -51.8607  -29.7460   17.2680 H         1 UNK         0.0831 
    110 H110      -50.9321  -28.2797   16.9908 H         1 UNK         0.0831 
    111 H111      -52.1878  -26.6450   15.5093 H         1 UNK         0.3133 
    112 H112      -53.7650  -24.6892   14.4419 H         1 UNK         0.0566 
    113 H113      -54.0756  -22.3377   15.2312 H         1 UNK         0.0814 
    114 H114      -55.3741  -23.3842   15.7799 H         1 UNK         0.0814 
    115 H115      -54.1139  -22.8973   16.9031 H         1 UNK         0.0814 
    116 H116      -51.6315  -24.1821   14.4997 H         1 UNK         0.3091 
    117 H117      -49.4427  -22.6517   16.6094 H         1 UNK         0.0702 
    118 H118      -47.8410  -24.5760   16.5077 H         1 UNK         0.0785 
    119 H119      -49.1848  -25.6895   16.2572 H         1 UNK         0.0785 
    120 H120      -49.0356  -24.8137   17.7737 H         1 UNK         0.0785 
    121 H121      -48.9630  -24.2330   14.2613 H         1 UNK         0.2998 
    122 H122      -50.2454  -21.8968   11.8868 H         1 UNK         0.0697 
    123 H123      -47.4084  -22.8674   12.5436 H         1 UNK         0.0825 
    124 H124      -47.9061  -21.2075   12.2690 H         1 UNK         0.0825 
    125 H125      -47.9640  -22.3642   10.9519 H         1 UNK         0.0825 
    126 H126      -49.1368  -24.5528   11.7233 H         1 UNK         0.3029 
    127 H127      -52.2432  -26.2942   11.9816 H         1 UNK         0.0897 
    128 H128      -51.6903  -27.1101    9.7493 H         1 UNK         0.0792 
    129 H129      -52.1648  -25.4314    9.6057 H         1 UNK         0.0792 
    130 H130      -50.4616  -25.8669    9.5308 H         1 UNK         0.0792 
    131 H131      -49.5277  -27.0932   11.3989 H         1 UNK         0.3086 
    132 H132      -48.5434  -27.5867   14.7550 H         1 UNK         0.0583 
    133 H133      -48.0741  -29.8782   14.1253 H         1 UNK         0.1020 
    134 H134      -49.7749  -29.6947   14.3819 H         1 UNK         0.1020 
    135 H135      -51.2399  -31.2853   12.6828 H         1 UNK         0.0694 
    136 H136      -51.5248  -29.5607   12.6276 H         1 UNK         0.0694 
    137 H137      -47.1754  -28.1499   12.3330 H         1 UNK         0.2989 
    138 H138      -45.8996  -24.8547   11.8086 H         1 UNK         0.1055 
    139 H139      -44.4206  -25.7945   13.5387 H         1 UNK         0.0806 
    140 H140      -43.7358  -26.0686   11.9449 H         1 UNK         0.0806 
    141 H141      -44.5103  -27.3913   12.8160 H         1 UNK         0.0806 
    142 H142      -46.2348  -25.8100    9.8906 H         1 UNK         0.3061 
    143 H143      -45.4310  -28.7522    8.4225 H         1 UNK         0.0734 
    144 H144      -47.7039  -29.1608    7.4866 H         1 UNK         0.0832 
    145 H145      -47.5924  -29.7893    9.1237 H         1 UNK         0.0832 
    146 H146      -48.4257  -28.2690    8.8260 H         1 UNK         0.0832 
    147 H147      -47.1855  -26.5774    7.5973 H         1 UNK         0.3156 
    148 H148      -44.6603  -24.1812    7.1331 H         1 UNK         0.0589 
    149 H149      -45.8611  -25.7925    4.8134 H         1 UNK         0.0808 
    150 H150      -45.1898  -24.1636    4.7066 H         1 UNK         0.0808 
    151 H151      -44.1448  -25.5224    5.0813 H         1 UNK         0.0808 
    152 H152      -47.2899  -24.2148    6.1048 H         1 UNK         0.3098 
    153 H153      -49.1808  -23.7870    9.0207 H         1 UNK         0.0720 
    154 H154      -49.8295  -21.5771    8.1705 H         1 UNK         0.0791 
    155 H155      -48.4674  -21.5508    7.0510 H         1 UNK         0.0791 
    156 H156      -48.1888  -21.4664    8.7824 H         1 UNK         0.0791 
    157 H157      -50.0589  -23.3563    6.4213 H         1 UNK         0.3028 
@<TRIPOS>BOND
     1    1    2 1    
     2    1   82 1    
     3    1   83 1    
     4    1   84 1    
     5    2    3 2    
     6    2    4 am   BACKBONE|DICT|INTERRES
     7    4    5 1    
     8    4   85 1    
     9    5    6 1    
    10    5   80 1    
    11    5   86 1    
    12    6    7 1    
    13    6   87 1    
    14    6   88 1    
    15    7    8 1    
    16    8    9 1    
    17    8   89 1    
    18    8   90 1    
    19    9   10 ar   
    20    9   14 ar   
    21   10   11 ar   
    22   10   91 1    
    23   11   12 ar   
    24   11   58 1    
    25   12   13 ar   
    26   12   92 1    
    27   13   14 ar   
    28   13   15 1    
    29   14   93 1    
    30   15   16 1    
    31   15   94 1    
    32   15   95 1    
    33   16   17 1    
    34   17   18 1    
    35   17   96 1    
    36   17   97 1    
    37   18   19 1    
    38   18   22 1    
    39   18   98 1    
    40   19   20 am   BACKBONE|DICT|INTERRES
    41   19   21 2    
    42   20   99 1    
    43   20  100 1    
    44   22   23 am   BACKBONE|DICT|INTERRES
    45   22  101 1    
    46   23   24 2    
    47   23   25 1    
    48   25   26 1    
    49   25   27 1    
    50   25  102 1    
    51   26  103 1    
    52   26  104 1    
    53   26  105 1    
    54   27   28 am   BACKBONE|DICT|INTERRES
    55   27  106 1    
    56   28   29 2    
    57   28   30 1    
    58   30   31 1    
    59   30   32 1    
    60   30  107 1    
    61   31  108 1    
    62   31  109 1    
    63   31  110 1    
    64   32   33 am   BACKBONE|DICT|INTERRES
    65   32  111 1    
    66   33   34 2    
    67   33   35 1    
    68   35   36 1    
    69   35   37 1    
    70   35  112 1    
    71   36  113 1    
    72   36  114 1    
    73   36  115 1    
    74   37   38 am   BACKBONE|DICT|INTERRES
    75   37  116 1    
    76   38   39 2    
    77   38   40 1    
    78   40   41 1    
    79   40   42 1    
    80   40  117 1    
    81   41  118 1    
    82   41  119 1    
    83   41  120 1    
    84   42   43 am   BACKBONE|DICT|INTERRES
    85   42  121 1    
    86   43   44 2    
    87   43   45 1    
    88   45   46 1    
    89   45   47 1    
    90   45  122 1    
    91   46  123 1    
    92   46  124 1    
    93   46  125 1    
    94   47   48 am   BACKBONE|DICT|INTERRES
    95   47  126 1    
    96   48   49 2    
    97   48   50 1    
    98   50   51 1    
    99   50   52 1    
   100   50  127 1    
   101   51  128 1    
   102   51  129 1    
   103   51  130 1    
   104   52   53 am   BACKBONE|DICT|INTERRES
   105   52  131 1    
   106   53   54 2    
   107   53   55 1    
   108   55   56 1    
   109   55   59 1    
   110   55  132 1    
   111   56   57 1    
   112   56  133 1    
   113   56  134 1    
   114   57   58 1    
   115   58  135 1    
   116   58  136 1    
   117   59   60 am   BACKBONE|DICT|INTERRES
   118   59  137 1    
   119   60   61 2    
   120   60   62 1    
   121   62   63 1    
   122   62   64 1    
   123   62  138 1    
   124   63  139 1    
   125   63  140 1    
   126   63  141 1    
   127   64   65 am   BACKBONE|DICT|INTERRES
   128   64  142 1    
   129   65   66 2    
   130   65   67 1    
   131   67   68 1    
   132   67   69 1    
   133   67  143 1    
   134   68  144 1    
   135   68  145 1    
   136   68  146 1    
   137   69   70 am   BACKBONE|DICT|INTERRES
   138   69  147 1    
   139   70   71 2    
   140   70   72 1    
   141   72   73 1    
   142   72   74 1    
   143   72  148 1    
   144   73  149 1    
   145   73  150 1    
   146   73  151 1    
   147   74   75 am   BACKBONE|DICT|INTERRES
   148   74  152 1    
   149   75   76 2    
   150   75   77 1    
   151   77   78 1    
   152   77   79 1    
   153   77  153 1    
   154   78  154 1    
   155   78  155 1    
   156   78  156 1    
   157   79   80 am   BACKBONE|DICT|INTERRES
   158   79  157 1    
   159   80   81 2    
@<TRIPOS>SUBSTRUCTURE
     1 UNK         1 GROUP             0       ****    0 ROOT    
