@<TRIPOS>MOLECULE
3R207
157   159    1
SMALL
USER_CHARGES


@<TRIPOS>ATOM
      1 CA        -46.2091  -30.3353    2.9691 C.3       0 UNK        -0.1975 
      2 C         -47.3625  -31.0655    3.6526 C.2       0 UNK         0.4852 
      3 O         -47.2281  -32.2480    3.9617 O.2       0 UNK        -0.5216 
      4 N         -48.5101  -30.4196    3.9087 N.am      1 UNK        -0.4461 
      5 CA        -48.8236  -29.0073    3.6468 C.3       1 UNK         0.0864 
      6 C6        -50.3544  -28.7630    3.5644 C.3       14 UNK        -0.0898 
      7 S7        -51.3035  -29.4176    4.9821 S.3       14 UNK        -0.2598 
      8 C8        -51.6691  -27.8868    5.8951 C.3       14 UNK         0.0286 
      9 C9        -52.2364  -28.1738    7.2772 C.ar      14 UNK        -0.0844 
     10 C10       -51.4721  -28.8845    8.2060 C.ar      14 UNK        -0.0881 
     11 C11       -51.9580  -29.1265    9.4932 C.ar      14 UNK        -0.0643 
     12 C12       -53.2224  -28.6523    9.8522 C.ar      14 UNK        -0.0930 
     13 C13       -53.9964  -27.9374    8.9344 C.ar      14 UNK        -0.0827 
     14 C14       -53.5014  -27.7034    7.6462 C.ar      14 UNK        -0.1249 
     15 C15       -55.3607  -27.4097    9.3474 C.3       14 UNK         0.0141 
     16 S16       -56.6385  -28.6838    9.1416 S.3       14 UNK        -0.2313 
     17 C17       -58.1338  -27.7686    9.6532 C.3       14 UNK        -0.0915 
     18 CA        -58.9075  -28.3340   10.8828 C.3       13 UNK         0.0968 
     19 C         -59.3144  -29.8368   10.7684 C.2       13 UNK         0.5732 
     20 N         -59.3132  -30.6131   11.8449 N.am      13 UNK        -0.7310 
     21 O         -59.6959  -30.2956    9.6938 O.2       13 UNK        -0.5035 
     22 N         -58.3799  -27.8786   12.1840 N.am      13 UNK        -0.4233 
     23 C         -57.2972  -28.3059   12.8472 C.2       13 UNK         0.4989 
     24 O         -56.5103  -29.1611   12.4380 O.2       13 UNK        -0.4996 
     25 CA        -57.1217  -27.7106   14.2547 C.3       12 UNK         0.0216 
     26 CB        -58.1560  -28.3115   15.2246 C.3       12 UNK        -0.1964 
     27 N         -55.7848  -27.9754   14.7883 N.am      12 UNK        -0.4276 
     28 C         -54.7490  -27.1343   14.7103 C.2       12 UNK         0.5020 
     29 O         -54.7983  -26.0270   14.1670 O.2       12 UNK        -0.5489 
     30 CA        -53.4291  -27.6319   15.3273 C.3       11 UNK         0.0294 
     31 CB        -52.6121  -28.4086   14.2846 C.3       11 UNK        -0.2019 
     32 N         -52.6236  -26.5210   15.8393 N.am      11 UNK        -0.4493 
     33 C         -52.9060  -25.8318   16.9535 C.2       11 UNK         0.4932 
     34 O         -53.8342  -26.1185   17.7130 O.2       11 UNK        -0.5029 
     35 CA        -52.0003  -24.6232   17.2649 C.3       10 UNK         0.0280 
     36 CB        -52.2233  -24.0396   18.6766 C.3       10 UNK        -0.1976 
     37 N         -50.5788  -24.8950   17.0271 N.am      10 UNK        -0.4242 
     38 C         -49.8002  -25.8050   17.6332 C.2       10 UNK         0.5072 
     39 O         -50.1821  -26.5331   18.5508 O.2       10 UNK        -0.5224 
     40 CA        -48.3476  -25.9516   17.1324 C.3       9 UNK         0.0343 
     41 CB        -48.1629  -27.3040   16.4240 C.3       9 UNK        -0.2003 
     42 N         -47.9174  -24.8821   16.2267 N.am      9 UNK        -0.4272 
     43 C         -47.6176  -23.6294   16.5974 C.2       9 UNK         0.4988 
     44 O         -47.5900  -23.2495   17.7683 O.2       9 UNK        -0.5108 
     45 CA        -47.3455  -22.6181   15.4676 C.3       8 UNK         0.0248 
     46 CB        -45.8741  -22.6701   15.0267 C.3       8 UNK        -0.2001 
     47 N         -48.2224  -22.8047   14.3049 N.am      8 UNK        -0.4140 
     48 C         -49.5579  -22.6722   14.3372 C.2       8 UNK         0.5028 
     49 O         -50.1869  -22.3300   15.3381 O.2       8 UNK        -0.5428 
     50 CA        -50.3339  -23.0355   13.0623 C.3       7 UNK         0.0264 
     51 CB        -50.2800  -21.8862   12.0436 C.3       7 UNK        -0.1988 
     52 N         -49.8563  -24.2788   12.4524 N.am      7 UNK        -0.4454 
     53 C         -49.9467  -25.4874   13.0273 C.2       7 UNK         0.5027 
     54 O         -50.5211  -25.6846   14.0982 O.2       7 UNK        -0.5083 
     55 CA        -49.2470  -26.6724   12.3310 C.3       6 UNK         0.0844 
     56 C56       -50.1552  -27.3343   11.2780 C.3       14 UNK        -0.0967 
     57 S57       -49.5378  -28.9921   10.8292 S.3       14 UNK        -0.2604 
     58 C58       -51.0994  -29.8693   10.5058 C.3       14 UNK         0.0134 
     59 N         -47.9538  -26.2997   11.7590 N.am      6 UNK        -0.4116 
     60 C         -46.8940  -25.8960   12.4686 C.2       5 UNK         0.5034 
     61 O         -46.8739  -25.8245   13.6966 O.2       5 UNK        -0.5045 
     62 CA        -45.6683  -25.4456   11.6632 C.3       5 UNK         0.0224 
     63 CB        -44.8562  -26.6565   11.1776 C.3       5 UNK        -0.1978 
     64 N         -46.0500  -24.6100   10.5222 N.am      5 UNK        -0.4737 
     65 C         -46.5584  -23.3750   10.6345 C.2       4 UNK         0.5027 
     66 O         -46.7266  -22.7997   11.7101 O.2       4 UNK        -0.5211 
     67 CA        -46.9838  -22.6830    9.3288 C.3       4 UNK         0.0297 
     68 CB        -45.7683  -22.0602    8.6242 C.3       4 UNK        -0.1993 
     69 N         -47.6846  -23.5816    8.4058 N.am      4 UNK        -0.4486 
     70 C         -48.8809  -24.1330    8.6552 C.2       3 UNK         0.4961 
     71 O         -49.5160  -23.9497    9.6903 O.2       3 UNK        -0.5105 
     72 CA        -49.4595  -25.0731    7.5875 C.3       3 UNK         0.0299 
     73 CB        -50.1625  -24.2638    6.4856 C.3       3 UNK        -0.1972 
     74 N         -48.4774  -25.9768    6.9839 N.am      3 UNK        -0.4305 
     75 C         -47.6919  -26.8421    7.6384 C.2       2 UNK         0.5006 
     76 O         -47.6185  -26.8999    8.8675 O.2       2 UNK        -0.5106 
     77 CA        -46.8468  -27.7944    6.7656 C.3       2 UNK         0.0296 
     78 CB        -46.0514  -28.8100    7.6071 C.3       2 UNK        -0.2002 
     79 N         -47.6371  -28.5294    5.7685 N.am      2 UNK        -0.4032 
     80 C         -48.1314  -28.0301    4.6248 C.2       1 UNK         0.5000 
     81 O         -48.0424  -26.8399    4.3175 O.2       1 UNK        -0.5238 
     82 H82       -45.8222  -29.5346    3.5980 H         1 UNK         0.0889 
     83 H83       -46.5202  -29.9170    2.0125 H         1 UNK         0.0889 
     84 H84       -45.3878  -31.0241    2.7722 H         1 UNK         0.0889 
     85 H85       -49.2618  -30.9351    4.3463 H         1 UNK         0.3028 
     86 H86       -48.4265  -28.7590    2.6610 H         1 UNK         0.0864 
     87 H87       -50.5769  -27.7034    3.4216 H         1 UNK         0.0720 
     88 H88       -50.7411  -29.2561    2.6711 H         1 UNK         0.0720 
     89 H89       -52.3553  -27.2735    5.3090 H         1 UNK         0.0814 
     90 H90       -50.7527  -27.3102    6.0095 H         1 UNK         0.0814 
     91 H91       -50.4869  -29.2376    7.9326 H         1 UNK         0.1469 
     92 H92       -53.6064  -28.8316   10.8478 H         1 UNK         0.1381 
     93 H93       -54.0984  -27.1477    6.9360 H         1 UNK         0.1206 
     94 H94       -55.3375  -27.0863   10.3896 H         1 UNK         0.0813 
     95 H95       -55.6215  -26.5321    8.7539 H         1 UNK         0.0813 
     96 H96       -58.8001  -27.7581    8.7890 H         1 UNK         0.0638 
     97 H97       -57.8823  -26.7216    9.8278 H         1 UNK         0.0638 
     98 H98       -59.8775  -27.8368   10.8481 H         1 UNK         0.0568 
     99 H99       -59.5981  -31.5757   11.7579 H         1 UNK         0.3450 
    100 H100      -58.9949  -30.2573   12.7309 H         1 UNK         0.3450 
    101 H101      -58.9625  -27.1944   12.6446 H         1 UNK         0.2987 
    102 H102      -57.2875  -26.6324   14.1950 H         1 UNK         0.0766 
    103 H103      -58.0450  -27.8956   16.2264 H         1 UNK         0.0798 
    104 H104      -58.0585  -29.3953   15.3014 H         1 UNK         0.0798 
    105 H105      -59.1763  -28.0980   14.9035 H         1 UNK         0.0798 
    106 H106      -55.6364  -28.8953   15.1784 H         1 UNK         0.3198 
    107 H107      -53.6553  -28.3002   16.1613 H         1 UNK         0.0843 
    108 H108      -52.4293  -27.7963   13.4043 H         1 UNK         0.0831 
    109 H109      -53.1433  -29.3020   13.9539 H         1 UNK         0.0831 
    110 H110      -51.6483  -28.7275   14.6823 H         1 UNK         0.0831 
    111 H111      -51.8621  -26.1963   15.2449 H         1 UNK         0.3133 
    112 H112      -52.2784  -23.8508   16.5466 H         1 UNK         0.0566 
    113 H113      -51.5859  -23.1728   18.8513 H         1 UNK         0.0814 
    114 H114      -53.2558  -23.7127   18.8050 H         1 UNK         0.0814 
    115 H115      -52.0159  -24.7724   19.4569 H         1 UNK         0.0814 
    116 H116      -50.1667  -24.3564   16.2749 H         1 UNK         0.3091 
    117 H117      -47.6986  -25.9358   18.0104 H         1 UNK         0.0702 
    118 H118      -47.1325  -27.4447   16.0969 H         1 UNK         0.0785 
    119 H119      -48.8072  -27.3890   15.5486 H         1 UNK         0.0785 
    120 H120      -48.4078  -28.1324   17.0900 H         1 UNK         0.0785 
    121 H121      -47.8236  -25.1302   15.2454 H         1 UNK         0.2998 
    122 H122      -47.5421  -21.6209   15.8668 H         1 UNK         0.0697 
    123 H123      -45.6110  -23.6395   14.6036 H         1 UNK         0.0825 
    124 H124      -45.2074  -22.4914   15.8713 H         1 UNK         0.0825 
    125 H125      -45.6582  -21.9095   14.2761 H         1 UNK         0.0825 
    126 H126      -47.7736  -23.0418   13.4245 H         1 UNK         0.3029 
    127 H127      -51.3782  -23.1865   13.3449 H         1 UNK         0.0897 
    128 H128      -50.9142  -22.0928   11.1814 H         1 UNK         0.0792 
    129 H129      -50.6315  -20.9536   12.4872 H         1 UNK         0.0792 
    130 H130      -49.2670  -21.7141   11.6793 H         1 UNK         0.0792 
    131 H131      -49.4596  -24.2017   11.5175 H         1 UNK         0.3086 
    132 H132      -49.0506  -27.4090   13.1130 H         1 UNK         0.0583 
    133 H133      -51.1754  -27.4278   11.6464 H         1 UNK         0.1020 
    134 H134      -50.2193  -26.7229   10.3760 H         1 UNK         0.1020 
    135 H135      -50.8771  -30.8680   10.1276 H         1 UNK         0.0694 
    136 H136      -51.6324  -30.0041   11.4484 H         1 UNK         0.0694 
    137 H137      -47.8665  -26.3776   10.7492 H         1 UNK         0.2989 
    138 H138      -45.0354  -24.8504   12.3255 H         1 UNK         0.1055 
    139 H139      -44.5249  -27.2641   12.0208 H         1 UNK         0.0806 
    140 H140      -43.9648  -26.3456   10.6327 H         1 UNK         0.0806 
    141 H141      -45.4429  -27.3025   10.5238 H         1 UNK         0.0806 
    142 H142      -46.0043  -25.0337    9.6064 H         1 UNK         0.3061 
    143 H143      -47.6710  -21.8767    9.5941 H         1 UNK         0.0734 
    144 H144      -46.0684  -21.4877    7.7463 H         1 UNK         0.0832 
    145 H145      -45.2421  -21.3750    9.2905 H         1 UNK         0.0832 
    146 H146      -45.0513  -22.8170    8.3039 H         1 UNK         0.0832 
    147 H147      -47.2309  -23.7941    7.5293 H         1 UNK         0.3156 
    148 H148      -50.2088  -25.6990    8.0767 H         1 UNK         0.0589 
    149 H149      -50.9174  -23.6010    6.9113 H         1 UNK         0.0808 
    150 H150      -49.4595  -23.6424    5.9294 H         1 UNK         0.0808 
    151 H151      -50.6709  -24.9114    5.7720 H         1 UNK         0.0808 
    152 H152      -48.4390  -26.0072    5.9678 H         1 UNK         0.3098 
    153 H153      -46.1242  -27.1726    6.2332 H         1 UNK         0.0720 
    154 H154      -46.7104  -29.4441    8.2021 H         1 UNK         0.0791 
    155 H155      -45.3765  -28.3026    8.2970 H         1 UNK         0.0791 
    156 H156      -45.4385  -29.4562    6.9784 H         1 UNK         0.0791 
    157 H157      -47.7955  -29.5086    5.9582 H         1 UNK         0.3028 
@<TRIPOS>BOND
     1    1    2 1    
     2    1   82 1    
     3    1   83 1    
     4    1   84 1    
     5    2    3 2    
     6    2    4 am   BACKBONE|DICT|INTERRES
     7    4    5 1    
     8    4   85 1    
     9    5    6 1    
    10    5   80 1    
    11    5   86 1    
    12    6    7 1    
    13    6   87 1    
    14    6   88 1    
    15    7    8 1    
    16    8    9 1    
    17    8   89 1    
    18    8   90 1    
    19    9   10 ar   
    20    9   14 ar   
    21   10   11 ar   
    22   10   91 1    
    23   11   12 ar   
    24   11   58 1    
    25   12   13 ar   
    26   12   92 1    
    27   13   14 ar   
    28   13   15 1    
    29   14   93 1    
    30   15   16 1    
    31   15   94 1    
    32   15   95 1    
    33   16   17 1    
    34   17   18 1    
    35   17   96 1    
    36   17   97 1    
    37   18   19 1    
    38   18   22 1    
    39   18   98 1    
    40   19   20 am   BACKBONE|DICT|INTERRES
    41   19   21 2    
    42   20   99 1    
    43   20  100 1    
    44   22   23 am   BACKBONE|DICT|INTERRES
    45   22  101 1    
    46   23   24 2    
    47   23   25 1    
    48   25   26 1    
    49   25   27 1    
    50   25  102 1    
    51   26  103 1    
    52   26  104 1    
    53   26  105 1    
    54   27   28 am   BACKBONE|DICT|INTERRES
    55   27  106 1    
    56   28   29 2    
    57   28   30 1    
    58   30   31 1    
    59   30   32 1    
    60   30  107 1    
    61   31  108 1    
    62   31  109 1    
    63   31  110 1    
    64   32   33 am   BACKBONE|DICT|INTERRES
    65   32  111 1    
    66   33   34 2    
    67   33   35 1    
    68   35   36 1    
    69   35   37 1    
    70   35  112 1    
    71   36  113 1    
    72   36  114 1    
    73   36  115 1    
    74   37   38 am   BACKBONE|DICT|INTERRES
    75   37  116 1    
    76   38   39 2    
    77   38   40 1    
    78   40   41 1    
    79   40   42 1    
    80   40  117 1    
    81   41  118 1    
    82   41  119 1    
    83   41  120 1    
    84   42   43 am   BACKBONE|DICT|INTERRES
    85   42  121 1    
    86   43   44 2    
    87   43   45 1    
    88   45   46 1    
    89   45   47 1    
    90   45  122 1    
    91   46  123 1    
    92   46  124 1    
    93   46  125 1    
    94   47   48 am   BACKBONE|DICT|INTERRES
    95   47  126 1    
    96   48   49 2    
    97   48   50 1    
    98   50   51 1    
    99   50   52 1    
   100   50  127 1    
   101   51  128 1    
   102   51  129 1    
   103   51  130 1    
   104   52   53 am   BACKBONE|DICT|INTERRES
   105   52  131 1    
   106   53   54 2    
   107   53   55 1    
   108   55   56 1    
   109   55   59 1    
   110   55  132 1    
   111   56   57 1    
   112   56  133 1    
   113   56  134 1    
   114   57   58 1    
   115   58  135 1    
   116   58  136 1    
   117   59   60 am   BACKBONE|DICT|INTERRES
   118   59  137 1    
   119   60   61 2    
   120   60   62 1    
   121   62   63 1    
   122   62   64 1    
   123   62  138 1    
   124   63  139 1    
   125   63  140 1    
   126   63  141 1    
   127   64   65 am   BACKBONE|DICT|INTERRES
   128   64  142 1    
   129   65   66 2    
   130   65   67 1    
   131   67   68 1    
   132   67   69 1    
   133   67  143 1    
   134   68  144 1    
   135   68  145 1    
   136   68  146 1    
   137   69   70 am   BACKBONE|DICT|INTERRES
   138   69  147 1    
   139   70   71 2    
   140   70   72 1    
   141   72   73 1    
   142   72   74 1    
   143   72  148 1    
   144   73  149 1    
   145   73  150 1    
   146   73  151 1    
   147   74   75 am   BACKBONE|DICT|INTERRES
   148   74  152 1    
   149   75   76 2    
   150   75   77 1    
   151   77   78 1    
   152   77   79 1    
   153   77  153 1    
   154   78  154 1    
   155   78  155 1    
   156   78  156 1    
   157   79   80 am   BACKBONE|DICT|INTERRES
   158   79  157 1    
   159   80   81 2    
@<TRIPOS>SUBSTRUCTURE
     1 UNK         1 GROUP             0       ****    0 ROOT    
