@<TRIPOS>MOLECULE
3R207
157   159    1
SMALL
USER_CHARGES


@<TRIPOS>ATOM
      1 CA        -47.5710  -28.2875    4.0154 C.3       0 UNK        -0.1975 
      2 C         -48.5587  -27.2515    4.5293 C.2       0 UNK         0.4852 
      3 O         -48.6110  -26.1411    3.9981 O.2       0 UNK        -0.5216 
      4 N         -49.3309  -27.5999    5.5682 N.am      1 UNK        -0.4461 
      5 CA        -50.3287  -26.7467    6.2252 C.3       1 UNK         0.0864 
      6 C6        -51.0620  -27.4901    7.3660 C.3       14 UNK        -0.0898 
      7 S7        -52.0460  -28.9085    6.7807 S.3       14 UNK        -0.2598 
      8 C8        -51.0631  -30.3375    7.3457 C.3       14 UNK         0.0286 
      9 C9        -50.9854  -30.4538    8.8640 C.ar      14 UNK        -0.0844 
     10 C10       -49.7440  -30.4305    9.5083 C.ar      14 UNK        -0.0881 
     11 C11       -49.6559  -30.5860   10.8962 C.ar      14 UNK        -0.0643 
     12 C12       -50.8270  -30.7541   11.6412 C.ar      14 UNK        -0.0930 
     13 C13       -52.0731  -30.7965   11.0085 C.ar      14 UNK        -0.0827 
     14 C14       -52.1462  -30.6441    9.6206 C.ar      14 UNK        -0.1249 
     15 C15       -53.3305  -31.0567   11.8253 C.3       14 UNK         0.0141 
     16 S16       -54.0216  -29.5205   12.5033 S.3       14 UNK        -0.2313 
     17 C17       -54.9139  -28.8443   11.0593 C.3       14 UNK        -0.0915 
     18 CA        -56.3475  -28.3569   11.4017 C.3       13 UNK         0.0968 
     19 C         -57.3481  -29.5160   11.6797 C.2       13 UNK         0.5732 
     20 N         -58.1123  -29.5042   12.7690 N.am      13 UNK        -0.7310 
     21 O         -57.4569  -30.4379   10.8745 O.2       13 UNK        -0.5035 
     22 N         -56.3465  -27.3383   12.4534 N.am      13 UNK        -0.4233 
     23 C         -56.0959  -26.0377   12.3223 C.2       13 UNK         0.4989 
     24 O         -55.8089  -25.5017   11.2508 O.2       13 UNK        -0.4996 
     25 CA        -56.2001  -25.1707   13.5947 C.3       12 UNK         0.0216 
     26 CB        -57.5516  -24.4309   13.6326 C.3       12 UNK        -0.1964 
     27 N         -55.9498  -25.8550   14.8776 N.am      12 UNK        -0.4276 
     28 C         -56.6223  -26.8526   15.4704 C.2       12 UNK         0.5020 
     29 O         -57.5597  -27.4541   14.9388 O.2       12 UNK        -0.5489 
     30 CA        -56.1409  -27.2703   16.8765 C.3       11 UNK         0.0294 
     31 CB        -57.0489  -28.3391   17.5139 C.3       11 UNK        -0.2019 
     32 N         -54.7595  -27.7630   16.8814 N.am      11 UNK        -0.4493 
     33 C         -53.6637  -27.0022   16.7660 C.2       11 UNK         0.4932 
     34 O         -53.7130  -25.7761   16.6398 O.2       11 UNK        -0.5029 
     35 CA        -52.3110  -27.7451   16.7901 C.3       10 UNK         0.0280 
     36 CB        -52.2278  -28.7943   15.6672 C.3       10 UNK        -0.1976 
     37 N         -51.1796  -26.8314   16.6388 N.am      10 UNK        -0.4242 
     38 C         -50.7225  -25.9801   17.5666 C.2       10 UNK         0.5072 
     39 O         -51.1029  -25.9636   18.7386 O.2       10 UNK        -0.5224 
     40 CA        -49.6734  -24.9590   17.0933 C.3       9 UNK         0.0343 
     41 CB        -48.2594  -25.5626   17.1257 C.3       9 UNK        -0.2003 
     42 N         -49.9748  -24.4741   15.7433 N.am      9 UNK        -0.4272 
     43 C         -50.9030  -23.5457   15.4644 C.2       9 UNK         0.4988 
     44 O         -51.5056  -22.9024   16.3244 O.2       9 UNK        -0.5108 
     45 CA        -51.2117  -23.2742   13.9814 C.3       8 UNK         0.0248 
     46 CB        -50.4209  -22.0551   13.4790 C.3       8 UNK        -0.2001 
     47 N         -50.9298  -24.4315   13.1272 N.am      8 UNK        -0.4140 
     48 C         -51.7634  -25.4741   12.9823 C.2       8 UNK         0.5028 
     49 O         -52.8764  -25.5296   13.5009 O.2       8 UNK        -0.5428 
     50 CA        -51.2838  -26.6670   12.1324 C.3       7 UNK         0.0264 
     51 CB        -51.7983  -26.5440   10.6926 C.3       7 UNK        -0.1988 
     52 N         -49.8315  -26.8481   12.1074 N.am      7 UNK        -0.4454 
     53 C         -49.0660  -27.0773   13.1830 C.2       7 UNK         0.5027 
     54 O         -49.5195  -27.2259   14.3175 O.2       7 UNK        -0.5083 
     55 CA        -47.5353  -27.0516   12.9822 C.3       6 UNK         0.0844 
     56 C56       -46.9483  -28.4766   12.8474 C.3       14 UNK        -0.0967 
     57 S57       -47.2302  -29.2335   11.2053 S.3       14 UNK        -0.2604 
     58 C58       -48.2970  -30.6620   11.5823 C.3       14 UNK         0.0134 
     59 N         -47.0904  -26.1737   11.8927 N.am      6 UNK        -0.4116 
     60 C         -47.3613  -24.8712   11.7503 C.2       5 UNK         0.5034 
     61 O         -48.0339  -24.2307   12.5581 O.2       5 UNK        -0.5045 
     62 CA        -46.8603  -24.1641   10.4784 C.3       5 UNK         0.0224 
     63 CB        -45.6605  -23.2480   10.7860 C.3       5 UNK        -0.1978 
     64 N         -46.5846  -25.0465    9.3332 N.am      5 UNK        -0.4737 
     65 C         -45.6012  -25.9434    9.1628 C.2       4 UNK         0.5027 
     66 O         -44.7809  -26.2357   10.0314 O.2       4 UNK        -0.5211 
     67 CA        -45.5320  -26.6426    7.7952 C.3       4 UNK         0.0297 
     68 CB        -46.3680  -27.9330    7.7984 C.3       4 UNK        -0.1993 
     69 N         -45.9903  -25.7619    6.7181 N.am      4 UNK        -0.4486 
     70 C         -45.2166  -24.8579    6.0991 C.2       3 UNK         0.4961 
     71 O         -44.0108  -24.7303    6.3132 O.2       3 UNK        -0.5105 
     72 CA        -45.8889  -23.9377    5.0636 C.3       3 UNK         0.0299 
     73 CB        -45.6480  -24.4619    3.6386 C.3       3 UNK        -0.1972 
     74 N         -47.3280  -23.7819    5.2936 N.am      3 UNK        -0.4305 
     75 C         -47.8529  -22.9658    6.2218 C.2       2 UNK         0.5006 
     76 O         -47.1812  -22.2092    6.9231 O.2       2 UNK        -0.5106 
     77 CA        -49.3794  -23.0124    6.4329 C.3       2 UNK         0.0296 
     78 CB        -50.0710  -21.9252    5.5948 C.3       2 UNK        -0.2002 
     79 N         -49.9850  -24.3144    6.1353 N.am      2 UNK        -0.4032 
     80 C         -49.6763  -25.4579    6.7616 C.2       1 UNK         0.5000 
     81 O         -48.8634  -25.5307    7.6857 O.2       1 UNK        -0.5238 
     82 H82       -47.7227  -28.4522    2.9490 H         1 UNK         0.0889 
     83 H83       -47.6809  -29.2446    4.5249 H         1 UNK         0.0889 
     84 H84       -46.5499  -27.9378    4.1648 H         1 UNK         0.0889 
     85 H85       -49.2387  -28.5249    5.9585 H         1 UNK         0.3028 
     86 H86       -51.0680  -26.4708    5.4701 H         1 UNK         0.0864 
     87 H87       -51.7620  -26.8124    7.8570 H         1 UNK         0.0720 
     88 H88       -50.3582  -27.8141    8.1349 H         1 UNK         0.0720 
     89 H89       -50.0665  -30.2836    6.9064 H         1 UNK         0.0814 
     90 H90       -51.5172  -31.2474    6.9510 H         1 UNK         0.0814 
     91 H91       -48.8375  -30.3151    8.9299 H         1 UNK         0.1469 
     92 H92       -50.7697  -30.8856   12.7131 H         1 UNK         0.1381 
     93 H93       -53.1054  -30.6856    9.1233 H         1 UNK         0.1206 
     94 H94       -54.0825  -31.5742   11.2277 H         1 UNK         0.0813 
     95 H95       -53.0953  -31.7258   12.6542 H         1 UNK         0.0813 
     96 H96       -54.9477  -29.5820   10.2568 H         1 UNK         0.0638 
     97 H97       -54.3297  -28.0153   10.6632 H         1 UNK         0.0638 
     98 H98       -56.7450  -27.8802   10.5041 H         1 UNK         0.0568 
     99 H99       -58.7565  -30.2653   12.9120 H         1 UNK         0.3450 
    100 H100      -58.0620  -28.7620   13.4563 H         1 UNK         0.3450 
    101 H101      -56.6317  -27.6553   13.3744 H         1 UNK         0.2987 
    102 H102      -55.4141  -24.4185   13.5103 H         1 UNK         0.0766 
    103 H103      -57.6005  -23.7373   14.4720 H         1 UNK         0.0798 
    104 H104      -58.3903  -25.1225   13.7188 H         1 UNK         0.0798 
    105 H105      -57.7038  -23.8486   12.7227 H         1 UNK         0.0798 
    106 H106      -55.1169  -25.5369   15.3712 H         1 UNK         0.3198 
    107 H107      -56.1919  -26.3791   17.5061 H         1 UNK         0.0843 
    108 H108      -57.0411  -29.2692   16.9441 H         1 UNK         0.0831 
    109 H109      -58.0832  -27.9951   17.5600 H         1 UNK         0.0831 
    110 H110      -56.7407  -28.5663   18.5346 H         1 UNK         0.0831 
    111 H111      -54.6445  -28.7636   16.9546 H         1 UNK         0.3133 
    112 H112      -52.2202  -28.2514   17.7530 H         1 UNK         0.0566 
    113 H113      -52.3706  -28.3346   14.6897 H         1 UNK         0.0814 
    114 H114      -51.2582  -29.2929   15.6592 H         1 UNK         0.0814 
    115 H115      -52.9851  -29.5708   15.7772 H         1 UNK         0.0814 
    116 H116      -50.7514  -26.8036   15.7182 H         1 UNK         0.3091 
    117 H117      -49.6933  -24.1125   17.7832 H         1 UNK         0.0702 
    118 H118      -47.5104  -24.8345   16.8137 H         1 UNK         0.0785 
    119 H119      -48.1708  -26.4341   16.4769 H         1 UNK         0.0785 
    120 H120      -47.9991  -25.8830   18.1353 H         1 UNK         0.0785 
    121 H121      -49.5354  -24.9621   14.9757 H         1 UNK         0.2998 
    122 H122      -52.2750  -23.0358   13.9052 H         1 UNK         0.0697 
    123 H123      -49.3450  -22.1955   13.5851 H         1 UNK         0.0825 
    124 H124      -50.6866  -21.1616   14.0455 H         1 UNK         0.0825 
    125 H125      -50.6317  -21.8478   12.4298 H         1 UNK         0.0825 
    126 H126      -50.0104  -24.4611   12.6978 H         1 UNK         0.3029 
    127 H127      -51.7193  -27.5668   12.5694 H         1 UNK         0.0897 
    128 H128      -52.8493  -26.2529   10.6717 H         1 UNK         0.0792 
    129 H129      -51.7184  -27.5013   10.1775 H         1 UNK         0.0792 
    130 H130      -51.2443  -25.7961   10.1243 H         1 UNK         0.0792 
    131 H131      -49.3749  -26.7602   11.2113 H         1 UNK         0.3086 
    132 H132      -47.1253  -26.6208   13.8980 H         1 UNK         0.0583 
    133 H133      -45.8682  -28.4284   12.9949 H         1 UNK         0.1020 
    134 H134      -47.3112  -29.1222   13.6490 H         1 UNK         0.1020 
    135 H135      -47.7906  -31.5655   11.2406 H         1 UNK         0.0694 
    136 H136      -48.4180  -30.7780   12.6596 H         1 UNK         0.0694 
    137 H137      -46.4917  -26.5998   11.1956 H         1 UNK         0.2989 
    138 H138      -47.6821  -23.5234   10.1536 H         1 UNK         0.1055 
    139 H139      -45.9160  -22.5185   11.5558 H         1 UNK         0.0806 
    140 H140      -45.3529  -22.6904    9.9010 H         1 UNK         0.0806 
    141 H141      -44.7984  -23.8093   11.1471 H         1 UNK         0.0806 
    142 H142      -47.2858  -25.0046    8.5971 H         1 UNK         0.3061 
    143 H143      -44.4910  -26.9185    7.6129 H         1 UNK         0.0734 
    144 H144      -46.3314  -28.4334    6.8314 H         1 UNK         0.0832 
    145 H145      -45.9823  -28.6370    8.5363 H         1 UNK         0.0832 
    146 H146      -47.4136  -27.7460    8.0449 H         1 UNK         0.0832 
    147 H147      -46.9842  -25.7548    6.5339 H         1 UNK         0.3156 
    148 H148      -45.4159  -22.9562    5.1399 H         1 UNK         0.0589 
    149 H149      -46.0603  -25.4606    3.4959 H         1 UNK         0.0808 
    150 H150      -46.0948  -23.8046    2.8925 H         1 UNK         0.0808 
    151 H151      -44.5805  -24.5189    3.4214 H         1 UNK         0.0808 
    152 H152      -47.9419  -24.3930    4.7618 H         1 UNK         0.3098 
    153 H153      -49.5655  -22.7997    7.4879 H         1 UNK         0.0720 
    154 H154      -51.1397  -21.8800    5.8056 H         1 UNK         0.0791 
    155 H155      -49.9452  -22.0983    4.5251 H         1 UNK         0.0791 
    156 H156      -49.6577  -20.9400    5.8161 H         1 UNK         0.0791 
    157 H157      -50.6307  -24.3443    5.3589 H         1 UNK         0.3028 
@<TRIPOS>BOND
     1    1    2 1    
     2    1   82 1    
     3    1   83 1    
     4    1   84 1    
     5    2    3 2    
     6    2    4 am   BACKBONE|DICT|INTERRES
     7    4    5 1    
     8    4   85 1    
     9    5    6 1    
    10    5   80 1    
    11    5   86 1    
    12    6    7 1    
    13    6   87 1    
    14    6   88 1    
    15    7    8 1    
    16    8    9 1    
    17    8   89 1    
    18    8   90 1    
    19    9   10 ar   
    20    9   14 ar   
    21   10   11 ar   
    22   10   91 1    
    23   11   12 ar   
    24   11   58 1    
    25   12   13 ar   
    26   12   92 1    
    27   13   14 ar   
    28   13   15 1    
    29   14   93 1    
    30   15   16 1    
    31   15   94 1    
    32   15   95 1    
    33   16   17 1    
    34   17   18 1    
    35   17   96 1    
    36   17   97 1    
    37   18   19 1    
    38   18   22 1    
    39   18   98 1    
    40   19   20 am   BACKBONE|DICT|INTERRES
    41   19   21 2    
    42   20   99 1    
    43   20  100 1    
    44   22   23 am   BACKBONE|DICT|INTERRES
    45   22  101 1    
    46   23   24 2    
    47   23   25 1    
    48   25   26 1    
    49   25   27 1    
    50   25  102 1    
    51   26  103 1    
    52   26  104 1    
    53   26  105 1    
    54   27   28 am   BACKBONE|DICT|INTERRES
    55   27  106 1    
    56   28   29 2    
    57   28   30 1    
    58   30   31 1    
    59   30   32 1    
    60   30  107 1    
    61   31  108 1    
    62   31  109 1    
    63   31  110 1    
    64   32   33 am   BACKBONE|DICT|INTERRES
    65   32  111 1    
    66   33   34 2    
    67   33   35 1    
    68   35   36 1    
    69   35   37 1    
    70   35  112 1    
    71   36  113 1    
    72   36  114 1    
    73   36  115 1    
    74   37   38 am   BACKBONE|DICT|INTERRES
    75   37  116 1    
    76   38   39 2    
    77   38   40 1    
    78   40   41 1    
    79   40   42 1    
    80   40  117 1    
    81   41  118 1    
    82   41  119 1    
    83   41  120 1    
    84   42   43 am   BACKBONE|DICT|INTERRES
    85   42  121 1    
    86   43   44 2    
    87   43   45 1    
    88   45   46 1    
    89   45   47 1    
    90   45  122 1    
    91   46  123 1    
    92   46  124 1    
    93   46  125 1    
    94   47   48 am   BACKBONE|DICT|INTERRES
    95   47  126 1    
    96   48   49 2    
    97   48   50 1    
    98   50   51 1    
    99   50   52 1    
   100   50  127 1    
   101   51  128 1    
   102   51  129 1    
   103   51  130 1    
   104   52   53 am   BACKBONE|DICT|INTERRES
   105   52  131 1    
   106   53   54 2    
   107   53   55 1    
   108   55   56 1    
   109   55   59 1    
   110   55  132 1    
   111   56   57 1    
   112   56  133 1    
   113   56  134 1    
   114   57   58 1    
   115   58  135 1    
   116   58  136 1    
   117   59   60 am   BACKBONE|DICT|INTERRES
   118   59  137 1    
   119   60   61 2    
   120   60   62 1    
   121   62   63 1    
   122   62   64 1    
   123   62  138 1    
   124   63  139 1    
   125   63  140 1    
   126   63  141 1    
   127   64   65 am   BACKBONE|DICT|INTERRES
   128   64  142 1    
   129   65   66 2    
   130   65   67 1    
   131   67   68 1    
   132   67   69 1    
   133   67  143 1    
   134   68  144 1    
   135   68  145 1    
   136   68  146 1    
   137   69   70 am   BACKBONE|DICT|INTERRES
   138   69  147 1    
   139   70   71 2    
   140   70   72 1    
   141   72   73 1    
   142   72   74 1    
   143   72  148 1    
   144   73  149 1    
   145   73  150 1    
   146   73  151 1    
   147   74   75 am   BACKBONE|DICT|INTERRES
   148   74  152 1    
   149   75   76 2    
   150   75   77 1    
   151   77   78 1    
   152   77   79 1    
   153   77  153 1    
   154   78  154 1    
   155   78  155 1    
   156   78  156 1    
   157   79   80 am   BACKBONE|DICT|INTERRES
   158   79  157 1    
   159   80   81 2    
@<TRIPOS>SUBSTRUCTURE
     1 UNK         1 GROUP             0       ****    0 ROOT    
