@<TRIPOS>MOLECULE
3R207
157   159    1
SMALL
USER_CHARGES


@<TRIPOS>ATOM
      1 CA        -49.5621  -25.2031    2.2740 C.3       0 UNK        -0.1975 
      2 C         -49.2720  -25.7100    3.6782 C.2       0 UNK         0.4852 
      3 O         -48.1383  -26.0970    3.9655 O.2       0 UNK        -0.5216 
      4 N         -50.2793  -25.6811    4.5660 N.am      1 UNK        -0.4461 
      5 CA        -50.2552  -26.2118    5.9437 C.3       1 UNK         0.0864 
      6 C6        -50.1340  -27.7644    5.9750 C.3       14 UNK        -0.0898 
      7 S7        -51.5104  -28.5746    5.0823 S.3       14 UNK        -0.2598 
      8 C8        -51.9936  -29.9276    6.2173 C.3       14 UNK         0.0286 
      9 C9        -52.4638  -29.5091    7.6131 C.ar      14 UNK        -0.0844 
     10 C10       -52.8095  -28.1896    7.9321 C.ar      14 UNK        -0.0881 
     11 C11       -53.1497  -27.8353    9.2382 C.ar      14 UNK        -0.0643 
     12 C12       -53.2174  -28.8232   10.2233 C.ar      14 UNK        -0.0930 
     13 C13       -52.9012  -30.1484    9.9193 C.ar      14 UNK        -0.0827 
     14 C14       -52.5254  -30.4840    8.6151 C.ar      14 UNK        -0.1249 
     15 C15       -52.9163  -31.2016   11.0152 C.3       14 UNK         0.0141 
     16 S16       -54.6040  -31.8100   11.3317 S.3       14 UNK        -0.2313 
     17 C17       -54.7908  -31.5406   13.1293 C.3       14 UNK        -0.0915 
     18 CA        -56.0826  -30.7600   13.4898 C.3       13 UNK         0.0968 
     19 C         -56.3090  -30.7137   15.0303 C.2       13 UNK         0.5732 
     20 N         -56.4743  -29.5558   15.6608 N.am      13 UNK        -0.7310 
     21 O         -56.3504  -31.7605   15.6724 O.2       13 UNK        -0.5035 
     22 N         -56.1229  -29.4369   12.8492 N.am      13 UNK        -0.4233 
     23 C         -57.2454  -28.8278   12.4429 C.2       13 UNK         0.4989 
     24 O         -58.3566  -29.3602   12.4766 O.2       13 UNK        -0.4996 
     25 CA        -57.1136  -27.3817   11.9122 C.3       12 UNK         0.0216 
     26 CB        -58.4252  -26.5791   12.0508 C.3       12 UNK        -0.1964 
     27 N         -55.9928  -26.6288   12.4926 N.am      12 UNK        -0.4276 
     28 C         -55.7602  -26.4001   13.7923 C.2       12 UNK         0.5020 
     29 O         -56.4973  -26.7722   14.7084 O.2       12 UNK        -0.5489 
     30 CA        -54.4404  -25.6876   14.1264 C.3       11 UNK         0.0294 
     31 CB        -54.7018  -24.3074   14.7497 C.3       11 UNK        -0.2019 
     32 N         -53.6178  -26.4860   15.0372 N.am      11 UNK        -0.4493 
     33 C         -53.1951  -27.7369   14.8184 C.2       11 UNK         0.4932 
     34 O         -53.4112  -28.3602   13.7764 O.2       11 UNK        -0.5029 
     35 CA        -52.3815  -28.3838   15.9544 C.3       10 UNK         0.0280 
     36 CB        -52.2258  -29.9048   15.7725 C.3       10 UNK        -0.1976 
     37 N         -51.0525  -27.7822   16.0824 N.am      10 UNK        -0.4242 
     38 C         -50.7828  -26.5908   16.6337 C.2       10 UNK         0.5072 
     39 O         -51.6474  -25.8519   17.1114 O.2       10 UNK        -0.5224 
     40 CA        -49.3100  -26.1532   16.6882 C.3       9 UNK         0.0343 
     41 CB        -48.3310  -27.0672   15.9164 C.3       9 UNK        -0.2003 
     42 N         -49.1952  -24.7792   16.2042 N.am      9 UNK        -0.4272 
     43 C         -48.2774  -23.8938   16.6179 C.2       9 UNK         0.4988 
     44 O         -47.4551  -24.1406   17.5024 O.2       9 UNK        -0.5108 
     45 CA        -48.2485  -22.5088   15.9405 C.3       8 UNK         0.0248 
     46 CB        -46.8055  -22.0330   15.6864 C.3       8 UNK        -0.2001 
     47 N         -48.9623  -22.5208   14.6641 N.am      8 UNK        -0.4140 
     48 C         -50.0463  -21.7909   14.3663 C.2       8 UNK         0.5028 
     49 O         -50.5392  -20.9554   15.1254 O.2       8 UNK        -0.5428 
     50 CA        -50.7111  -22.0318   12.9937 C.3       7 UNK         0.0264 
     51 CB        -50.3382  -20.9092   12.0118 C.3       7 UNK        -0.1988 
     52 N         -50.3890  -23.3252   12.3807 N.am      7 UNK        -0.4454 
     53 C         -50.6673  -24.5217   12.9180 C.2       7 UNK         0.5027 
     54 O         -51.2630  -24.6607   13.9840 O.2       7 UNK        -0.5083 
     55 CA        -50.1140  -25.7702   12.2016 C.3       6 UNK         0.0844 
     56 C56       -51.1842  -26.4810   11.3456 C.3       14 UNK        -0.0967 
     57 S57       -51.7982  -25.5241    9.9144 S.3       14 UNK        -0.2604 
     58 C58       -53.3784  -26.3743    9.5917 C.3       14 UNK         0.0134 
     59 N         -48.8580  -25.5480   11.4740 N.am      6 UNK        -0.4116 
     60 C         -47.7143  -25.1213   12.0347 C.2       5 UNK         0.5034 
     61 O         -47.6347  -24.7327   13.2016 O.2       5 UNK        -0.5045 
     62 CA        -46.4560  -25.1151   11.1454 C.3       5 UNK         0.0224 
     63 CB        -45.1488  -25.1238   11.9658 C.3       5 UNK        -0.1978 
     64 N         -46.4429  -26.1859   10.1410 N.am      5 UNK        -0.4737 
     65 C         -46.4855  -27.5138   10.3407 C.2       4 UNK         0.5027 
     66 O         -46.5225  -28.0396   11.4529 O.2       4 UNK        -0.5211 
     67 CA        -46.5123  -28.4141    9.0900 C.3       4 UNK         0.0297 
     68 CB        -47.8537  -29.1641    8.9974 C.3       4 UNK        -0.1993 
     69 N         -46.3070  -27.6482    7.8567 N.am      4 UNK        -0.4486 
     70 C         -45.1137  -27.4201    7.2875 C.2       3 UNK         0.4961 
     71 O         -44.0618  -27.9233    7.6826 O.2       3 UNK        -0.5105 
     72 CA        -45.0720  -26.4518    6.0879 C.3       3 UNK         0.0299 
     73 CB        -45.1217  -27.2365    4.7677 C.3       3 UNK        -0.1972 
     74 N         -46.1471  -25.4542    6.1025 N.am      3 UNK        -0.4305 
     75 C         -46.2720  -24.4834    7.0235 C.2       2 UNK         0.5006 
     76 O         -45.4380  -24.2723    7.9028 O.2       2 UNK        -0.5106 
     77 CA        -47.5683  -23.6479    7.0231 C.3       2 UNK         0.0296 
     78 CB        -47.3514  -22.3200    6.2808 C.3       2 UNK        -0.2002 
     79 N         -48.7202  -24.3436    6.4441 N.am      2 UNK        -0.4032 
     80 C         -49.2038  -25.5273    6.8521 C.2       1 UNK         0.5000 
     81 O         -48.8027  -26.0933    7.8713 O.2       1 UNK        -0.5238 
     82 H82       -49.3775  -25.9937    1.5473 H         1 UNK         0.0889 
     83 H83       -48.9106  -24.3627    2.0363 H         1 UNK         0.0889 
     84 H84       -50.5955  -24.8752    2.1633 H         1 UNK         0.0889 
     85 H85       -51.1795  -25.3345    4.2633 H         1 UNK         0.3028 
     86 H86       -51.2141  -25.9404    6.3856 H         1 UNK         0.0864 
     87 H87       -49.1920  -28.0906    5.5313 H         1 UNK         0.0720 
     88 H88       -50.1207  -28.1294    7.0026 H         1 UNK         0.0720 
     89 H89       -51.1430  -30.6044    6.3129 H         1 UNK         0.0814 
     90 H90       -52.7913  -30.5016    5.7442 H         1 UNK         0.0814 
     91 H91       -52.7791  -27.4169    7.1799 H         1 UNK         0.1469 
     92 H92       -53.4817  -28.5594   11.2365 H         1 UNK         0.1381 
     93 H93       -52.2627  -31.5073    8.3828 H         1 UNK         0.1206 
     94 H94       -52.4671  -30.7820   11.9159 H         1 UNK         0.0813 
     95 H95       -52.2872  -32.0485   10.7373 H         1 UNK         0.0813 
     96 H96       -53.9207  -31.0225   13.5303 H         1 UNK         0.0638 
     97 H97       -54.7954  -32.5257   13.5992 H         1 UNK         0.0638 
     98 H98       -56.9157  -31.3491   13.1023 H         1 UNK         0.0568 
     99 H99       -56.6302  -29.5641   16.6555 H         1 UNK         0.3450 
    100 H100      -56.4722  -28.6701   15.1640 H         1 UNK         0.3450 
    101 H101      -55.2478  -28.9274   12.8548 H         1 UNK         0.2987 
    102 H102      -56.8967  -27.4774   10.8472 H         1 UNK         0.0766 
    103 H103      -58.3187  -25.5714   11.6495 H         1 UNK         0.0798 
    104 H104      -58.7371  -26.4939   13.0924 H         1 UNK         0.0798 
    105 H105      -59.2398  -27.0572   11.5052 H         1 UNK         0.0798 
    106 H106      -55.3185  -26.2824   11.8267 H         1 UNK         0.3198 
    107 H107      -53.8649  -25.5433   13.2101 H         1 UNK         0.0843 
    108 H108      -55.2462  -24.3875   15.6915 H         1 UNK         0.0831 
    109 H109      -55.2950  -23.6826   14.0808 H         1 UNK         0.0831 
    110 H110      -53.7684  -23.7782   14.9446 H         1 UNK         0.0831 
    111 H111      -53.3079  -26.0357   15.8916 H         1 UNK         0.3133 
    112 H112      -52.9294  -28.2195   16.8849 H         1 UNK         0.0566 
    113 H113      -51.7038  -30.1540   14.8476 H         1 UNK         0.0814 
    114 H114      -51.6742  -30.3501   16.6005 H         1 UNK         0.0814 
    115 H115      -53.2013  -30.3909   15.7410 H         1 UNK         0.0814 
    116 H116      -50.2838  -28.3105   15.6967 H         1 UNK         0.3091 
    117 H117      -49.0362  -26.1801   17.7449 H         1 UNK         0.0702 
    118 H118      -47.3051  -26.7120   16.0169 H         1 UNK         0.0785 
    119 H119      -48.5557  -27.1005   14.8504 H         1 UNK         0.0785 
    120 H120      -48.3457  -28.0879   16.3004 H         1 UNK         0.0785 
    121 H121      -49.8955  -24.4991   15.5241 H         1 UNK         0.2998 
    122 H122      -48.7205  -21.8133   16.6369 H         1 UNK         0.0697 
    123 H123      -46.2644  -22.7258   15.0403 H         1 UNK         0.0825 
    124 H124      -46.2462  -21.9488   16.6190 H         1 UNK         0.0825 
    125 H125      -46.7899  -21.0512   15.2130 H         1 UNK         0.0825 
    126 H126      -48.6270  -23.2057   13.9918 H         1 UNK         0.3029 
    127 H127      -51.7912  -22.0057   13.1536 H         1 UNK         0.0897 
    128 H128      -50.5950  -19.9310   12.4213 H         1 UNK         0.0792 
    129 H129      -50.8733  -21.0123   11.0675 H         1 UNK         0.0792 
    130 H130      -49.2691  -20.9009   11.7953 H         1 UNK         0.0792 
    131 H131      -49.8972  -23.3040   11.4993 H         1 UNK         0.3086 
    132 H132      -49.8606  -26.4687   13.0010 H         1 UNK         0.0583 
    133 H133      -50.7808  -27.4245   10.9735 H         1 UNK         0.1020 
    134 H134      -52.0287  -26.7551   11.9797 H         1 UNK         0.1020 
    135 H135      -54.0232  -26.2855   10.4648 H         1 UNK         0.0694 
    136 H136      -53.8952  -25.8692    8.7742 H         1 UNK         0.0694 
    137 H137      -48.8486  -25.8216   10.5000 H         1 UNK         0.2989 
    138 H138      -46.4878  -24.1761   10.5905 H         1 UNK         0.1055 
    139 H139      -45.0887  -24.2518   12.6185 H         1 UNK         0.0806 
    140 H140      -44.2737  -25.1006   11.3163 H         1 UNK         0.0806 
    141 H141      -45.0749  -26.0084   12.5991 H         1 UNK         0.0806 
    142 H142      -46.3884  -25.8680    9.1821 H         1 UNK         0.3061 
    143 H143      -45.7173  -29.1547    9.1996 H         1 UNK         0.0734 
    144 H144      -47.9070  -29.7797    8.0994 H         1 UNK         0.0832 
    145 H145      -47.9864  -29.8280    9.8526 H         1 UNK         0.0832 
    146 H146      -48.7034  -28.4810    8.9884 H         1 UNK         0.0832 
    147 H147      -47.1255  -27.1631    7.5038 H         1 UNK         0.3156 
    148 H148      -44.1210  -25.9166    6.1296 H         1 UNK         0.0589 
    149 H149      -46.0512  -27.7990    4.6682 H         1 UNK         0.0808 
    150 H150      -45.0394  -26.5726    3.9070 H         1 UNK         0.0808 
    151 H151      -44.2997  -27.9510    4.7064 H         1 UNK         0.0808 
    152 H152      -46.8743  -25.5688    5.4003 H         1 UNK         0.3098 
    153 H153      -47.8120  -23.4253    8.0640 H         1 UNK         0.0720 
    154 H154      -48.2298  -21.6779    6.3494 H         1 UNK         0.0791 
    155 H155      -47.1315  -22.4791    5.2243 H         1 UNK         0.0791 
    156 H156      -46.5142  -21.7662    6.7083 H         1 UNK         0.0791 
    157 H157      -49.1039  -23.9530    5.5959 H         1 UNK         0.3028 
@<TRIPOS>BOND
     1    1    2 1    
     2    1   82 1    
     3    1   83 1    
     4    1   84 1    
     5    2    3 2    
     6    2    4 am   BACKBONE|DICT|INTERRES
     7    4    5 1    
     8    4   85 1    
     9    5    6 1    
    10    5   80 1    
    11    5   86 1    
    12    6    7 1    
    13    6   87 1    
    14    6   88 1    
    15    7    8 1    
    16    8    9 1    
    17    8   89 1    
    18    8   90 1    
    19    9   10 ar   
    20    9   14 ar   
    21   10   11 ar   
    22   10   91 1    
    23   11   12 ar   
    24   11   58 1    
    25   12   13 ar   
    26   12   92 1    
    27   13   14 ar   
    28   13   15 1    
    29   14   93 1    
    30   15   16 1    
    31   15   94 1    
    32   15   95 1    
    33   16   17 1    
    34   17   18 1    
    35   17   96 1    
    36   17   97 1    
    37   18   19 1    
    38   18   22 1    
    39   18   98 1    
    40   19   20 am   BACKBONE|DICT|INTERRES
    41   19   21 2    
    42   20   99 1    
    43   20  100 1    
    44   22   23 am   BACKBONE|DICT|INTERRES
    45   22  101 1    
    46   23   24 2    
    47   23   25 1    
    48   25   26 1    
    49   25   27 1    
    50   25  102 1    
    51   26  103 1    
    52   26  104 1    
    53   26  105 1    
    54   27   28 am   BACKBONE|DICT|INTERRES
    55   27  106 1    
    56   28   29 2    
    57   28   30 1    
    58   30   31 1    
    59   30   32 1    
    60   30  107 1    
    61   31  108 1    
    62   31  109 1    
    63   31  110 1    
    64   32   33 am   BACKBONE|DICT|INTERRES
    65   32  111 1    
    66   33   34 2    
    67   33   35 1    
    68   35   36 1    
    69   35   37 1    
    70   35  112 1    
    71   36  113 1    
    72   36  114 1    
    73   36  115 1    
    74   37   38 am   BACKBONE|DICT|INTERRES
    75   37  116 1    
    76   38   39 2    
    77   38   40 1    
    78   40   41 1    
    79   40   42 1    
    80   40  117 1    
    81   41  118 1    
    82   41  119 1    
    83   41  120 1    
    84   42   43 am   BACKBONE|DICT|INTERRES
    85   42  121 1    
    86   43   44 2    
    87   43   45 1    
    88   45   46 1    
    89   45   47 1    
    90   45  122 1    
    91   46  123 1    
    92   46  124 1    
    93   46  125 1    
    94   47   48 am   BACKBONE|DICT|INTERRES
    95   47  126 1    
    96   48   49 2    
    97   48   50 1    
    98   50   51 1    
    99   50   52 1    
   100   50  127 1    
   101   51  128 1    
   102   51  129 1    
   103   51  130 1    
   104   52   53 am   BACKBONE|DICT|INTERRES
   105   52  131 1    
   106   53   54 2    
   107   53   55 1    
   108   55   56 1    
   109   55   59 1    
   110   55  132 1    
   111   56   57 1    
   112   56  133 1    
   113   56  134 1    
   114   57   58 1    
   115   58  135 1    
   116   58  136 1    
   117   59   60 am   BACKBONE|DICT|INTERRES
   118   59  137 1    
   119   60   61 2    
   120   60   62 1    
   121   62   63 1    
   122   62   64 1    
   123   62  138 1    
   124   63  139 1    
   125   63  140 1    
   126   63  141 1    
   127   64   65 am   BACKBONE|DICT|INTERRES
   128   64  142 1    
   129   65   66 2    
   130   65   67 1    
   131   67   68 1    
   132   67   69 1    
   133   67  143 1    
   134   68  144 1    
   135   68  145 1    
   136   68  146 1    
   137   69   70 am   BACKBONE|DICT|INTERRES
   138   69  147 1    
   139   70   71 2    
   140   70   72 1    
   141   72   73 1    
   142   72   74 1    
   143   72  148 1    
   144   73  149 1    
   145   73  150 1    
   146   73  151 1    
   147   74   75 am   BACKBONE|DICT|INTERRES
   148   74  152 1    
   149   75   76 2    
   150   75   77 1    
   151   77   78 1    
   152   77   79 1    
   153   77  153 1    
   154   78  154 1    
   155   78  155 1    
   156   78  156 1    
   157   79   80 am   BACKBONE|DICT|INTERRES
   158   79  157 1    
   159   80   81 2    
@<TRIPOS>SUBSTRUCTURE
     1 UNK         1 GROUP             0       ****    0 ROOT    
