@<TRIPOS>MOLECULE
3R207
157   159    1
SMALL
USER_CHARGES


@<TRIPOS>ATOM
      1 CA        -46.4796  -30.3157    6.3558 C.3       0 UNK        -0.1975 
      2 C         -46.9481  -28.9138    6.7117 C.2       0 UNK         0.4852 
      3 O         -46.1509  -28.1104    7.1937 O.2       0 UNK        -0.5216 
      4 N         -48.2248  -28.6017    6.4488 N.am      1 UNK        -0.4461 
      5 CA        -48.9071  -27.3403    6.7913 C.3       1 UNK         0.0864 
      6 C6        -49.1417  -27.1517    8.3205 C.3       14 UNK        -0.0898 
      7 S7        -49.7466  -28.6309    9.2080 S.3       14 UNK        -0.2598 
      8 C8        -51.3262  -29.0084    8.3862 C.3       14 UNK         0.0286 
      9 C9        -52.4769  -28.1575    8.9021 C.ar      14 UNK        -0.0844 
     10 C10       -52.7457  -26.9049    8.3421 C.ar      14 UNK        -0.0881 
     11 C11       -53.8458  -26.1560    8.7737 C.ar      14 UNK        -0.0643 
     12 C12       -54.6914  -26.6779    9.7569 C.ar      14 UNK        -0.0930 
     13 C13       -54.4416  -27.9358   10.3120 C.ar      14 UNK        -0.0827 
     14 C14       -53.3184  -28.6584    9.8993 C.ar      14 UNK        -0.1249 
     15 C15       -55.4078  -28.5345   11.3221 C.3       14 UNK         0.0141 
     16 S16       -56.2437  -29.9968   10.6241 S.3       14 UNK        -0.2313 
     17 C17       -57.7407  -30.1429   11.6599 C.3       14 UNK        -0.0915 
     18 CA        -57.5709  -31.0256   12.9241 C.3       13 UNK         0.0968 
     19 C         -57.2826  -32.5211   12.5991 C.2       13 UNK         0.5732 
     20 N         -56.1855  -33.1052   13.0665 N.am      13 UNK        -0.7310 
     21 O         -58.0805  -33.1677   11.9242 O.2       13 UNK        -0.5035 
     22 N         -56.6450  -30.3963   13.8736 N.am      13 UNK        -0.4233 
     23 C         -56.6720  -30.5530   15.2007 C.2       13 UNK         0.4989 
     24 O         -57.4414  -31.3141   15.7887 O.2       13 UNK        -0.4996 
     25 CA        -55.6830  -29.7031   16.0186 C.3       12 UNK         0.0216 
     26 CB        -54.4447  -30.5341   16.3911 C.3       12 UNK        -0.1964 
     27 N         -55.2530  -28.4536   15.3728 N.am      12 UNK        -0.4276 
     28 C         -56.0624  -27.4282   15.0507 C.2       12 UNK         0.5020 
     29 O         -57.2891  -27.4719   15.1584 O.2       12 UNK        -0.5489 
     30 CA        -55.3870  -26.1308   14.5453 C.3       11 UNK         0.0294 
     31 CB        -56.3074  -24.8967   14.6393 C.3       11 UNK        -0.2019 
     32 N         -54.1016  -25.8591   15.1981 N.am      11 UNK        -0.4493 
     33 C         -53.8549  -25.8165   16.5178 C.2       11 UNK         0.4932 
     34 O         -54.7354  -25.8183   17.3796 O.2       11 UNK        -0.5029 
     35 CA        -52.3772  -25.8114   16.9561 C.3       10 UNK         0.0280 
     36 CB        -52.1575  -26.6210   18.2514 C.3       10 UNK        -0.1976 
     37 N         -51.4299  -26.2532   15.9226 N.am      10 UNK        -0.4242 
     38 C         -51.3874  -27.4303   15.2737 C.2       10 UNK         0.5072 
     39 O         -52.2232  -28.3217   15.4342 O.2       10 UNK        -0.5224 
     40 CA        -50.2585  -27.6462   14.2407 C.3       9 UNK         0.0343 
     41 CB        -50.8404  -27.9841   12.8571 C.3       9 UNK        -0.2003 
     42 N         -49.3608  -26.4957   14.1031 N.am      9 UNK        -0.4272 
     43 C         -48.4055  -26.1451   14.9763 C.2       9 UNK         0.4988 
     44 O         -48.0652  -26.8352   15.9368 O.2       9 UNK        -0.5108 
     45 CA        -47.7864  -24.7487   14.7888 C.3       8 UNK         0.0248 
     46 CB        -46.5677  -24.8006   13.8539 C.3       8 UNK        -0.2001 
     47 N         -48.7713  -23.7790   14.2907 N.am      8 UNK        -0.4140 
     48 C         -49.7880  -23.2999   15.0247 C.2       8 UNK         0.5028 
     49 O         -49.9479  -23.5702   16.2137 O.2       8 UNK        -0.5428 
     50 CA        -50.8265  -22.4102   14.3203 C.3       7 UNK         0.0264 
     51 CB        -50.4145  -20.9321   14.4080 C.3       7 UNK        -0.1988 
     52 N         -51.0381  -22.7732   12.9183 N.am      7 UNK        -0.4454 
     53 C         -51.6732  -23.8765   12.4904 C.2       7 UNK         0.5027 
     54 O         -52.2112  -24.6928   13.2399 O.2       7 UNK        -0.5083 
     55 CA        -51.6576  -24.1225   10.9645 C.3       6 UNK         0.0844 
     56 C56       -52.8751  -23.4377   10.2922 C.3       14 UNK        -0.0967 
     57 S57       -52.8449  -23.5759    8.4695 S.3       14 UNK        -0.2604 
     58 C58       -54.1499  -24.8023    8.1478 C.3       14 UNK         0.0134 
     59 N         -50.3847  -23.7063   10.3593 N.am      6 UNK        -0.4116 
     60 C         -49.1873  -24.2218   10.6578 C.2       5 UNK         0.5034 
     61 O         -49.0124  -25.1306   11.4739 O.2       5 UNK        -0.5045 
     62 CA        -47.9779  -23.5532   10.0018 C.3       5 UNK         0.0224 
     63 CB        -47.6100  -22.2547   10.7491 C.3       5 UNK        -0.1978 
     64 N         -46.8600  -24.4902   10.0302 N.am      5 UNK        -0.4737 
     65 C         -45.7505  -24.3987    9.2910 C.2       4 UNK         0.5027 
     66 O         -45.5181  -23.4509    8.5384 O.2       4 UNK        -0.5211 
     67 CA        -44.7238  -25.5423    9.4045 C.3       4 UNK         0.0297 
     68 CB        -45.1651  -26.7085   10.3144 C.3       4 UNK        -0.1993 
     69 N         -44.4572  -26.0655    8.0686 N.am      4 UNK        -0.4486 
     70 C         -43.4921  -25.6449    7.2416 C.2       3 UNK         0.4961 
     71 O         -42.6014  -24.8546    7.5569 O.2       3 UNK        -0.5105 
     72 CA        -43.5422  -26.1942    5.8085 C.3       3 UNK         0.0299 
     73 CB        -42.9855  -27.6269    5.7488 C.3       3 UNK        -0.1972 
     74 N         -44.9097  -26.1718    5.2828 N.am      3 UNK        -0.4305 
     75 C         -45.4748  -25.1138    4.6819 C.2       2 UNK         0.5006 
     76 O         -44.8818  -24.0564    4.4639 O.2       2 UNK        -0.5106 
     77 CA        -46.9352  -25.2524    4.2100 C.3       2 UNK         0.0296 
     78 CB        -46.9804  -25.5742    2.7067 C.3       2 UNK        -0.2002 
     79 N         -47.6864  -26.2767    4.9391 N.am      2 UNK        -0.4032 
     80 C         -48.2485  -26.0974    6.1437 C.2       1 UNK         0.5000 
     81 O         -48.2551  -25.0164    6.7346 O.2       1 UNK        -0.5238 
     82 H82       -45.6594  -30.2670    5.6402 H         1 UNK         0.0889 
     83 H83       -47.2783  -30.9151    5.9195 H         1 UNK         0.0889 
     84 H84       -46.1220  -30.8257    7.2498 H         1 UNK         0.0889 
     85 H85       -48.8169  -29.3074    6.0332 H         1 UNK         0.3028 
     86 H86       -49.8863  -27.3973    6.3161 H         1 UNK         0.0864 
     87 H87       -48.2099  -26.8568    8.8048 H         1 UNK         0.0720 
     88 H88       -49.8424  -26.3355    8.5024 H         1 UNK         0.0720 
     89 H89       -51.5491  -30.0622    8.5604 H         1 UNK         0.0814 
     90 H90       -51.2374  -28.9106    7.3052 H         1 UNK         0.0814 
     91 H91       -52.1074  -26.5125    7.5630 H         1 UNK         0.1469 
     92 H92       -55.5590  -26.1146   10.0720 H         1 UNK         0.1381 
     93 H93       -53.1274  -29.6348   10.3237 H         1 UNK         0.1206 
     94 H94       -56.1514  -27.7952   11.6238 H         1 UNK         0.0813 
     95 H95       -54.8564  -28.8166   12.2193 H         1 UNK         0.0813 
     96 H96       -58.5378  -30.5453   11.0324 H         1 UNK         0.0638 
     97 H97       -58.0786  -29.1455   11.9452 H         1 UNK         0.0638 
     98 H98       -58.5483  -31.0391   13.4104 H         1 UNK         0.0568 
     99 H99       -56.0147  -34.0754   12.8545 H         1 UNK         0.3450 
    100 H100      -55.5294  -32.5862   13.6262 H         1 UNK         0.3450 
    101 H101      -55.9609  -29.7724   13.4789 H         1 UNK         0.2987 
    102 H102      -56.1942  -29.4261   16.9429 H         1 UNK         0.0766 
    103 H103      -54.7282  -31.4660   16.8825 H         1 UNK         0.0798 
    104 H104      -53.7976  -29.9912   17.0806 H         1 UNK         0.0798 
    105 H105      -53.8525  -30.7927   15.5124 H         1 UNK         0.0798 
    106 H106      -54.2478  -28.3202   15.2903 H         1 UNK         0.3198 
    107 H107      -55.1614  -26.2944   13.4907 H         1 UNK         0.0843 
    108 H108      -56.6097  -24.6973   15.6679 H         1 UNK         0.0831 
    109 H109      -57.2167  -25.0397   14.0542 H         1 UNK         0.0831 
    110 H110      -55.8134  -24.0042   14.2552 H         1 UNK         0.0831 
    111 H111      -53.3075  -25.7562   14.5717 H         1 UNK         0.3133 
    112 H112      -52.1338  -24.7706   17.1703 H         1 UNK         0.0566 
    113 H113      -51.1128  -26.5962   18.5614 H         1 UNK         0.0814 
    114 H114      -52.4464  -27.6654   18.1274 H         1 UNK         0.0814 
    115 H115      -52.7463  -26.2159   19.0752 H         1 UNK         0.0814 
    116 H116      -50.7152  -25.5725   15.6997 H         1 UNK         0.3091 
    117 H117      -49.6729  -28.5023   14.5811 H         1 UNK         0.0702 
    118 H118      -50.0472  -28.1717   12.1341 H         1 UNK         0.0785 
    119 H119      -51.4610  -27.1775   12.4664 H         1 UNK         0.0785 
    120 H120      -51.4599  -28.8810   12.8954 H         1 UNK         0.0785 
    121 H121      -49.5120  -25.9017   13.2942 H         1 UNK         0.2998 
    122 H122      -47.4415  -24.4060   15.7670 H         1 UNK         0.0697 
    123 H123      -46.8287  -25.1748   12.8660 H         1 UNK         0.0825 
    124 H124      -45.8003  -25.4631   14.2564 H         1 UNK         0.0825 
    125 H125      -46.1141  -23.8167   13.7336 H         1 UNK         0.0825 
    126 H126      -48.7288  -23.5503   13.3094 H         1 UNK         0.3029 
    127 H127      -51.7751  -22.5330   14.8484 H         1 UNK         0.0897 
    128 H128      -49.4783  -20.7387   13.8827 H         1 UNK         0.0792 
    129 H129      -50.2737  -20.6284   15.4465 H         1 UNK         0.0792 
    130 H130      -51.1793  -20.2811   13.9841 H         1 UNK         0.0792 
    131 H131      -50.6501  -22.1489   12.2265 H         1 UNK         0.3086 
    132 H132      -51.7480  -25.2002   10.8103 H         1 UNK         0.0583 
    133 H133      -53.8067  -23.8583   10.6760 H         1 UNK         0.1020 
    134 H134      -52.9047  -22.3743   10.5382 H         1 UNK         0.1020 
    135 H135      -55.1027  -24.4086    8.5053 H         1 UNK         0.0694 
    136 H136      -54.2564  -24.9267    7.0694 H         1 UNK         0.0694 
    137 H137      -50.4493  -22.9800    9.6604 H         1 UNK         0.2989 
    138 H138      -48.2242  -23.3305    8.9608 H         1 UNK         0.1055 
    139 H139      -46.7823  -21.7372   10.2641 H         1 UNK         0.0806 
    140 H140      -47.3164  -22.4504   11.7807 H         1 UNK         0.0806 
    141 H141      -48.4476  -21.5567   10.7709 H         1 UNK         0.0806 
    142 H142      -47.0208  -25.3074   10.6060 H         1 UNK         0.3061 
    143 H143      -43.8108  -25.1155    9.8245 H         1 UNK         0.0734 
    144 H144      -46.0876  -27.1762    9.9678 H         1 UNK         0.0832 
    145 H145      -44.4010  -27.4854   10.3457 H         1 UNK         0.0832 
    146 H146      -45.3168  -26.3772   11.3420 H         1 UNK         0.0832 
    147 H147      -45.1314  -26.7445    7.7158 H         1 UNK         0.3156 
    148 H148      -42.9057  -25.5648    5.1825 H         1 UNK         0.0589 
    149 H149      -43.5660  -28.3184    6.3604 H         1 UNK         0.0808 
    150 H150      -41.9572  -27.6583    6.1114 H         1 UNK         0.0808 
    151 H151      -42.9799  -28.0071    4.7272 H         1 UNK         0.0808 
    152 H152      -45.4846  -26.9759    5.4968 H         1 UNK         0.3098 
    153 H153      -47.4207  -24.2858    4.3624 H         1 UNK         0.0720 
    154 H154      -46.4558  -24.8120    2.1287 H         1 UNK         0.0791 
    155 H155      -48.0060  -25.6076    2.3386 H         1 UNK         0.0791 
    156 H156      -46.5105  -26.5329    2.4830 H         1 UNK         0.0791 
    157 H157      -47.7416  -27.1924    4.5165 H         1 UNK         0.3028 
@<TRIPOS>BOND
     1    1    2 1    
     2    1   82 1    
     3    1   83 1    
     4    1   84 1    
     5    2    3 2    
     6    2    4 am   BACKBONE|DICT|INTERRES
     7    4    5 1    
     8    4   85 1    
     9    5    6 1    
    10    5   80 1    
    11    5   86 1    
    12    6    7 1    
    13    6   87 1    
    14    6   88 1    
    15    7    8 1    
    16    8    9 1    
    17    8   89 1    
    18    8   90 1    
    19    9   10 ar   
    20    9   14 ar   
    21   10   11 ar   
    22   10   91 1    
    23   11   12 ar   
    24   11   58 1    
    25   12   13 ar   
    26   12   92 1    
    27   13   14 ar   
    28   13   15 1    
    29   14   93 1    
    30   15   16 1    
    31   15   94 1    
    32   15   95 1    
    33   16   17 1    
    34   17   18 1    
    35   17   96 1    
    36   17   97 1    
    37   18   19 1    
    38   18   22 1    
    39   18   98 1    
    40   19   20 am   BACKBONE|DICT|INTERRES
    41   19   21 2    
    42   20   99 1    
    43   20  100 1    
    44   22   23 am   BACKBONE|DICT|INTERRES
    45   22  101 1    
    46   23   24 2    
    47   23   25 1    
    48   25   26 1    
    49   25   27 1    
    50   25  102 1    
    51   26  103 1    
    52   26  104 1    
    53   26  105 1    
    54   27   28 am   BACKBONE|DICT|INTERRES
    55   27  106 1    
    56   28   29 2    
    57   28   30 1    
    58   30   31 1    
    59   30   32 1    
    60   30  107 1    
    61   31  108 1    
    62   31  109 1    
    63   31  110 1    
    64   32   33 am   BACKBONE|DICT|INTERRES
    65   32  111 1    
    66   33   34 2    
    67   33   35 1    
    68   35   36 1    
    69   35   37 1    
    70   35  112 1    
    71   36  113 1    
    72   36  114 1    
    73   36  115 1    
    74   37   38 am   BACKBONE|DICT|INTERRES
    75   37  116 1    
    76   38   39 2    
    77   38   40 1    
    78   40   41 1    
    79   40   42 1    
    80   40  117 1    
    81   41  118 1    
    82   41  119 1    
    83   41  120 1    
    84   42   43 am   BACKBONE|DICT|INTERRES
    85   42  121 1    
    86   43   44 2    
    87   43   45 1    
    88   45   46 1    
    89   45   47 1    
    90   45  122 1    
    91   46  123 1    
    92   46  124 1    
    93   46  125 1    
    94   47   48 am   BACKBONE|DICT|INTERRES
    95   47  126 1    
    96   48   49 2    
    97   48   50 1    
    98   50   51 1    
    99   50   52 1    
   100   50  127 1    
   101   51  128 1    
   102   51  129 1    
   103   51  130 1    
   104   52   53 am   BACKBONE|DICT|INTERRES
   105   52  131 1    
   106   53   54 2    
   107   53   55 1    
   108   55   56 1    
   109   55   59 1    
   110   55  132 1    
   111   56   57 1    
   112   56  133 1    
   113   56  134 1    
   114   57   58 1    
   115   58  135 1    
   116   58  136 1    
   117   59   60 am   BACKBONE|DICT|INTERRES
   118   59  137 1    
   119   60   61 2    
   120   60   62 1    
   121   62   63 1    
   122   62   64 1    
   123   62  138 1    
   124   63  139 1    
   125   63  140 1    
   126   63  141 1    
   127   64   65 am   BACKBONE|DICT|INTERRES
   128   64  142 1    
   129   65   66 2    
   130   65   67 1    
   131   67   68 1    
   132   67   69 1    
   133   67  143 1    
   134   68  144 1    
   135   68  145 1    
   136   68  146 1    
   137   69   70 am   BACKBONE|DICT|INTERRES
   138   69  147 1    
   139   70   71 2    
   140   70   72 1    
   141   72   73 1    
   142   72   74 1    
   143   72  148 1    
   144   73  149 1    
   145   73  150 1    
   146   73  151 1    
   147   74   75 am   BACKBONE|DICT|INTERRES
   148   74  152 1    
   149   75   76 2    
   150   75   77 1    
   151   77   78 1    
   152   77   79 1    
   153   77  153 1    
   154   78  154 1    
   155   78  155 1    
   156   78  156 1    
   157   79   80 am   BACKBONE|DICT|INTERRES
   158   79  157 1    
   159   80   81 2    
@<TRIPOS>SUBSTRUCTURE
     1 UNK         1 GROUP             0       ****    0 ROOT    
