@<TRIPOS>MOLECULE
3R207
157   159    1
SMALL
USER_CHARGES


@<TRIPOS>ATOM
      1 CA        -49.7454  -28.2273    4.4140 C.3       0 UNK        -0.1975 
      2 C         -49.0619  -27.7061    5.6692 C.2       0 UNK         0.4852 
      3 O         -48.8177  -26.5048    5.7755 O.2       0 UNK        -0.5216 
      4 N         -48.7640  -28.5992    6.6203 N.am      1 UNK        -0.4461 
      5 CA        -48.0945  -28.2770    7.8827 C.3       1 UNK         0.0864 
      6 C6        -48.4655  -29.2819    9.0022 C.3       14 UNK        -0.0898 
      7 S7        -50.0846  -28.8714    9.7227 S.3       14 UNK        -0.2598 
      8 C8        -51.2033  -29.9266    8.7535 C.3       14 UNK         0.0286 
      9 C9        -52.5665  -29.2695    8.6272 C.ar      14 UNK        -0.0844 
     10 C10       -52.7580  -28.2423    7.6986 C.ar      14 UNK        -0.0881 
     11 C11       -53.9930  -27.5938    7.5972 C.ar      14 UNK        -0.0643 
     12 C12       -55.0495  -28.0083    8.4151 C.ar      14 UNK        -0.0930 
     13 C13       -54.8765  -29.0514    9.3304 C.ar      14 UNK        -0.0827 
     14 C14       -53.6302  -29.6744    9.4379 C.ar      14 UNK        -0.1249 
     15 C15       -56.0428  -29.5210   10.1846 C.3       14 UNK         0.0141 
     16 S16       -56.1134  -28.6378   11.7728 S.3       14 UNK        -0.2313 
     17 C17       -57.6173  -29.3852   12.4936 C.3       14 UNK        -0.0915 
     18 CA        -57.3417  -30.4039   13.6313 C.3       13 UNK         0.0968 
     19 C         -56.7095  -31.7292   13.1131 C.2       13 UNK         0.5732 
     20 N         -55.5297  -32.1304   13.5716 N.am      13 UNK        -0.7310 
     21 O         -57.3096  -32.4122   12.2866 O.2       13 UNK        -0.5035 
     22 N         -56.6315  -29.7710   14.7514 N.am      13 UNK        -0.4233 
     23 C         -56.6943  -30.1674   16.0289 C.2       13 UNK         0.4989 
     24 O         -57.3706  -31.1212   16.4163 O.2       13 UNK        -0.4996 
     25 CA        -55.8656  -29.3741   17.0561 C.3       12 UNK         0.0216 
     26 CB        -54.6481  -30.1949   17.5121 C.3       12 UNK        -0.1964 
     27 N         -55.4157  -28.0683   16.5582 N.am      12 UNK        -0.4276 
     28 C         -56.2076  -26.9882   16.4508 C.2       12 UNK         0.5020 
     29 O         -57.3963  -26.9948   16.7759 O.2       12 UNK        -0.5489 
     30 CA        -55.5984  -25.6962   15.8604 C.3       11 UNK         0.0294 
     31 CB        -56.2194  -24.4190   16.4661 C.3       11 UNK        -0.2019 
     32 N         -54.1323  -25.6436   15.9135 N.am      11 UNK        -0.4493 
     33 C         -53.3496  -25.6536   17.0041 C.2       11 UNK         0.4932 
     34 O         -53.7783  -25.6073   18.1579 O.2       11 UNK        -0.5029 
     35 CA        -51.8302  -25.7672   16.7549 C.3       10 UNK         0.0280 
     36 CB        -51.0908  -26.4308   17.9357 C.3       10 UNK        -0.1976 
     37 N         -51.4748  -26.4382   15.4943 N.am      10 UNK        -0.4242 
     38 C         -51.8280  -27.6764   15.1036 C.2       10 UNK         0.5072 
     39 O         -52.5803  -28.4001   15.7566 O.2       10 UNK        -0.5224 
     40 CA        -51.3159  -28.1905   13.7438 C.3       9 UNK         0.0343 
     41 CB        -52.4948  -28.3875   12.7759 C.3       9 UNK        -0.2003 
     42 N         -50.3193  -27.3117   13.1257 N.am      9 UNK        -0.4272 
     43 C         -49.0360  -27.2298   13.5141 C.2       9 UNK         0.4988 
     44 O         -48.5349  -27.9710   14.3601 O.2       9 UNK        -0.5108 
     45 CA        -48.1656  -26.1140   12.8990 C.3       8 UNK         0.0248 
     46 CB        -47.2422  -26.6873   11.8135 C.3       8 UNK        -0.2001 
     47 N         -48.9335  -24.9947   12.3429 N.am      8 UNK        -0.4140 
     48 C         -49.7504  -24.1972   13.0518 C.2       8 UNK         0.5028 
     49 O         -49.8819  -24.2783   14.2733 O.2       8 UNK        -0.5428 
     50 CA        -50.6242  -23.1897   12.2795 C.3       7 UNK         0.0264 
     51 CB        -50.0444  -21.7721   12.3912 C.3       7 UNK        -0.1988 
     52 N         -50.8169  -23.5375   10.8678 N.am      7 UNK        -0.4454 
     53 C         -51.4304  -24.6525   10.4370 C.2       7 UNK         0.5027 
     54 O         -51.9655  -25.4570   11.1996 O.2       7 UNK        -0.5083 
     55 CA        -51.4016  -24.9589    8.9232 C.3       6 UNK         0.0844 
     56 C56       -52.7808  -24.6651    8.2831 C.3       14 UNK        -0.0967 
     57 S57       -52.8569  -25.2343    6.5487 S.3       14 UNK        -0.2604 
     58 C58       -54.2098  -26.4608    6.5970 C.3       14 UNK         0.0134 
     59 N         -50.3133  -24.2899    8.1960 N.am      6 UNK        -0.4116 
     60 C         -49.0021  -24.4066    8.4449 C.2       5 UNK         0.5034 
     61 O         -48.5404  -25.0752    9.3741 O.2       5 UNK        -0.5045 
     62 CA        -48.0342  -23.6432    7.5206 C.3       5 UNK         0.0224 
     63 CB        -48.6925  -22.5222    6.6832 C.3       5 UNK        -0.1978 
     64 N         -46.8819  -23.1406    8.2753 N.am      5 UNK        -0.4737 
     65 C         -46.8963  -22.2507    9.2799 C.2       4 UNK         0.5027 
     66 O         -47.9004  -21.6197    9.6108 O.2       4 UNK        -0.5211 
     67 CA        -45.5955  -22.0508   10.0863 C.3       4 UNK         0.0297 
     68 CB        -45.8327  -22.3733   11.5729 C.3       4 UNK        -0.1993 
     69 N         -44.4808  -22.8720    9.6053 N.am      4 UNK        -0.4486 
     70 C         -43.6900  -22.5747    8.5651 C.2       3 UNK         0.4961 
     71 O         -43.7494  -21.5164    7.9392 O.2       3 UNK        -0.5105 
     72 CA        -42.6824  -23.6576    8.1280 C.3       3 UNK         0.0299 
     73 CB        -41.3032  -23.3885    8.7511 C.3       3 UNK        -0.1972 
     74 N         -43.0986  -25.0321    8.4450 N.am      3 UNK        -0.4305 
     75 C         -44.2007  -25.6335    7.9723 C.2       2 UNK         0.5006 
     76 O         -44.9874  -25.0829    7.2004 O.2       2 UNK        -0.5106 
     77 CA        -44.4888  -27.0665    8.4535 C.3       2 UNK         0.0296 
     78 CB        -43.9552  -27.3508    9.8733 C.3       2 UNK        -0.2002 
     79 N         -45.9336  -27.3018    8.4396 N.am      2 UNK        -0.4032 
     80 C         -46.5699  -28.2070    7.6873 C.2       1 UNK         0.5000 
     81 O         -46.0111  -28.9885    6.9118 O.2       1 UNK        -0.5238 
     82 H82       -49.9185  -29.3024    4.4590 H         1 UNK         0.0889 
     83 H83       -49.1316  -28.0178    3.5385 H         1 UNK         0.0889 
     84 H84       -50.7083  -27.7342    4.2820 H         1 UNK         0.0889 
     85 H85       -48.9240  -29.5808    6.4486 H         1 UNK         0.3028 
     86 H86       -48.4259  -27.2869    8.1926 H         1 UNK         0.0864 
     87 H87       -48.4542  -30.3121    8.6414 H         1 UNK         0.0720 
     88 H88       -47.7461  -29.2462    9.8227 H         1 UNK         0.0720 
     89 H89       -50.7983  -30.1032    7.7572 H         1 UNK         0.0814 
     90 H90       -51.2821  -30.9038    9.2321 H         1 UNK         0.0814 
     91 H91       -51.9343  -27.9306    7.0712 H         1 UNK         0.1469 
     92 H92       -56.0130  -27.5234    8.3369 H         1 UNK         0.1381 
     93 H93       -53.4888  -30.4712   10.1555 H         1 UNK         0.1206 
     94 H94       -55.9600  -30.5933   10.3680 H         1 UNK         0.0813 
     95 H95       -56.9800  -29.3736    9.6456 H         1 UNK         0.0813 
     96 H96       -58.2284  -28.5700   12.8839 H         1 UNK         0.0638 
     97 H97       -58.2207  -29.8423   11.7073 H         1 UNK         0.0638 
     98 H98       -58.3214  -30.7002   14.0109 H         1 UNK         0.0568 
     99 H99       -55.1369  -32.9936   13.2318 H         1 UNK         0.3450 
    100 H100      -55.0308  -31.5798   14.2504 H         1 UNK         0.3450 
    101 H101      -56.0370  -28.9926   14.5113 H         1 UNK         0.2987 
    102 H102      -56.5024  -29.2067   17.9275 H         1 UNK         0.0766 
    103 H103      -54.9609  -31.1287   17.9812 H         1 UNK         0.0798 
    104 H104      -54.0511  -29.6490   18.2431 H         1 UNK         0.0798 
    105 H105      -53.9981  -30.4545   16.6758 H         1 UNK         0.0798 
    106 H106      -54.4381  -28.0033   16.2832 H         1 UNK         0.3198 
    107 H107      -55.8566  -25.7111   14.8002 H         1 UNK         0.0843 
    108 H108      -56.0755  -24.3706   17.5458 H         1 UNK         0.0831 
    109 H109      -57.2938  -24.3802   16.2819 H         1 UNK         0.0831 
    110 H110      -55.7861  -23.5198   16.0284 H         1 UNK         0.0831 
    111 H111      -53.6649  -25.6813   15.0184 H         1 UNK         0.3133 
    112 H112      -51.4619  -24.7442   16.6663 H         1 UNK         0.0566 
    113 H113      -51.4532  -27.4428   18.1204 H         1 UNK         0.0814 
    114 H114      -51.2281  -25.8624   18.8564 H         1 UNK         0.0814 
    115 H115      -50.0182  -26.4874   17.7498 H         1 UNK         0.0814 
    116 H116      -50.8721  -25.8917   14.8851 H         1 UNK         0.3091 
    117 H117      -50.8566  -29.1657   13.9174 H         1 UNK         0.0702 
    118 H118      -52.1599  -28.7645   11.8111 H         1 UNK         0.0785 
    119 H119      -53.0376  -27.4586   12.5990 H         1 UNK         0.0785 
    120 H120      -53.2104  -29.1105   13.1698 H         1 UNK         0.0785 
    121 H121      -50.6634  -26.6772   12.4133 H         1 UNK         0.2998 
    122 H122      -47.5410  -25.7132   13.7000 H         1 UNK         0.0697 
    123 H123      -46.5814  -25.9208   11.4098 H         1 UNK         0.0825 
    124 H124      -47.8169  -27.1065   10.9883 H         1 UNK         0.0825 
    125 H125      -46.6132  -27.4844   12.2124 H         1 UNK         0.0825 
    126 H126      -48.8910  -24.8808   11.3340 H         1 UNK         0.3029 
    127 H127      -51.6082  -23.1914   12.7533 H         1 UNK         0.0897 
    128 H128      -49.9647  -21.4660   13.4353 H         1 UNK         0.0792 
    129 H129      -50.6759  -21.0405   11.8870 H         1 UNK         0.0792 
    130 H130      -49.0462  -21.7100   11.9597 H         1 UNK         0.0792 
    131 H131      -50.3731  -22.9355   10.1876 H         1 UNK         0.3086 
    132 H132      -51.2126  -26.0312    8.8401 H         1 UNK         0.0583 
    133 H133      -53.5785  -25.1446    8.8545 H         1 UNK         0.1020 
    134 H134      -52.9975  -23.5954    8.3072 H         1 UNK         0.1020 
    135 H135      -55.1402  -25.9328    6.8120 H         1 UNK         0.0694 
    136 H136      -54.3239  -26.8928    5.6021 H         1 UNK         0.0694 
    137 H137      -50.5983  -23.7380    7.4006 H         1 UNK         0.2989 
    138 H138      -47.6363  -24.3843    6.8260 H         1 UNK         0.1055 
    139 H139      -49.2133  -21.7927    7.3044 H         1 UNK         0.0806 
    140 H140      -49.4120  -22.9302    5.9722 H         1 UNK         0.0806 
    141 H141      -47.9462  -21.9834    6.0992 H         1 UNK         0.0806 
    142 H142      -46.0136  -23.6263    8.0749 H         1 UNK         0.3061 
    143 H143      -45.3203  -20.9972   10.0042 H         1 UNK         0.0734 
    144 H144      -46.1793  -23.3976   11.7155 H         1 UNK         0.0832 
    145 H145      -44.9244  -22.2387   12.1604 H         1 UNK         0.0832 
    146 H146      -46.5884  -21.7132   11.9998 H         1 UNK         0.0832 
    147 H147      -44.3456  -23.7616   10.0622 H         1 UNK         0.3156 
    148 H148      -42.5845  -23.5880    7.0426 H         1 UNK         0.0589 
    149 H149      -40.5539  -24.0858    8.3760 H         1 UNK         0.0808 
    150 H150      -41.3270  -23.4713    9.8385 H         1 UNK         0.0808 
    151 H151      -40.9552  -22.3830    8.5091 H         1 UNK         0.0808 
    152 H152      -42.4985  -25.5524    9.0692 H         1 UNK         0.3098 
    153 H153      -43.9865  -27.7395    7.7558 H         1 UNK         0.0720 
    154 H154      -42.8651  -27.3430    9.9015 H         1 UNK         0.0791 
    155 H155      -44.2680  -28.3369   10.2180 H         1 UNK         0.0791 
    156 H156      -44.3135  -26.6205   10.5996 H         1 UNK         0.0791 
    157 H157      -46.4904  -26.6559    8.9831 H         1 UNK         0.3028 
@<TRIPOS>BOND
     1    1    2 1    
     2    1   82 1    
     3    1   83 1    
     4    1   84 1    
     5    2    3 2    
     6    2    4 am   BACKBONE|DICT|INTERRES
     7    4    5 1    
     8    4   85 1    
     9    5    6 1    
    10    5   80 1    
    11    5   86 1    
    12    6    7 1    
    13    6   87 1    
    14    6   88 1    
    15    7    8 1    
    16    8    9 1    
    17    8   89 1    
    18    8   90 1    
    19    9   10 ar   
    20    9   14 ar   
    21   10   11 ar   
    22   10   91 1    
    23   11   12 ar   
    24   11   58 1    
    25   12   13 ar   
    26   12   92 1    
    27   13   14 ar   
    28   13   15 1    
    29   14   93 1    
    30   15   16 1    
    31   15   94 1    
    32   15   95 1    
    33   16   17 1    
    34   17   18 1    
    35   17   96 1    
    36   17   97 1    
    37   18   19 1    
    38   18   22 1    
    39   18   98 1    
    40   19   20 am   BACKBONE|DICT|INTERRES
    41   19   21 2    
    42   20   99 1    
    43   20  100 1    
    44   22   23 am   BACKBONE|DICT|INTERRES
    45   22  101 1    
    46   23   24 2    
    47   23   25 1    
    48   25   26 1    
    49   25   27 1    
    50   25  102 1    
    51   26  103 1    
    52   26  104 1    
    53   26  105 1    
    54   27   28 am   BACKBONE|DICT|INTERRES
    55   27  106 1    
    56   28   29 2    
    57   28   30 1    
    58   30   31 1    
    59   30   32 1    
    60   30  107 1    
    61   31  108 1    
    62   31  109 1    
    63   31  110 1    
    64   32   33 am   BACKBONE|DICT|INTERRES
    65   32  111 1    
    66   33   34 2    
    67   33   35 1    
    68   35   36 1    
    69   35   37 1    
    70   35  112 1    
    71   36  113 1    
    72   36  114 1    
    73   36  115 1    
    74   37   38 am   BACKBONE|DICT|INTERRES
    75   37  116 1    
    76   38   39 2    
    77   38   40 1    
    78   40   41 1    
    79   40   42 1    
    80   40  117 1    
    81   41  118 1    
    82   41  119 1    
    83   41  120 1    
    84   42   43 am   BACKBONE|DICT|INTERRES
    85   42  121 1    
    86   43   44 2    
    87   43   45 1    
    88   45   46 1    
    89   45   47 1    
    90   45  122 1    
    91   46  123 1    
    92   46  124 1    
    93   46  125 1    
    94   47   48 am   BACKBONE|DICT|INTERRES
    95   47  126 1    
    96   48   49 2    
    97   48   50 1    
    98   50   51 1    
    99   50   52 1    
   100   50  127 1    
   101   51  128 1    
   102   51  129 1    
   103   51  130 1    
   104   52   53 am   BACKBONE|DICT|INTERRES
   105   52  131 1    
   106   53   54 2    
   107   53   55 1    
   108   55   56 1    
   109   55   59 1    
   110   55  132 1    
   111   56   57 1    
   112   56  133 1    
   113   56  134 1    
   114   57   58 1    
   115   58  135 1    
   116   58  136 1    
   117   59   60 am   BACKBONE|DICT|INTERRES
   118   59  137 1    
   119   60   61 2    
   120   60   62 1    
   121   62   63 1    
   122   62   64 1    
   123   62  138 1    
   124   63  139 1    
   125   63  140 1    
   126   63  141 1    
   127   64   65 am   BACKBONE|DICT|INTERRES
   128   64  142 1    
   129   65   66 2    
   130   65   67 1    
   131   67   68 1    
   132   67   69 1    
   133   67  143 1    
   134   68  144 1    
   135   68  145 1    
   136   68  146 1    
   137   69   70 am   BACKBONE|DICT|INTERRES
   138   69  147 1    
   139   70   71 2    
   140   70   72 1    
   141   72   73 1    
   142   72   74 1    
   143   72  148 1    
   144   73  149 1    
   145   73  150 1    
   146   73  151 1    
   147   74   75 am   BACKBONE|DICT|INTERRES
   148   74  152 1    
   149   75   76 2    
   150   75   77 1    
   151   77   78 1    
   152   77   79 1    
   153   77  153 1    
   154   78  154 1    
   155   78  155 1    
   156   78  156 1    
   157   79   80 am   BACKBONE|DICT|INTERRES
   158   79  157 1    
   159   80   81 2    
@<TRIPOS>SUBSTRUCTURE
     1 UNK         1 GROUP             0       ****    0 ROOT    
