@<TRIPOS>MOLECULE
3R207
157   159    1
SMALL
USER_CHARGES


@<TRIPOS>ATOM
      1 CA        -51.2532  -31.0341    6.3686 C.3       0 UNK        -0.1975 
      2 C         -50.7276  -29.9240    5.4733 C.2       0 UNK         0.4852 
      3 O         -49.9998  -30.1935    4.5171 O.2       0 UNK        -0.5216 
      4 N         -51.0881  -28.6725    5.7845 N.am      1 UNK        -0.4461 
      5 CA        -50.6994  -27.4708    5.0318 C.3       1 UNK         0.0864 
      6 C6        -51.6241  -26.2641    5.3404 C.3       14 UNK        -0.0898 
      7 S7        -53.3838  -26.6001    4.9798 S.3       14 UNK        -0.2598 
      8 C8        -54.1607  -26.4627    6.6233 C.3       14 UNK         0.0286 
      9 C9        -53.8290  -27.6564    7.5060 C.ar      14 UNK        -0.0844 
     10 C10       -52.7547  -27.5951    8.3972 C.ar      14 UNK        -0.0881 
     11 C11       -52.4090  -28.7033    9.1792 C.ar      14 UNK        -0.0643 
     12 C12       -53.1822  -29.8637    9.0863 C.ar      14 UNK        -0.0930 
     13 C13       -54.2895  -29.9237    8.2345 C.ar      14 UNK        -0.0827 
     14 C14       -54.5991  -28.8207    7.4347 C.ar      14 UNK        -0.1249 
     15 C15       -55.1476  -31.1817    8.1798 C.3       14 UNK         0.0141 
     16 S16       -56.5484  -31.1109    9.3475 S.3       14 UNK        -0.2313 
     17 C17       -55.6652  -31.1088   10.9408 C.3       14 UNK        -0.0915 
     18 CA        -56.5861  -31.1113   12.1901 C.3       13 UNK         0.0968 
     19 C         -57.0112  -32.5523   12.5983 C.2       13 UNK         0.5732 
     20 N         -56.5168  -33.1010   13.7019 N.am      13 UNK        -0.7310 
     21 O         -57.8118  -33.1794   11.9091 O.2       13 UNK        -0.5035 
     22 N         -55.9581  -30.3159   13.2532 N.am      13 UNK        -0.4233 
     23 C         -56.5308  -29.8516   14.3660 C.2       13 UNK         0.4989 
     24 O         -57.6971  -30.0783   14.6886 O.2       13 UNK        -0.4996 
     25 CA        -55.6551  -28.9496   15.2576 C.3       12 UNK         0.0216 
     26 CB        -54.6144  -29.7724   16.0424 C.3       12 UNK        -0.1964 
     27 N         -55.0250  -27.8293   14.5400 N.am      12 UNK        -0.4276 
     28 C         -54.1147  -27.8444   13.5557 C.2       12 UNK         0.5020 
     29 O         -53.5944  -28.8695   13.1129 O.2       12 UNK        -0.5489 
     30 CA        -53.7365  -26.4891   12.9356 C.3       11 UNK         0.0294 
     31 CB        -54.8947  -25.9035   12.1058 C.3       11 UNK        -0.2019 
     32 N         -53.2053  -25.5154   13.8948 N.am      11 UNK        -0.4493 
     33 C         -53.7909  -24.9452   14.9575 C.2       11 UNK         0.4932 
     34 O         -54.9701  -25.1208   15.2723 O.2       11 UNK        -0.5029 
     35 CA        -52.8795  -24.0424   15.8144 C.3       10 UNK         0.0280 
     36 CB        -53.4990  -23.6674   17.1772 C.3       10 UNK        -0.1976 
     37 N         -51.5348  -24.6127   15.9753 N.am      10 UNK        -0.4242 
     38 C         -51.2017  -25.7732   16.5641 C.2       10 UNK         0.5072 
     39 O         -51.9966  -26.4868   17.1771 O.2       10 UNK        -0.5224 
     40 CA        -49.7426  -26.2521   16.4187 C.3       9 UNK         0.0343 
     41 CB        -49.6774  -27.4565   15.4643 C.3       9 UNK        -0.2003 
     42 N         -48.8182  -25.2212   15.9371 N.am      9 UNK        -0.4272 
     43 C         -48.3721  -24.1882   16.6656 C.2       9 UNK         0.4988 
     44 O         -48.6525  -24.0128   17.8515 O.2       9 UNK        -0.5108 
     45 CA        -47.4885  -23.1608   15.9376 C.3       8 UNK         0.0248 
     46 CB        -46.0165  -23.6047   15.9332 C.3       8 UNK        -0.2001 
     47 N         -47.9379  -22.9163   14.5640 N.am      8 UNK        -0.4140 
     48 C         -49.0592  -22.2538   14.2434 C.2       8 UNK         0.5028 
     49 O         -49.8122  -21.7404   15.0710 O.2       8 UNK        -0.5428 
     50 CA        -49.4264  -22.1836   12.7513 C.3       7 UNK         0.0264 
     51 CB        -48.6988  -21.0118   12.0738 C.3       7 UNK        -0.1988 
     52 N         -49.1500  -23.4322   12.0315 N.am      7 UNK        -0.4454 
     53 C         -49.7742  -24.5924   12.2886 C.2       7 UNK         0.5027 
     54 O         -50.6722  -24.7028   13.1218 O.2       7 UNK        -0.5083 
     55 CA        -49.3052  -25.8593   11.5489 C.3       6 UNK         0.0844 
     56 C56       -50.1049  -26.0814   10.2454 C.3       14 UNK        -0.0967 
     57 S57       -49.7887  -27.7349    9.5361 S.3       14 UNK        -0.2604 
     58 C58       -51.2255  -28.6782   10.1444 C.3       14 UNK         0.0134 
     59 N         -47.8561  -25.8985   11.3442 N.am      6 UNK        -0.4116 
     60 C         -46.9455  -25.9270   12.3272 C.2       5 UNK         0.5034 
     61 O         -47.2268  -25.8587   13.5243 O.2       5 UNK        -0.5045 
     62 CA        -45.4759  -26.0285   11.9017 C.3       5 UNK         0.0224 
     63 CB        -45.1270  -27.4716   11.5018 C.3       5 UNK        -0.1978 
     64 N         -45.1977  -25.1294   10.7821 N.am      5 UNK        -0.4737 
     65 C         -44.7808  -23.8641   10.9146 C.2       4 UNK         0.5027 
     66 O         -44.5052  -23.3446   11.9963 O.2       4 UNK        -0.5211 
     67 CA        -44.6604  -23.0269    9.6266 C.3       4 UNK         0.0297 
     68 CB        -43.2457  -23.1497    9.0385 C.3       4 UNK        -0.1993 
     69 N         -45.6467  -23.3686    8.5955 N.am      4 UNK        -0.4486 
     70 C         -46.9726  -23.2404    8.7405 C.2       3 UNK         0.4961 
     71 O         -47.5142  -22.8346    9.7672 O.2       3 UNK        -0.5105 
     72 CA        -47.8559  -23.6793    7.5611 C.3       3 UNK         0.0299 
     73 CB        -47.9257  -22.5691    6.5009 C.3       3 UNK        -0.1972 
     74 N         -47.4987  -24.9486    6.9139 N.am      3 UNK        -0.4305 
     75 C         -47.1462  -26.0993    7.5054 C.2       2 UNK         0.5006 
     76 O         -46.8819  -26.2113    8.7031 O.2       2 UNK        -0.5106 
     77 CA        -47.1545  -27.3466    6.6059 C.3       2 UNK         0.0296 
     78 CB        -46.5329  -28.5746    7.2977 C.3       2 UNK        -0.2002 
     79 N         -48.5291  -27.6678    6.2158 N.am      2 UNK        -0.4032 
     80 C         -49.2174  -27.0734    5.2300 C.2       1 UNK         0.5000 
     81 O         -48.7256  -26.2076    4.5020 O.2       1 UNK        -0.5238 
     82 H82       -50.8507  -32.0004    6.0656 H         1 UNK         0.0889 
     83 H83       -52.3400  -31.0863    6.3111 H         1 UNK         0.0889 
     84 H84       -50.9663  -30.8590    7.4052 H         1 UNK         0.0889 
     85 H85       -51.7213  -28.5171    6.5592 H         1 UNK         0.3028 
     86 H86       -50.8085  -27.7028    3.9700 H         1 UNK         0.0864 
     87 H87       -51.3376  -25.4052    4.7302 H         1 UNK         0.0720 
     88 H88       -51.5068  -25.9403    6.3749 H         1 UNK         0.0720 
     89 H89       -55.2420  -26.3943    6.4946 H         1 UNK         0.0814 
     90 H90       -53.8554  -25.5299    7.1002 H         1 UNK         0.0814 
     91 H91       -52.1796  -26.6843    8.4641 H         1 UNK         0.1469 
     92 H92       -52.9343  -30.7208    9.6974 H         1 UNK         0.1381 
     93 H93       -55.4432  -28.8664    6.7599 H         1 UNK         0.1206 
     94 H94       -55.5380  -31.3178    7.1702 H         1 UNK         0.0813 
     95 H95       -54.5424  -32.0647    8.3910 H         1 UNK         0.0813 
     96 H96       -55.0672  -30.1971   10.9435 H         1 UNK         0.0638 
     97 H97       -54.9502  -31.9335   10.9686 H         1 UNK         0.0638 
     98 H98       -57.5082  -30.5853   11.9362 H         1 UNK         0.0568 
     99 H99       -56.8028  -34.0317   13.9618 H         1 UNK         0.3450 
    100 H100      -55.8637  -32.5928   14.2756 H         1 UNK         0.3450 
    101 H101      -54.9957  -30.0271   13.0882 H         1 UNK         0.2987 
    102 H102      -56.3227  -28.4892   15.9877 H         1 UNK         0.0766 
    103 H103      -54.0464  -29.1393   16.7247 H         1 UNK         0.0798 
    104 H104      -53.9033  -30.2729   15.3847 H         1 UNK         0.0798 
    105 H105      -55.0997  -30.5430   16.6427 H         1 UNK         0.0798 
    106 H106      -55.3275  -26.9017   14.8334 H         1 UNK         0.3198 
    107 H107      -52.9162  -26.6845   12.2441 H         1 UNK         0.0843 
    108 H108      -55.7587  -25.6530   12.7216 H         1 UNK         0.0831 
    109 H109      -55.2291  -26.6169   11.3508 H         1 UNK         0.0831 
    110 H110      -54.5853  -24.9998   11.5809 H         1 UNK         0.0831 
    111 H111      -52.2304  -25.2615   13.7291 H         1 UNK         0.3133 
    112 H112      -52.7475  -23.1192   15.2481 H         1 UNK         0.0566 
    113 H113      -52.8306  -23.0276   17.7535 H         1 UNK         0.0814 
    114 H114      -54.4337  -23.1219   17.0426 H         1 UNK         0.0814 
    115 H115      -53.7232  -24.5484   17.7792 H         1 UNK         0.0814 
    116 H116      -50.8027  -24.1316   15.4693 H         1 UNK         0.3091 
    117 H117      -49.4056  -26.5781   17.4048 H         1 UNK         0.0702 
    118 H118      -50.2866  -28.2823   15.8346 H         1 UNK         0.0785 
    119 H119      -50.0481  -27.2013   14.4716 H         1 UNK         0.0785 
    120 H120      -48.6577  -27.8273   15.3578 H         1 UNK         0.0785 
    121 H121      -48.4697  -25.3277   14.9889 H         1 UNK         0.2998 
    122 H122      -47.5541  -22.2189   16.4868 H         1 UNK         0.0697 
    123 H123      -45.8754  -24.5482   15.4054 H         1 UNK         0.0825 
    124 H124      -45.6505  -23.7449   16.9511 H         1 UNK         0.0825 
    125 H125      -45.3781  -22.8586   15.4596 H         1 UNK         0.0825 
    126 H126      -47.3947  -23.3370   13.8232 H         1 UNK         0.3029 
    127 H127      -50.5006  -21.9958   12.6883 H         1 UNK         0.0897 
    128 H128      -49.0318  -20.8826   11.0439 H         1 UNK         0.0792 
    129 H129      -47.6182  -21.1609   12.0592 H         1 UNK         0.0792 
    130 H130      -48.8938  -20.0742   12.5963 H         1 UNK         0.0792 
    131 H131      -48.4507  -23.3866   11.2921 H         1 UNK         0.3086 
    132 H132      -49.5391  -26.6953   12.2109 H         1 UNK         0.0583 
    133 H133      -51.1751  -25.9670   10.4279 H         1 UNK         0.1020 
    134 H134      -49.8419  -25.3283    9.5018 H         1 UNK         0.1020 
    135 H135      -50.8837  -29.6979   10.3284 H         1 UNK         0.0694 
    136 H136      -51.5496  -28.2920   11.1108 H         1 UNK         0.0694 
    137 H137      -47.5379  -25.9905   10.3816 H         1 UNK         0.2989 
    138 H138      -44.8587  -25.7554   12.7609 H         1 UNK         0.1055 
    139 H139      -45.3217  -28.1613   12.3242 H         1 UNK         0.0806 
    140 H140      -44.0722  -27.5652   11.2434 H         1 UNK         0.0806 
    141 H141      -45.7117  -27.8113   10.6457 H         1 UNK         0.0806 
    142 H142      -45.4829  -25.4532    9.8625 H         1 UNK         0.3061 
    143 H143      -44.8248  -21.9832    9.9033 H         1 UNK         0.0734 
    144 H144      -42.4915  -22.8762    9.7779 H         1 UNK         0.0832 
    145 H145      -43.1113  -22.4882    8.1825 H         1 UNK         0.0832 
    146 H146      -43.0296  -24.1688    8.7153 H         1 UNK         0.0832 
    147 H147      -45.2945  -23.7371    7.7240 H         1 UNK         0.3156 
    148 H148      -48.8633  -23.8142    7.9572 H         1 UNK         0.0589 
    149 H149      -46.9654  -22.4232    6.0048 H         1 UNK         0.0808 
    150 H150      -48.6674  -22.7970    5.7350 H         1 UNK         0.0808 
    151 H151      -48.2099  -21.6158    6.9494 H         1 UNK         0.0808 
    152 H152      -47.7191  -25.0121    5.9257 H         1 UNK         0.3098 
    153 H153      -46.5629  -27.1253    5.7150 H         1 UNK         0.0720 
    154 H154      -46.5112  -29.4362    6.6302 H         1 UNK         0.0791 
    155 H155      -47.0864  -28.8590    8.1939 H         1 UNK         0.0791 
    156 H156      -45.5048  -28.3726    7.6009 H         1 UNK         0.0791 
    157 H157      -49.0199  -28.3268    6.8029 H         1 UNK         0.3028 
@<TRIPOS>BOND
     1    1    2 1    
     2    1   82 1    
     3    1   83 1    
     4    1   84 1    
     5    2    3 2    
     6    2    4 am   BACKBONE|DICT|INTERRES
     7    4    5 1    
     8    4   85 1    
     9    5    6 1    
    10    5   80 1    
    11    5   86 1    
    12    6    7 1    
    13    6   87 1    
    14    6   88 1    
    15    7    8 1    
    16    8    9 1    
    17    8   89 1    
    18    8   90 1    
    19    9   10 ar   
    20    9   14 ar   
    21   10   11 ar   
    22   10   91 1    
    23   11   12 ar   
    24   11   58 1    
    25   12   13 ar   
    26   12   92 1    
    27   13   14 ar   
    28   13   15 1    
    29   14   93 1    
    30   15   16 1    
    31   15   94 1    
    32   15   95 1    
    33   16   17 1    
    34   17   18 1    
    35   17   96 1    
    36   17   97 1    
    37   18   19 1    
    38   18   22 1    
    39   18   98 1    
    40   19   20 am   BACKBONE|DICT|INTERRES
    41   19   21 2    
    42   20   99 1    
    43   20  100 1    
    44   22   23 am   BACKBONE|DICT|INTERRES
    45   22  101 1    
    46   23   24 2    
    47   23   25 1    
    48   25   26 1    
    49   25   27 1    
    50   25  102 1    
    51   26  103 1    
    52   26  104 1    
    53   26  105 1    
    54   27   28 am   BACKBONE|DICT|INTERRES
    55   27  106 1    
    56   28   29 2    
    57   28   30 1    
    58   30   31 1    
    59   30   32 1    
    60   30  107 1    
    61   31  108 1    
    62   31  109 1    
    63   31  110 1    
    64   32   33 am   BACKBONE|DICT|INTERRES
    65   32  111 1    
    66   33   34 2    
    67   33   35 1    
    68   35   36 1    
    69   35   37 1    
    70   35  112 1    
    71   36  113 1    
    72   36  114 1    
    73   36  115 1    
    74   37   38 am   BACKBONE|DICT|INTERRES
    75   37  116 1    
    76   38   39 2    
    77   38   40 1    
    78   40   41 1    
    79   40   42 1    
    80   40  117 1    
    81   41  118 1    
    82   41  119 1    
    83   41  120 1    
    84   42   43 am   BACKBONE|DICT|INTERRES
    85   42  121 1    
    86   43   44 2    
    87   43   45 1    
    88   45   46 1    
    89   45   47 1    
    90   45  122 1    
    91   46  123 1    
    92   46  124 1    
    93   46  125 1    
    94   47   48 am   BACKBONE|DICT|INTERRES
    95   47  126 1    
    96   48   49 2    
    97   48   50 1    
    98   50   51 1    
    99   50   52 1    
   100   50  127 1    
   101   51  128 1    
   102   51  129 1    
   103   51  130 1    
   104   52   53 am   BACKBONE|DICT|INTERRES
   105   52  131 1    
   106   53   54 2    
   107   53   55 1    
   108   55   56 1    
   109   55   59 1    
   110   55  132 1    
   111   56   57 1    
   112   56  133 1    
   113   56  134 1    
   114   57   58 1    
   115   58  135 1    
   116   58  136 1    
   117   59   60 am   BACKBONE|DICT|INTERRES
   118   59  137 1    
   119   60   61 2    
   120   60   62 1    
   121   62   63 1    
   122   62   64 1    
   123   62  138 1    
   124   63  139 1    
   125   63  140 1    
   126   63  141 1    
   127   64   65 am   BACKBONE|DICT|INTERRES
   128   64  142 1    
   129   65   66 2    
   130   65   67 1    
   131   67   68 1    
   132   67   69 1    
   133   67  143 1    
   134   68  144 1    
   135   68  145 1    
   136   68  146 1    
   137   69   70 am   BACKBONE|DICT|INTERRES
   138   69  147 1    
   139   70   71 2    
   140   70   72 1    
   141   72   73 1    
   142   72   74 1    
   143   72  148 1    
   144   73  149 1    
   145   73  150 1    
   146   73  151 1    
   147   74   75 am   BACKBONE|DICT|INTERRES
   148   74  152 1    
   149   75   76 2    
   150   75   77 1    
   151   77   78 1    
   152   77   79 1    
   153   77  153 1    
   154   78  154 1    
   155   78  155 1    
   156   78  156 1    
   157   79   80 am   BACKBONE|DICT|INTERRES
   158   79  157 1    
   159   80   81 2    
@<TRIPOS>SUBSTRUCTURE
     1 UNK         1 GROUP             0       ****    0 ROOT    
