@<TRIPOS>MOLECULE
3R207
157   159    1
SMALL
USER_CHARGES


@<TRIPOS>ATOM
      1 CA        -53.8072  -31.0429    4.1799 C.3       0 UNK        -0.1975 
      2 C         -52.8498  -30.2089    5.0184 C.2       0 UNK         0.4852 
      3 O         -53.2885  -29.2985    5.7228 O.2       0 UNK        -0.5216 
      4 N         -51.5486  -30.5185    4.9536 N.am      1 UNK        -0.4461 
      5 CA        -50.4823  -29.8014    5.6596 C.3       1 UNK         0.0864 
      6 C6        -49.1605  -30.6114    5.6847 C.3       14 UNK        -0.0898 
      7 S7        -49.3393  -32.1766    6.6103 S.3       14 UNK        -0.2598 
      8 C8        -48.5711  -31.7741    8.2176 C.3       14 UNK         0.0286 
      9 C9        -49.1464  -30.5041    8.8298 C.ar      14 UNK        -0.0844 
     10 C10       -48.3510  -29.3619    8.9558 C.ar      14 UNK        -0.0881 
     11 C11       -48.8851  -28.1722    9.4606 C.ar      14 UNK        -0.0643 
     12 C12       -50.2351  -28.1292    9.8266 C.ar      14 UNK        -0.0930 
     13 C13       -51.0445  -29.2623    9.6905 C.ar      14 UNK        -0.0827 
     14 C14       -50.4870  -30.4537    9.2196 C.ar      14 UNK        -0.1249 
     15 C15       -52.5386  -29.1894    9.9641 C.3       14 UNK         0.0141 
     16 S16       -52.9954  -30.0323   11.5085 S.3       14 UNK        -0.2313 
     17 C17       -54.8046  -30.1461   11.3017 C.3       14 UNK        -0.0915 
     18 CA        -55.5432  -28.8013   11.5644 C.3       13 UNK         0.0968 
     19 C         -57.0590  -28.8457   11.1980 C.2       13 UNK         0.5732 
     20 N         -57.9167  -28.0577   11.8384 N.am      13 UNK        -0.7310 
     21 O         -57.4661  -29.5787   10.2995 O.2       13 UNK        -0.5035 
     22 N         -55.2647  -28.2232   12.8881 N.am      13 UNK        -0.4233 
     23 C         -55.6321  -28.7326   14.0737 C.2       13 UNK         0.4989 
     24 O         -56.1473  -29.8423   14.2154 O.2       13 UNK        -0.4996 
     25 CA        -55.4353  -27.8461   15.3202 C.3       12 UNK         0.0216 
     26 CB        -54.4141  -28.4609   16.2898 C.3       12 UNK        -0.1964 
     27 N         -55.0699  -26.4572   15.0059 N.am      12 UNK        -0.4276 
     28 C         -55.9386  -25.5699   14.4947 C.2       12 UNK         0.5020 
     29 O         -57.1179  -25.8371   14.2562 O.2       12 UNK        -0.5489 
     30 CA        -55.4152  -24.1661   14.1528 C.3       11 UNK         0.0294 
     31 CB        -55.4170  -23.2750   15.4051 C.3       11 UNK        -0.2019 
     32 N         -54.0847  -24.1332   13.5431 N.am      11 UNK        -0.4493 
     33 C         -53.6766  -24.7711   12.4385 C.2       11 UNK         0.4932 
     34 O         -54.3756  -25.5654   11.8105 O.2       11 UNK        -0.5029 
     35 CA        -52.2376  -24.4919   11.9555 C.3       10 UNK         0.0280 
     36 CB        -52.1692  -23.2011   11.1180 C.3       10 UNK        -0.1976 
     37 N         -51.2350  -24.4953   13.0306 N.am      10 UNK        -0.4242 
     38 C         -51.1196  -23.6751   14.0876 C.2       10 UNK         0.5072 
     39 O         -51.7943  -22.6547   14.2400 O.2       10 UNK        -0.5224 
     40 CA        -50.1464  -24.1214   15.1983 C.3       9 UNK         0.0343 
     41 CB        -50.5052  -23.5222   16.5741 C.3       9 UNK        -0.2003 
     42 N         -50.0097  -25.5823   15.3015 N.am      9 UNK        -0.4272 
     43 C         -50.9875  -26.4888   15.4793 C.2       9 UNK         0.4988 
     44 O         -52.1764  -26.1929   15.6178 O.2       9 UNK        -0.5108 
     45 CA        -50.6018  -27.9809   15.4120 C.3       8 UNK         0.0248 
     46 CB        -51.1194  -28.5872   14.0958 C.3       8 UNK        -0.2001 
     47 N         -49.1629  -28.2374   15.4921 N.am      8 UNK        -0.4140 
     48 C         -48.4051  -28.1416   16.5932 C.2       8 UNK         0.5028 
     49 O         -48.8535  -27.9283   17.7198 O.2       8 UNK        -0.5428 
     50 CA        -46.8786  -28.2637   16.3891 C.3       7 UNK         0.0264 
     51 CB        -46.4128  -29.7026   16.6647 C.3       7 UNK        -0.1988 
     52 N         -46.4128  -27.8474   15.0544 N.am      7 UNK        -0.4454 
     53 C         -46.6096  -26.6286   14.5282 C.2       7 UNK         0.5027 
     54 O         -47.1798  -25.7246   15.1435 O.2       7 UNK        -0.5083 
     55 CA        -46.1791  -26.4108   13.0603 C.3       6 UNK         0.0844 
     56 C56       -46.9539  -27.3616   12.1094 C.3       14 UNK        -0.0967 
     57 S57       -46.4310  -27.1742   10.3725 S.3       14 UNK        -0.2604 
     58 C58       -48.0278  -26.9127    9.5327 C.3       14 UNK         0.0134 
     59 N         -46.3750  -25.0085   12.6833 N.am      6 UNK        -0.4116 
     60 C         -45.6184  -23.9758   13.0662 C.2       5 UNK         0.5034 
     61 O         -44.5453  -24.0977   13.6610 O.2       5 UNK        -0.5045 
     62 CA        -46.1689  -22.5732   12.7295 C.3       5 UNK         0.0224 
     63 CB        -45.2260  -21.4422   13.1825 C.3       5 UNK        -0.1978 
     64 N         -46.4688  -22.3952   11.3046 N.am      5 UNK        -0.4737 
     65 C         -47.5135  -22.9141   10.6481 C.2       4 UNK         0.5027 
     66 O         -48.3555  -23.6506   11.1699 O.2       4 UNK        -0.5211 
     67 CA        -47.6013  -22.5732    9.1571 C.3       4 UNK         0.0297 
     68 CB        -46.5423  -23.3470    8.3511 C.3       4 UNK        -0.1993 
     69 N         -48.9264  -22.9135    8.6477 N.am      4 UNK        -0.4486 
     70 C         -49.6426  -22.1756    7.7947 C.2       3 UNK         0.4961 
     71 O         -49.2698  -21.0926    7.3398 O.2       3 UNK        -0.5105 
     72 CA        -50.9694  -22.7930    7.3205 C.3       3 UNK         0.0299 
     73 CB        -51.9131  -21.7567    6.6827 C.3       3 UNK        -0.1972 
     74 N         -50.6846  -23.8483    6.3483 N.am      3 UNK        -0.4305 
     75 C         -50.3569  -25.1043    6.6713 C.2       2 UNK         0.5006 
     76 O         -50.3696  -25.5415    7.8240 O.2       2 UNK        -0.5106 
     77 CA        -49.8854  -26.0005    5.5228 C.3       2 UNK         0.0296 
     78 CB        -48.4010  -25.7401    5.2033 C.3       2 UNK        -0.2002 
     79 N         -50.0720  -27.3974    5.9017 N.am      2 UNK        -0.4032 
     80 C         -50.2608  -28.4068    5.0445 C.2       1 UNK         0.5000 
     81 O         -50.2468  -28.2785    3.8164 O.2       1 UNK        -0.5238 
     82 H82       -53.2877  -31.8194    3.6186 H         1 UNK         0.0889 
     83 H83       -54.3352  -30.4068    3.4700 H         1 UNK         0.0889 
     84 H84       -54.5450  -31.5245    4.8211 H         1 UNK         0.0889 
     85 H85       -51.2424  -31.2683    4.3508 H         1 UNK         0.3028 
     86 H86       -50.8195  -29.6531    6.6854 H         1 UNK         0.0864 
     87 H87       -48.3501  -30.0275    6.1248 H         1 UNK         0.0720 
     88 H88       -48.8383  -30.8484    4.6690 H         1 UNK         0.0720 
     89 H89       -47.4920  -31.6861    8.0816 H         1 UNK         0.0814 
     90 H90       -48.7263  -32.6069    8.9048 H         1 UNK         0.0814 
     91 H91       -47.3165  -29.3892    8.6416 H         1 UNK         0.1469 
     92 H92       -50.6660  -27.2002   10.1734 H         1 UNK         0.1381 
     93 H93       -51.1124  -31.3283    9.1005 H         1 UNK         0.1206 
     94 H94       -53.0718  -29.6418    9.1262 H         1 UNK         0.0813 
     95 H95       -52.8678  -28.1503   10.0123 H         1 UNK         0.0813 
     96 H96       -55.0038  -30.5066   10.2911 H         1 UNK         0.0638 
     97 H97       -55.1756  -30.9227   11.9716 H         1 UNK         0.0638 
     98 H98       -55.1371  -28.0783   10.8576 H         1 UNK         0.0568 
     99 H99       -57.6014  -27.4323   12.5670 H         1 UNK         0.3450 
    100 H100      -58.8918  -28.0859   11.5864 H         1 UNK         0.3450 
    101 H101      -54.8789  -27.2869   12.8603 H         1 UNK         0.2987 
    102 H102      -56.3959  -27.8230   15.8396 H         1 UNK         0.0766 
    103 H103      -53.4519  -28.6262   15.8123 H         1 UNK         0.0798 
    104 H104      -54.7603  -29.4289   16.6542 H         1 UNK         0.0798 
    105 H105      -54.2543  -27.8246   17.1605 H         1 UNK         0.0798 
    106 H106      -54.1030  -26.1837   15.1701 H         1 UNK         0.3198 
    107 H107      -56.1063  -23.7333   13.4266 H         1 UNK         0.0843 
    108 H108      -55.1643  -22.2434   15.1590 H         1 UNK         0.0831 
    109 H109      -54.7012  -23.6263   16.1498 H         1 UNK         0.0831 
    110 H110      -56.4009  -23.2628   15.8764 H         1 UNK         0.0831 
    111 H111      -53.4062  -23.5045   13.9685 H         1 UNK         0.3133 
    112 H112      -51.9631  -25.3189   11.2987 H         1 UNK         0.0566 
    113 H113      -52.8393  -23.2612   10.2597 H         1 UNK         0.0814 
    114 H114      -52.4603  -22.3219   11.6931 H         1 UNK         0.0814 
    115 H115      -51.1619  -23.0320   10.7377 H         1 UNK         0.0814 
    116 H116      -50.6241  -25.2982   13.0292 H         1 UNK         0.3091 
    117 H117      -49.1652  -23.7392   14.9127 H         1 UNK         0.0702 
    118 H118      -49.7971  -23.8392   17.3398 H         1 UNK         0.0785 
    119 H119      -51.5036  -23.8213   16.8957 H         1 UNK         0.0785 
    120 H120      -50.4840  -22.4321   16.5464 H         1 UNK         0.0785 
    121 H121      -49.0499  -25.9100   15.2335 H         1 UNK         0.2998 
    122 H122      -51.0902  -28.4826   16.2496 H         1 UNK         0.0697 
    123 H123      -51.0124  -29.6720   14.0900 H         1 UNK         0.0825 
    124 H124      -52.1764  -28.3696   13.9400 H         1 UNK         0.0825 
    125 H125      -50.5877  -28.1955   13.2277 H         1 UNK         0.0825 
    126 H126      -48.6981  -28.4576   14.6245 H         1 UNK         0.3029 
    127 H127      -46.4054  -27.6048   17.1205 H         1 UNK         0.0897 
    128 H128      -45.3263  -29.7836   16.6257 H         1 UNK         0.0792 
    129 H129      -46.7235  -30.0296   17.6582 H         1 UNK         0.0792 
    130 H130      -46.8299  -30.4082   15.9449 H         1 UNK         0.0792 
    131 H131      -45.9235  -28.5442   14.5101 H         1 UNK         0.3086 
    132 H132      -45.1135  -26.6399   12.9931 H         1 UNK         0.0583 
    133 H133      -46.7925  -28.4070   12.3775 H         1 UNK         0.1020 
    134 H134      -48.0297  -27.1923   12.1880 H         1 UNK         0.1020 
    135 H135      -48.5650  -26.1005   10.0240 H         1 UNK         0.0694 
    136 H136      -47.8318  -26.5770    8.5143 H         1 UNK         0.0694 
    137 H137      -47.2265  -24.7880   12.1754 H         1 UNK         0.2989 
    138 H138      -47.1015  -22.4667   13.2888 H         1 UNK         0.1055 
    139 H139      -45.0233  -21.5061   14.2526 H         1 UNK         0.0806 
    140 H140      -44.2664  -21.4845   12.6656 H         1 UNK         0.0806 
    141 H141      -45.6645  -20.4611   12.9986 H         1 UNK         0.0806 
    142 H142      -45.8083  -21.8366   10.7826 H         1 UNK         0.3061 
    143 H143      -47.4239  -21.5006    9.0519 H         1 UNK         0.0734 
    144 H144      -46.6085  -23.1169    7.2876 H         1 UNK         0.0832 
    145 H145      -45.5324  -23.0910    8.6732 H         1 UNK         0.0832 
    146 H146      -46.6562  -24.4251    8.4662 H         1 UNK         0.0832 
    147 H147      -49.3173  -23.7808    8.9983 H         1 UNK         0.3156 
    148 H148      -51.4793  -23.2181    8.1870 H         1 UNK         0.0589 
    149 H149      -52.8636  -22.2095    6.3997 H         1 UNK         0.0808 
    150 H150      -52.1348  -20.9506    7.3832 H         1 UNK         0.0808 
    151 H151      -51.4796  -21.3036    5.7902 H         1 UNK         0.0808 
    152 H152      -50.6094  -23.5587    5.3833 H         1 UNK         0.3098 
    153 H153      -50.4957  -25.7791    4.6444 H         1 UNK         0.0720 
    154 H154      -48.2329  -24.6984    4.9272 H         1 UNK         0.0791 
    155 H155      -47.7613  -25.9576    6.0595 H         1 UNK         0.0791 
    156 H156      -48.0608  -26.3531    4.3685 H         1 UNK         0.0791 
    157 H157      -50.1380  -27.5513    6.9016 H         1 UNK         0.3028 
@<TRIPOS>BOND
     1    1    2 1    
     2    1   82 1    
     3    1   83 1    
     4    1   84 1    
     5    2    3 2    
     6    2    4 am   BACKBONE|DICT|INTERRES
     7    4    5 1    
     8    4   85 1    
     9    5    6 1    
    10    5   80 1    
    11    5   86 1    
    12    6    7 1    
    13    6   87 1    
    14    6   88 1    
    15    7    8 1    
    16    8    9 1    
    17    8   89 1    
    18    8   90 1    
    19    9   10 ar   
    20    9   14 ar   
    21   10   11 ar   
    22   10   91 1    
    23   11   12 ar   
    24   11   58 1    
    25   12   13 ar   
    26   12   92 1    
    27   13   14 ar   
    28   13   15 1    
    29   14   93 1    
    30   15   16 1    
    31   15   94 1    
    32   15   95 1    
    33   16   17 1    
    34   17   18 1    
    35   17   96 1    
    36   17   97 1    
    37   18   19 1    
    38   18   22 1    
    39   18   98 1    
    40   19   20 am   BACKBONE|DICT|INTERRES
    41   19   21 2    
    42   20   99 1    
    43   20  100 1    
    44   22   23 am   BACKBONE|DICT|INTERRES
    45   22  101 1    
    46   23   24 2    
    47   23   25 1    
    48   25   26 1    
    49   25   27 1    
    50   25  102 1    
    51   26  103 1    
    52   26  104 1    
    53   26  105 1    
    54   27   28 am   BACKBONE|DICT|INTERRES
    55   27  106 1    
    56   28   29 2    
    57   28   30 1    
    58   30   31 1    
    59   30   32 1    
    60   30  107 1    
    61   31  108 1    
    62   31  109 1    
    63   31  110 1    
    64   32   33 am   BACKBONE|DICT|INTERRES
    65   32  111 1    
    66   33   34 2    
    67   33   35 1    
    68   35   36 1    
    69   35   37 1    
    70   35  112 1    
    71   36  113 1    
    72   36  114 1    
    73   36  115 1    
    74   37   38 am   BACKBONE|DICT|INTERRES
    75   37  116 1    
    76   38   39 2    
    77   38   40 1    
    78   40   41 1    
    79   40   42 1    
    80   40  117 1    
    81   41  118 1    
    82   41  119 1    
    83   41  120 1    
    84   42   43 am   BACKBONE|DICT|INTERRES
    85   42  121 1    
    86   43   44 2    
    87   43   45 1    
    88   45   46 1    
    89   45   47 1    
    90   45  122 1    
    91   46  123 1    
    92   46  124 1    
    93   46  125 1    
    94   47   48 am   BACKBONE|DICT|INTERRES
    95   47  126 1    
    96   48   49 2    
    97   48   50 1    
    98   50   51 1    
    99   50   52 1    
   100   50  127 1    
   101   51  128 1    
   102   51  129 1    
   103   51  130 1    
   104   52   53 am   BACKBONE|DICT|INTERRES
   105   52  131 1    
   106   53   54 2    
   107   53   55 1    
   108   55   56 1    
   109   55   59 1    
   110   55  132 1    
   111   56   57 1    
   112   56  133 1    
   113   56  134 1    
   114   57   58 1    
   115   58  135 1    
   116   58  136 1    
   117   59   60 am   BACKBONE|DICT|INTERRES
   118   59  137 1    
   119   60   61 2    
   120   60   62 1    
   121   62   63 1    
   122   62   64 1    
   123   62  138 1    
   124   63  139 1    
   125   63  140 1    
   126   63  141 1    
   127   64   65 am   BACKBONE|DICT|INTERRES
   128   64  142 1    
   129   65   66 2    
   130   65   67 1    
   131   67   68 1    
   132   67   69 1    
   133   67  143 1    
   134   68  144 1    
   135   68  145 1    
   136   68  146 1    
   137   69   70 am   BACKBONE|DICT|INTERRES
   138   69  147 1    
   139   70   71 2    
   140   70   72 1    
   141   72   73 1    
   142   72   74 1    
   143   72  148 1    
   144   73  149 1    
   145   73  150 1    
   146   73  151 1    
   147   74   75 am   BACKBONE|DICT|INTERRES
   148   74  152 1    
   149   75   76 2    
   150   75   77 1    
   151   77   78 1    
   152   77   79 1    
   153   77  153 1    
   154   78  154 1    
   155   78  155 1    
   156   78  156 1    
   157   79   80 am   BACKBONE|DICT|INTERRES
   158   79  157 1    
   159   80   81 2    
@<TRIPOS>SUBSTRUCTURE
     1 UNK         1 GROUP             0       ****    0 ROOT    
