@<TRIPOS>MOLECULE
3R207
157   159    1
SMALL
USER_CHARGES


@<TRIPOS>ATOM
      1 CA        -45.5323  -28.9344    4.5147 C.3       0 UNK        -0.1975 
      2 C         -45.5970  -29.4785    5.9401 C.2       0 UNK         0.4852 
      3 O         -44.6337  -30.1011    6.3836 O.2       0 UNK        -0.5216 
      4 N         -46.6938  -29.3006    6.6917 N.am      1 UNK        -0.4461 
      5 CA        -47.9126  -28.5407    6.3790 C.3       1 UNK         0.0864 
      6 C6        -49.0128  -28.7320    7.4593 C.3       14 UNK        -0.0898 
      7 S7        -49.2546  -30.4768    7.9598 S.3       14 UNK        -0.2598 
      8 C8        -51.0392  -30.7468    7.7182 C.3       14 UNK         0.0286 
      9 C9        -51.8726  -29.9659    8.7241 C.ar      14 UNK        -0.0844 
     10 C10       -52.4702  -28.7618    8.3450 C.ar      14 UNK        -0.0881 
     11 C11       -53.2171  -28.0209    9.2624 C.ar      14 UNK        -0.0643 
     12 C12       -53.3878  -28.5047   10.5623 C.ar      14 UNK        -0.0930 
     13 C13       -52.7994  -29.7086   10.9548 C.ar      14 UNK        -0.0827 
     14 C14       -52.0443  -30.4393   10.0305 C.ar      14 UNK        -0.1249 
     15 C15       -52.9523  -30.1823   12.3913 C.3       14 UNK         0.0141 
     16 S16       -54.5514  -31.0121   12.6569 S.3       14 UNK        -0.2313 
     17 C17       -55.0711  -30.3238   14.2696 C.3       14 UNK        -0.0915 
     18 CA        -56.3624  -29.4661   14.1723 C.3       13 UNK         0.0968 
     19 C         -56.8289  -28.9695   15.5725 C.2       13 UNK         0.5732 
     20 N         -57.0428  -27.6769   15.7983 N.am      13 UNK        -0.7310 
     21 O         -57.0259  -29.7809   16.4741 O.2       13 UNK        -0.5035 
     22 N         -56.2357  -28.3833   13.1859 N.am      13 UNK        -0.4233 
     23 C         -57.2305  -27.9562   12.3960 C.2       13 UNK         0.4989 
     24 O         -58.3421  -28.4877   12.3586 O.2       13 UNK        -0.4996 
     25 CA        -56.9466  -26.7402   11.4851 C.3       12 UNK         0.0216 
     26 CB        -58.2216  -25.9317   11.1631 C.3       12 UNK        -0.1964 
     27 N         -55.8876  -25.8477   11.9756 N.am      12 UNK        -0.4276 
     28 C         -55.8511  -25.2152   13.1563 C.2       12 UNK         0.5020 
     29 O         -56.7403  -25.2733   14.0096 O.2       12 UNK        -0.5489 
     30 CA        -54.5678  -24.4238   13.4515 C.3       11 UNK         0.0294 
     31 CB        -54.8516  -22.9141   13.4949 C.3       11 UNK        -0.2019 
     32 N         -53.9241  -24.8378   14.7005 N.am      11 UNK        -0.4493 
     33 C         -53.5700  -26.0915   15.0195 C.2       11 UNK         0.4932 
     34 O         -53.8377  -27.0841   14.3376 O.2       11 UNK        -0.5029 
     35 CA        -52.7616  -26.2385   16.3157 C.3       10 UNK         0.0280 
     36 CB        -53.5761  -26.9219   17.4330 C.3       10 UNK        -0.1976 
     37 N         -51.4728  -26.8835   16.0401 N.am      10 UNK        -0.4242 
     38 C         -51.1912  -28.1844   15.8642 C.2       10 UNK         0.5072 
     39 O         -51.9784  -29.1040   16.0917 O.2       10 UNK        -0.5224 
     40 CA        -49.7798  -28.5456   15.3548 C.3       9 UNK         0.0343 
     41 CB        -49.8578  -29.4883   14.1416 C.3       9 UNK        -0.2003 
     42 N         -48.9623  -27.3838   14.9914 N.am      9 UNK        -0.4272 
     43 C         -48.2174  -26.6702   15.8467 C.2       9 UNK         0.4988 
     44 O         -48.1315  -26.9192   17.0494 O.2       9 UNK        -0.5108 
     45 CA        -47.4522  -25.4624   15.2735 C.3       8 UNK         0.0248 
     46 CB        -46.1023  -25.9124   14.6945 C.3       8 UNK        -0.2001 
     47 N         -48.2033  -24.7093   14.2617 N.am      8 UNK        -0.4140 
     48 C         -49.3602  -24.0713   14.4995 C.2       8 UNK         0.5028 
     49 O         -49.9245  -24.0579   15.5945 O.2       8 UNK        -0.5428 
     50 CA        -50.0252  -23.3612   13.3075 C.3       7 UNK         0.0264 
     51 CB        -49.3460  -22.0131   13.0200 C.3       7 UNK        -0.1988 
     52 N         -50.0394  -24.1739   12.0901 N.am      7 UNK        -0.4454 
     53 C         -50.6414  -25.3692   11.9879 C.2       7 UNK         0.5027 
     54 O         -51.2535  -25.9066   12.9061 O.2       7 UNK        -0.5083 
     55 CA        -50.4725  -26.1238   10.6559 C.3       6 UNK         0.0844 
     56 C56       -51.3011  -25.4909    9.5035 C.3       14 UNK        -0.0967 
     57 S57       -53.0935  -25.3213    9.8427 S.3       14 UNK        -0.2604 
     58 C58       -53.7992  -26.6772    8.8569 C.3       14 UNK         0.0134 
     59 N         -49.0461  -26.2425   10.3287 N.am      6 UNK        -0.4116 
     60 C         -48.1360  -26.8741   11.0913 C.2       5 UNK         0.5034 
     61 O         -48.4136  -27.5247   12.0960 O.2       5 UNK        -0.5045 
     62 CA        -46.6544  -26.7047   10.7200 C.3       5 UNK         0.0224 
     63 CB        -46.1028  -27.9376    9.9946 C.3       5 UNK        -0.1978 
     64 N         -46.4067  -25.4910    9.9387 N.am      5 UNK        -0.4737 
     65 C         -46.3734  -24.2728   10.4984 C.2       4 UNK         0.5027 
     66 O         -46.5424  -24.0717   11.7027 O.2       4 UNK        -0.5211 
     67 CA        -46.1659  -23.0824    9.5516 C.3       4 UNK         0.0297 
     68 CB        -44.7378  -23.0714    8.9826 C.3       4 UNK        -0.1993 
     69 N         -47.1330  -23.0543    8.4531 N.am      4 UNK        -0.4486 
     70 C         -48.4598  -22.9463    8.5841 C.2       3 UNK         0.4961 
     71 O         -49.0326  -22.9025    9.6729 O.2       3 UNK        -0.5105 
     72 CA        -49.3032  -22.8953    7.2945 C.3       3 UNK         0.0299 
     73 CB        -49.3358  -21.4669    6.7167 C.3       3 UNK        -0.1972 
     74 N         -48.9382  -23.8903    6.2720 N.am      3 UNK        -0.4305 
     75 C         -47.8117  -23.9693    5.5488 C.2       2 UNK         0.5006 
     76 O         -46.8660  -23.1867    5.6671 O.2       2 UNK        -0.5106 
     77 CA        -47.7260  -25.1356    4.5428 C.3       2 UNK         0.0296 
     78 CB        -46.3420  -25.2202    3.8637 C.3       2 UNK        -0.2002 
     79 N         -48.0900  -26.4526    5.0920 N.am      2 UNK        -0.4032 
     80 C         -47.5857  -27.0409    6.1889 C.2       1 UNK         0.5000 
     81 O         -46.8760  -26.4671    7.0205 O.2       1 UNK        -0.5238 
     82 H82       -46.4980  -28.9619    4.0131 H         1 UNK         0.0889 
     83 H83       -44.8426  -29.5302    3.9173 H         1 UNK         0.0889 
     84 H84       -45.1653  -27.9091    4.5205 H         1 UNK         0.0889 
     85 H85       -46.6973  -29.7130    7.6128 H         1 UNK         0.3028 
     86 H86       -48.3069  -28.9396    5.4428 H         1 UNK         0.0864 
     87 H87       -48.7797  -28.1728    8.3644 H         1 UNK         0.0720 
     88 H88       -49.9550  -28.3232    7.0942 H         1 UNK         0.0720 
     89 H89       -51.2507  -31.8117    7.8246 H         1 UNK         0.0814 
     90 H90       -51.3130  -30.4846    6.6950 H         1 UNK         0.0814 
     91 H91       -52.3385  -28.3910    7.3380 H         1 UNK         0.1469 
     92 H92       -53.9495  -27.9282   11.2830 H         1 UNK         0.1381 
     93 H93       -51.5768  -31.3675   10.3300 H         1 UNK         0.1206 
     94 H94       -52.8463  -29.3228   13.0549 H         1 UNK         0.0813 
     95 H95       -52.1499  -30.8718   12.6556 H         1 UNK         0.0813 
     96 H96       -54.2623  -29.7443   14.7157 H         1 UNK         0.0638 
     97 H97       -55.2316  -31.1691   14.9410 H         1 UNK         0.0638 
     98 H98       -57.1512  -30.1416   13.8368 H         1 UNK         0.0568 
     99 H99       -57.3574  -27.3872   16.7096 H         1 UNK         0.3450 
    100 H100      -56.8994  -26.9824   15.0727 H         1 UNK         0.3450 
    101 H101      -55.3688  -27.8593   13.2405 H         1 UNK         0.2987 
    102 H102      -56.5821  -27.1611   10.5480 H         1 UNK         0.0766 
    103 H103      -58.0043  -25.0960   10.4981 H         1 UNK         0.0798 
    104 H104      -58.6833  -25.5307   12.0661 H         1 UNK         0.0798 
    105 H105      -58.9673  -26.5524   10.6648 H         1 UNK         0.0798 
    106 H106      -55.0923  -25.7349   11.3597 H         1 UNK         0.3198 
    107 H107      -53.8455  -24.6093   12.6547 H         1 UNK         0.0843 
    108 H108      -55.3124  -22.5780   12.5649 H         1 UNK         0.0831 
    109 H109      -55.5325  -22.6559   14.3072 H         1 UNK         0.0831 
    110 H110      -53.9347  -22.3392   13.6260 H         1 UNK         0.0831 
    111 H111      -53.6841  -24.0972   15.3426 H         1 UNK         0.3133 
    112 H112      -52.5014  -25.2409   16.6733 H         1 UNK         0.0566 
    113 H113      -52.9694  -27.0978   18.3210 H         1 UNK         0.0814 
    114 H114      -54.4189  -26.2970   17.7299 H         1 UNK         0.0814 
    115 H115      -53.9915  -27.8774   17.1104 H         1 UNK         0.0814 
    116 H116      -50.7397  -26.2324   15.7871 H         1 UNK         0.3091 
    117 H117      -49.2825  -29.0869   16.1622 H         1 UNK         0.0702 
    118 H118      -50.4004  -30.4025   14.3844 H         1 UNK         0.0785 
    119 H119      -48.8644  -29.7835   13.8038 H         1 UNK         0.0785 
    120 H120      -50.3673  -29.0129   13.3023 H         1 UNK         0.0785 
    121 H121      -48.9517  -27.1412   14.0048 H         1 UNK         0.2998 
    122 H122      -47.2523  -24.7767   16.0995 H         1 UNK         0.0697 
    123 H123      -46.2302  -26.6741   13.9263 H         1 UNK         0.0825 
    124 H124      -45.4729  -26.3449   15.4733 H         1 UNK         0.0825 
    125 H125      -45.5524  -25.0780   14.2584 H         1 UNK         0.0825 
    126 H126      -47.7888  -24.6340   13.3384 H         1 UNK         0.3029 
    127 H127      -51.0648  -23.1677   13.5811 H         1 UNK         0.0897 
    128 H128      -49.8731  -21.4637   12.2396 H         1 UNK         0.0792 
    129 H129      -49.3344  -21.3827   13.9102 H         1 UNK         0.0792 
    130 H130      -48.3128  -22.1418   12.6950 H         1 UNK         0.0792 
    131 H131      -49.5670  -23.7848   11.2767 H         1 UNK         0.3086 
    132 H132      -50.8423  -27.1395   10.8105 H         1 UNK         0.0583 
    133 H133      -50.9398  -24.4899    9.2877 H         1 UNK         0.1020 
    134 H134      -51.1580  -26.0623    8.5856 H         1 UNK         0.1020 
    135 H135      -54.8811  -26.6949    8.9853 H         1 UNK         0.0694 
    136 H136      -53.6208  -26.4739    7.7997 H         1 UNK         0.0694 
    137 H137      -48.7062  -25.7007    9.5492 H         1 UNK         0.2989 
    138 H138      -46.1007  -26.6205   11.6562 H         1 UNK         0.1055 
    139 H139      -46.5875  -28.0855    9.0363 H         1 UNK         0.0806 
    140 H140      -46.2611  -28.8418   10.5840 H         1 UNK         0.0806 
    141 H141      -45.0311  -27.8477    9.8166 H         1 UNK         0.0806 
    142 H142      -46.3051  -25.5939    8.9335 H         1 UNK         0.3061 
    143 H143      -46.3059  -22.1706   10.1361 H         1 UNK         0.0734 
    144 H144      -44.5509  -22.1680    8.4019 H         1 UNK         0.0832 
    145 H145      -43.9977  -23.0996    9.7836 H         1 UNK         0.0832 
    146 H146      -44.5517  -23.9287    8.3343 H         1 UNK         0.0832 
    147 H147      -46.7687  -23.0937    7.5029 H         1 UNK         0.3156 
    148 H148      -50.3278  -23.1368    7.5771 H         1 UNK         0.0589 
    149 H149      -48.3459  -21.1189    6.4202 H         1 UNK         0.0808 
    150 H150      -49.9873  -21.4064    5.8449 H         1 UNK         0.0808 
    151 H151      -49.7168  -20.7596    7.4547 H         1 UNK         0.0808 
    152 H152      -49.6343  -24.6034    6.1047 H         1 UNK         0.3098 
    153 H153      -48.4577  -24.9129    3.7646 H         1 UNK         0.0720 
    154 H154      -46.0963  -24.2873    3.3544 H         1 UNK         0.0791 
    155 H155      -46.3137  -26.0110    3.1141 H         1 UNK         0.0791 
    156 H156      -45.5499  -25.4133    4.5883 H         1 UNK         0.0791 
    157 H157      -48.7086  -26.9968    4.5059 H         1 UNK         0.3028 
@<TRIPOS>BOND
     1    1    2 1    
     2    1   82 1    
     3    1   83 1    
     4    1   84 1    
     5    2    3 2    
     6    2    4 am   BACKBONE|DICT|INTERRES
     7    4    5 1    
     8    4   85 1    
     9    5    6 1    
    10    5   80 1    
    11    5   86 1    
    12    6    7 1    
    13    6   87 1    
    14    6   88 1    
    15    7    8 1    
    16    8    9 1    
    17    8   89 1    
    18    8   90 1    
    19    9   10 ar   
    20    9   14 ar   
    21   10   11 ar   
    22   10   91 1    
    23   11   12 ar   
    24   11   58 1    
    25   12   13 ar   
    26   12   92 1    
    27   13   14 ar   
    28   13   15 1    
    29   14   93 1    
    30   15   16 1    
    31   15   94 1    
    32   15   95 1    
    33   16   17 1    
    34   17   18 1    
    35   17   96 1    
    36   17   97 1    
    37   18   19 1    
    38   18   22 1    
    39   18   98 1    
    40   19   20 am   BACKBONE|DICT|INTERRES
    41   19   21 2    
    42   20   99 1    
    43   20  100 1    
    44   22   23 am   BACKBONE|DICT|INTERRES
    45   22  101 1    
    46   23   24 2    
    47   23   25 1    
    48   25   26 1    
    49   25   27 1    
    50   25  102 1    
    51   26  103 1    
    52   26  104 1    
    53   26  105 1    
    54   27   28 am   BACKBONE|DICT|INTERRES
    55   27  106 1    
    56   28   29 2    
    57   28   30 1    
    58   30   31 1    
    59   30   32 1    
    60   30  107 1    
    61   31  108 1    
    62   31  109 1    
    63   31  110 1    
    64   32   33 am   BACKBONE|DICT|INTERRES
    65   32  111 1    
    66   33   34 2    
    67   33   35 1    
    68   35   36 1    
    69   35   37 1    
    70   35  112 1    
    71   36  113 1    
    72   36  114 1    
    73   36  115 1    
    74   37   38 am   BACKBONE|DICT|INTERRES
    75   37  116 1    
    76   38   39 2    
    77   38   40 1    
    78   40   41 1    
    79   40   42 1    
    80   40  117 1    
    81   41  118 1    
    82   41  119 1    
    83   41  120 1    
    84   42   43 am   BACKBONE|DICT|INTERRES
    85   42  121 1    
    86   43   44 2    
    87   43   45 1    
    88   45   46 1    
    89   45   47 1    
    90   45  122 1    
    91   46  123 1    
    92   46  124 1    
    93   46  125 1    
    94   47   48 am   BACKBONE|DICT|INTERRES
    95   47  126 1    
    96   48   49 2    
    97   48   50 1    
    98   50   51 1    
    99   50   52 1    
   100   50  127 1    
   101   51  128 1    
   102   51  129 1    
   103   51  130 1    
   104   52   53 am   BACKBONE|DICT|INTERRES
   105   52  131 1    
   106   53   54 2    
   107   53   55 1    
   108   55   56 1    
   109   55   59 1    
   110   55  132 1    
   111   56   57 1    
   112   56  133 1    
   113   56  134 1    
   114   57   58 1    
   115   58  135 1    
   116   58  136 1    
   117   59   60 am   BACKBONE|DICT|INTERRES
   118   59  137 1    
   119   60   61 2    
   120   60   62 1    
   121   62   63 1    
   122   62   64 1    
   123   62  138 1    
   124   63  139 1    
   125   63  140 1    
   126   63  141 1    
   127   64   65 am   BACKBONE|DICT|INTERRES
   128   64  142 1    
   129   65   66 2    
   130   65   67 1    
   131   67   68 1    
   132   67   69 1    
   133   67  143 1    
   134   68  144 1    
   135   68  145 1    
   136   68  146 1    
   137   69   70 am   BACKBONE|DICT|INTERRES
   138   69  147 1    
   139   70   71 2    
   140   70   72 1    
   141   72   73 1    
   142   72   74 1    
   143   72  148 1    
   144   73  149 1    
   145   73  150 1    
   146   73  151 1    
   147   74   75 am   BACKBONE|DICT|INTERRES
   148   74  152 1    
   149   75   76 2    
   150   75   77 1    
   151   77   78 1    
   152   77   79 1    
   153   77  153 1    
   154   78  154 1    
   155   78  155 1    
   156   78  156 1    
   157   79   80 am   BACKBONE|DICT|INTERRES
   158   79  157 1    
   159   80   81 2    
@<TRIPOS>SUBSTRUCTURE
     1 UNK         1 GROUP             0       ****    0 ROOT    
