@<TRIPOS>MOLECULE
3R207
157   159    1
SMALL
USER_CHARGES


@<TRIPOS>ATOM
      1 CA        -48.5835  -30.2421    7.5988 C.3       0 UNK        -0.1975 
      2 C         -49.8149  -29.3600    7.7929 C.2       0 UNK         0.4852 
      3 O         -50.2543  -29.1894    8.9269 O.2       0 UNK        -0.5216 
      4 N         -50.4029  -28.7851    6.7328 N.am      1 UNK        -0.4461 
      5 CA        -49.9835  -28.8712    5.3241 C.3       1 UNK         0.0864 
      6 C6        -51.1308  -28.4872    4.3559 C.3       14 UNK        -0.0898 
      7 S7        -52.5132  -29.6776    4.3993 S.3       14 UNK        -0.2598 
      8 C8        -53.9392  -28.6067    4.7660 C.3       14 UNK         0.0286 
      9 C9        -54.0361  -28.2933    6.2504 C.ar      14 UNK        -0.0844 
     10 C10       -53.4956  -27.1119    6.7640 C.ar      14 UNK        -0.0881 
     11 C11       -53.5652  -26.8363    8.1333 C.ar      14 UNK        -0.0643 
     12 C12       -54.2108  -27.7383    8.9862 C.ar      14 UNK        -0.0930 
     13 C13       -54.7800  -28.9093    8.4781 C.ar      14 UNK        -0.0827 
     14 C14       -54.6810  -29.1853    7.1114 C.ar      14 UNK        -0.1249 
     15 C15       -55.5244  -29.8697    9.3925 C.3       14 UNK         0.0141 
     16 S16       -54.4220  -31.1537   10.0581 S.3       14 UNK        -0.2313 
     17 C17       -54.1316  -30.5577   11.7597 C.3       14 UNK        -0.0915 
     18 CA        -55.1750  -31.1033   12.7774 C.3       13 UNK         0.0968 
     19 C         -55.0823  -32.6472   12.9680 C.2       13 UNK         0.5732 
     20 N         -54.1609  -33.1519   13.7768 N.am      13 UNK        -0.7310 
     21 O         -55.8730  -33.3918   12.3934 O.2       13 UNK        -0.5035 
     22 N         -55.1940  -30.3419   14.0391 N.am      13 UNK        -0.4233 
     23 C         -54.2153  -30.2227   14.9439 C.2       13 UNK         0.4989 
     24 O         -53.0856  -30.6929   14.7953 O.2       13 UNK        -0.4996 
     25 CA        -54.5766  -29.4841   16.2486 C.3       12 UNK         0.0216 
     26 CB        -53.4427  -29.5429   17.2900 C.3       12 UNK        -0.1964 
     27 N         -54.9729  -28.0864   16.0326 N.am      12 UNK        -0.4276 
     28 C         -56.1702  -27.6951   15.5674 C.2       12 UNK         0.5020 
     29 O         -57.0359  -28.4913   15.1973 O.2       12 UNK        -0.5489 
     30 CA        -56.4931  -26.1886   15.5212 C.3       11 UNK         0.0294 
     31 CB        -57.5331  -25.8341   16.5975 C.3       11 UNK        -0.2019 
     32 N         -55.3244  -25.3256   15.6961 N.am      11 UNK        -0.4493 
     33 C         -54.4645  -24.9997   14.7236 C.2       11 UNK         0.4932 
     34 O         -54.5802  -25.3718   13.5554 O.2       11 UNK        -0.5029 
     35 CA        -53.2479  -24.1397   15.1203 C.3       10 UNK         0.0280 
     36 CB        -53.3984  -23.3940   16.4664 C.3       10 UNK        -0.1976 
     37 N         -52.0230  -24.9438   15.0989 N.am      10 UNK        -0.4242 
     38 C         -51.7990  -26.0665   15.7980 C.2       10 UNK         0.5072 
     39 O         -52.5681  -26.5008   16.6571 O.2       10 UNK        -0.5224 
     40 CA        -50.5384  -26.8724   15.4557 C.3       9 UNK         0.0343 
     41 CB        -50.8240  -27.8077   14.2699 C.3       9 UNK        -0.2003 
     42 N         -49.3688  -26.0461   15.1531 N.am      9 UNK        -0.4272 
     43 C         -48.6511  -25.3827   16.0700 C.2       9 UNK         0.4988 
     44 O         -48.9323  -25.3486   17.2687 O.2       9 UNK        -0.5108 
     45 CA        -47.3890  -24.6563   15.5732 C.3       8 UNK         0.0248 
     46 CB        -46.2565  -25.6571   15.2894 C.3       8 UNK        -0.2001 
     47 N         -47.6368  -23.8424   14.3828 N.am      8 UNK        -0.4140 
     48 C         -48.3379  -22.6998   14.3857 C.2       8 UNK         0.5028 
     49 O         -48.7970  -22.1776   15.4025 O.2       8 UNK        -0.5428 
     50 CA        -48.5840  -22.0277   13.0235 C.3       7 UNK         0.0264 
     51 CB        -47.3852  -21.1510   12.6277 C.3       7 UNK        -0.1988 
     52 N         -48.8791  -22.9828   11.9507 N.am      7 UNK        -0.4454 
     53 C         -49.9456  -23.7972   11.9408 C.2       7 UNK         0.5027 
     54 O         -50.8091  -23.7961   12.8170 O.2       7 UNK        -0.5083 
     55 CA        -50.0574  -24.8180   10.7941 C.3       6 UNK         0.0844 
     56 C56       -50.6745  -24.1747    9.5306 C.3       14 UNK        -0.0967 
     57 S57       -51.1775  -25.4482    8.3287 S.3       14 UNK        -0.2604 
     58 C58       -52.9572  -25.5583    8.6903 C.3       14 UNK         0.0134 
     59 N         -48.7797  -25.4758   10.5178 N.am      6 UNK        -0.4116 
     60 C         -48.0973  -26.2345   11.3851 C.2       5 UNK         0.5034 
     61 O         -48.4788  -26.4941   12.5244 O.2       5 UNK        -0.5045 
     62 CA        -46.7198  -26.7316   10.9281 C.3       5 UNK         0.0224 
     63 CB        -46.8497  -27.9222    9.9642 C.3       5 UNK        -0.1978 
     64 N         -45.9395  -25.6591   10.3077 N.am      5 UNK        -0.4737 
     65 C         -45.4720  -24.5899   10.9681 C.2       4 UNK         0.5027 
     66 O         -45.6131  -24.4165   12.1786 O.2       4 UNK        -0.5211 
     67 CA        -44.7556  -23.5191   10.1289 C.3       4 UNK         0.0297 
     68 CB        -43.2795  -23.8930    9.9221 C.3       4 UNK        -0.1993 
     69 N         -45.3941  -23.2931    8.8290 N.am      4 UNK        -0.4486 
     70 C         -46.6136  -22.7596    8.6713 C.2       3 UNK         0.4961 
     71 O         -47.3290  -22.3914    9.6021 O.2       3 UNK        -0.5105 
     72 CA        -47.1463  -22.6659    7.2316 C.3       3 UNK         0.0299 
     73 CB        -46.5371  -21.4563    6.5046 C.3       3 UNK        -0.1972 
     74 N         -46.9417  -23.8817    6.4335 N.am      3 UNK        -0.4305 
     75 C         -47.3792  -25.1001    6.7777 C.2       2 UNK         0.5006 
     76 O         -47.9050  -25.3634    7.8594 O.2       2 UNK        -0.5106 
     77 CA        -47.1826  -26.2292    5.7675 C.3       2 UNK         0.0296 
     78 CB        -45.8631  -26.9774    6.0366 C.3       2 UNK        -0.2002 
     79 N         -48.3231  -27.1308    5.9035 N.am      2 UNK        -0.4032 
     80 C         -48.7198  -28.0388    5.0047 C.2       1 UNK         0.5000 
     81 O         -48.1256  -28.2424    3.9443 O.2       1 UNK        -0.5238 
     82 H82       -48.2916  -30.6968    8.5453 H         1 UNK         0.0889 
     83 H83       -48.7844  -31.0508    6.8973 H         1 UNK         0.0889 
     84 H84       -47.7347  -29.6620    7.2392 H         1 UNK         0.0889 
     85 H85       -51.2378  -28.2396    6.9000 H         1 UNK         0.3028 
     86 H86       -49.7206  -29.9090    5.1123 H         1 UNK         0.0864 
     87 H87       -50.7756  -28.4676    3.3234 H         1 UNK         0.0720 
     88 H88       -51.4886  -27.4784    4.5663 H         1 UNK         0.0720 
     89 H89       -54.8489  -29.1151    4.4426 H         1 UNK         0.0814 
     90 H90       -53.8824  -27.6907    4.1758 H         1 UNK         0.0814 
     91 H91       -53.0080  -26.4079    6.1036 H         1 UNK         0.1469 
     92 H92       -54.2782  -27.5268   10.0446 H         1 UNK         0.1381 
     93 H93       -55.1089  -30.0966    6.7158 H         1 UNK         0.1206 
     94 H94       -56.3264  -30.3574    8.8363 H         1 UNK         0.0813 
     95 H95       -56.0134  -29.3262   10.2024 H         1 UNK         0.0813 
     96 H96       -53.1202  -30.8423   12.0546 H         1 UNK         0.0638 
     97 H97       -54.1421  -29.4669   11.7535 H         1 UNK         0.0638 
     98 H98       -56.1608  -30.9160   12.3493 H         1 UNK         0.0568 
     99 H99       -53.5217  -32.5194   14.2457 H         1 UNK         0.3450 
    100 H100      -54.0969  -34.1478   13.9135 H         1 UNK         0.3450 
    101 H101      -56.0779  -29.8970   14.2718 H         1 UNK         0.2987 
    102 H102      -55.4292  -30.0125   16.6810 H         1 UNK         0.0766 
    103 H103      -53.2189  -30.5752   17.5621 H         1 UNK         0.0798 
    104 H104      -53.7134  -29.0183   18.2063 H         1 UNK         0.0798 
    105 H105      -52.5194  -29.1037   16.9119 H         1 UNK         0.0798 
    106 H106      -54.2810  -27.3822   16.2783 H         1 UNK         0.3198 
    107 H107      -56.9368  -25.9855   14.5439 H         1 UNK         0.0843 
    108 H108      -57.8277  -24.7863   16.5358 H         1 UNK         0.0831 
    109 H109      -57.1542  -26.0194   17.6034 H         1 UNK         0.0831 
    110 H110      -58.4392  -26.4297   16.4768 H         1 UNK         0.0831 
    111 H111      -55.1277  -25.0044   16.6335 H         1 UNK         0.3133 
    112 H112      -53.1368  -23.3864   14.3391 H         1 UNK         0.0566 
    113 H113      -54.2966  -22.7749   16.4744 H         1 UNK         0.0814 
    114 H114      -53.4516  -24.0698   17.3202 H         1 UNK         0.0814 
    115 H115      -52.5518  -22.7278   16.6336 H         1 UNK         0.0814 
    116 H116      -51.3619  -24.6795   14.3714 H         1 UNK         0.3091 
    117 H117      -50.3001  -27.4925   16.3225 H         1 UNK         0.0702 
    118 H118      -51.0420  -27.2498   13.3582 H         1 UNK         0.0785 
    119 H119      -51.6839  -28.4454   14.4733 H         1 UNK         0.0785 
    120 H120      -49.9762  -28.4621   14.0667 H         1 UNK         0.0785 
    121 H121      -49.0418  -26.0623   14.1880 H         1 UNK         0.2998 
    122 H122      -47.0531  -23.9915   16.3720 H         1 UNK         0.0697 
    123 H123      -45.3337  -25.1431   15.0194 H         1 UNK         0.0825 
    124 H124      -46.0438  -26.2667   16.1685 H         1 UNK         0.0825 
    125 H125      -46.5084  -26.3356   14.4736 H         1 UNK         0.0825 
    126 H126      -47.2416  -24.1731   13.5086 H         1 UNK         0.3029 
    127 H127      -49.4560  -21.3794   13.1334 H         1 UNK         0.0897 
    128 H128      -47.5894  -20.5890   11.7162 H         1 UNK         0.0792 
    129 H129      -47.1550  -20.4264   13.4100 H         1 UNK         0.0792 
    130 H130      -46.4878  -21.7471   12.4592 H         1 UNK         0.0792 
    131 H131      -48.2390  -22.9918   11.1592 H         1 UNK         0.3086 
    132 H132      -50.7412  -25.5959   11.1420 H         1 UNK         0.0583 
    133 H133      -51.5413  -23.5596    9.7814 H         1 UNK         0.1020 
    134 H134      -49.9579  -23.5052    9.0509 H         1 UNK         0.1020 
    135 H135      -53.1059  -25.5081    9.7704 H         1 UNK         0.0694 
    136 H136      -53.4683  -24.6950    8.2622 H         1 UNK         0.0694 
    137 H137      -48.4048  -25.3506    9.5786 H         1 UNK         0.2989 
    138 H138      -46.1806  -27.0702   11.8159 H         1 UNK         0.1055 
    139 H139      -47.4000  -28.7399   10.4320 H         1 UNK         0.0806 
    140 H140      -47.3866  -27.6546    9.0546 H         1 UNK         0.0806 
    141 H141      -45.8728  -28.3113    9.6773 H         1 UNK         0.0806 
    142 H142      -45.8375  -25.6880    9.3040 H         1 UNK         0.3061 
    143 H143      -44.7936  -22.5819   10.6886 H         1 UNK         0.0734 
    144 H144      -42.7385  -23.1026    9.4015 H         1 UNK         0.0832 
    145 H145      -42.7803  -24.0476   10.8799 H         1 UNK         0.0832 
    146 H146      -43.1695  -24.8127    9.3461 H         1 UNK         0.0832 
    147 H147      -44.8820  -23.5746    8.0057 H         1 UNK         0.3156 
    148 H148      -48.2248  -22.5074    7.2984 H         1 UNK         0.0589 
    149 H149      -46.9997  -21.3048    5.5291 H         1 UNK         0.0808 
    150 H150      -46.6892  -20.5401    7.0773 H         1 UNK         0.0808 
    151 H151      -45.4631  -21.5711    6.3532 H         1 UNK         0.0808 
    152 H152      -46.5020  -23.7613    5.5320 H         1 UNK         0.3098 
    153 H153      -47.1749  -25.8101    4.7591 H         1 UNK         0.0720 
    154 H154      -45.0089  -26.3026    5.9702 H         1 UNK         0.0791 
    155 H155      -45.8492  -27.4271    7.0298 H         1 UNK         0.0791 
    156 H156      -45.7005  -27.7729    5.3094 H         1 UNK         0.0791 
    157 H157      -48.8724  -26.9796    6.7424 H         1 UNK         0.3028 
@<TRIPOS>BOND
     1    1    2 1    
     2    1   82 1    
     3    1   83 1    
     4    1   84 1    
     5    2    3 2    
     6    2    4 am   BACKBONE|DICT|INTERRES
     7    4    5 1    
     8    4   85 1    
     9    5    6 1    
    10    5   80 1    
    11    5   86 1    
    12    6    7 1    
    13    6   87 1    
    14    6   88 1    
    15    7    8 1    
    16    8    9 1    
    17    8   89 1    
    18    8   90 1    
    19    9   10 ar   
    20    9   14 ar   
    21   10   11 ar   
    22   10   91 1    
    23   11   12 ar   
    24   11   58 1    
    25   12   13 ar   
    26   12   92 1    
    27   13   14 ar   
    28   13   15 1    
    29   14   93 1    
    30   15   16 1    
    31   15   94 1    
    32   15   95 1    
    33   16   17 1    
    34   17   18 1    
    35   17   96 1    
    36   17   97 1    
    37   18   19 1    
    38   18   22 1    
    39   18   98 1    
    40   19   20 am   BACKBONE|DICT|INTERRES
    41   19   21 2    
    42   20   99 1    
    43   20  100 1    
    44   22   23 am   BACKBONE|DICT|INTERRES
    45   22  101 1    
    46   23   24 2    
    47   23   25 1    
    48   25   26 1    
    49   25   27 1    
    50   25  102 1    
    51   26  103 1    
    52   26  104 1    
    53   26  105 1    
    54   27   28 am   BACKBONE|DICT|INTERRES
    55   27  106 1    
    56   28   29 2    
    57   28   30 1    
    58   30   31 1    
    59   30   32 1    
    60   30  107 1    
    61   31  108 1    
    62   31  109 1    
    63   31  110 1    
    64   32   33 am   BACKBONE|DICT|INTERRES
    65   32  111 1    
    66   33   34 2    
    67   33   35 1    
    68   35   36 1    
    69   35   37 1    
    70   35  112 1    
    71   36  113 1    
    72   36  114 1    
    73   36  115 1    
    74   37   38 am   BACKBONE|DICT|INTERRES
    75   37  116 1    
    76   38   39 2    
    77   38   40 1    
    78   40   41 1    
    79   40   42 1    
    80   40  117 1    
    81   41  118 1    
    82   41  119 1    
    83   41  120 1    
    84   42   43 am   BACKBONE|DICT|INTERRES
    85   42  121 1    
    86   43   44 2    
    87   43   45 1    
    88   45   46 1    
    89   45   47 1    
    90   45  122 1    
    91   46  123 1    
    92   46  124 1    
    93   46  125 1    
    94   47   48 am   BACKBONE|DICT|INTERRES
    95   47  126 1    
    96   48   49 2    
    97   48   50 1    
    98   50   51 1    
    99   50   52 1    
   100   50  127 1    
   101   51  128 1    
   102   51  129 1    
   103   51  130 1    
   104   52   53 am   BACKBONE|DICT|INTERRES
   105   52  131 1    
   106   53   54 2    
   107   53   55 1    
   108   55   56 1    
   109   55   59 1    
   110   55  132 1    
   111   56   57 1    
   112   56  133 1    
   113   56  134 1    
   114   57   58 1    
   115   58  135 1    
   116   58  136 1    
   117   59   60 am   BACKBONE|DICT|INTERRES
   118   59  137 1    
   119   60   61 2    
   120   60   62 1    
   121   62   63 1    
   122   62   64 1    
   123   62  138 1    
   124   63  139 1    
   125   63  140 1    
   126   63  141 1    
   127   64   65 am   BACKBONE|DICT|INTERRES
   128   64  142 1    
   129   65   66 2    
   130   65   67 1    
   131   67   68 1    
   132   67   69 1    
   133   67  143 1    
   134   68  144 1    
   135   68  145 1    
   136   68  146 1    
   137   69   70 am   BACKBONE|DICT|INTERRES
   138   69  147 1    
   139   70   71 2    
   140   70   72 1    
   141   72   73 1    
   142   72   74 1    
   143   72  148 1    
   144   73  149 1    
   145   73  150 1    
   146   73  151 1    
   147   74   75 am   BACKBONE|DICT|INTERRES
   148   74  152 1    
   149   75   76 2    
   150   75   77 1    
   151   77   78 1    
   152   77   79 1    
   153   77  153 1    
   154   78  154 1    
   155   78  155 1    
   156   78  156 1    
   157   79   80 am   BACKBONE|DICT|INTERRES
   158   79  157 1    
   159   80   81 2    
@<TRIPOS>SUBSTRUCTURE
     1 UNK         1 GROUP             0       ****    0 ROOT    
