@<TRIPOS>MOLECULE
3R207
157   159    1
SMALL
USER_CHARGES


@<TRIPOS>ATOM
      1 CA        -51.0872  -30.2763    1.7893 C.3       0 UNK        -0.1975 
      2 C         -50.8430  -29.5839    3.1216 C.2       0 UNK         0.4852 
      3 O         -51.7938  -29.1285    3.7601 O.2       0 UNK        -0.5216 
      4 N         -49.5761  -29.4929    3.5481 N.am      1 UNK        -0.4461 
      5 CA        -49.1449  -28.8382    4.7871 C.3       1 UNK         0.0864 
      6 C6        -47.8161  -29.4530    5.3014 C.3       14 UNK        -0.0898 
      7 S7        -47.5872  -29.1724    7.0852 S.3       14 UNK        -0.2598 
      8 C8        -48.3370  -30.6693    7.7913 C.3       14 UNK         0.0286 
      9 C9        -48.7583  -30.4617    9.2405 C.ar      14 UNK        -0.0844 
     10 C10       -47.8039  -30.4525   10.2638 C.ar      14 UNK        -0.0881 
     11 C11       -48.1963  -30.3373   11.6021 C.ar      14 UNK        -0.0643 
     12 C12       -49.5564  -30.2269   11.9114 C.ar      14 UNK        -0.0930 
     13 C13       -50.5189  -30.2291   10.8977 C.ar      14 UNK        -0.0827 
     14 C14       -50.1128  -30.3323    9.5641 C.ar      14 UNK        -0.1249 
     15 C15       -52.0000  -30.2098   11.2470 C.3       14 UNK         0.0141 
     16 S16       -52.6698  -28.5244   11.3719 S.3       14 UNK        -0.2313 
     17 C17       -54.3841  -28.9270   11.8522 C.3       14 UNK        -0.0915 
     18 CA        -55.3848  -27.7703   11.6014 C.3       13 UNK         0.0968 
     19 C         -56.8515  -28.2463   11.8284 C.2       13 UNK         0.5732 
     20 N         -57.5924  -27.7246   12.8004 N.am      13 UNK        -0.7310 
     21 O         -57.3335  -29.1046   11.0927 O.2       13 UNK        -0.5035 
     22 N         -55.0249  -26.5638   12.3595 N.am      13 UNK        -0.4233 
     23 C         -55.4511  -25.3302   12.0611 C.2       13 UNK         0.4989 
     24 O         -56.0885  -25.0594   11.0416 O.2       13 UNK        -0.4996 
     25 CA        -55.1096  -24.2100   13.0658 C.3       12 UNK         0.0216 
     26 CB        -56.1277  -23.0507   13.0264 C.3       12 UNK        -0.1964 
     27 N         -54.9152  -24.6719   14.4484 N.am      12 UNK        -0.4276 
     28 C         -55.7954  -25.3252   15.2193 C.2       12 UNK         0.5020 
     29 O         -56.9127  -25.6834   14.8398 O.2       12 UNK        -0.5489 
     30 CA        -55.3058  -25.6608   16.6395 C.3       11 UNK         0.0294 
     31 CB        -56.3983  -26.3113   17.5149 C.3       11 UNK        -0.2019 
     32 N         -54.0875  -26.4822   16.6283 N.am      11 UNK        -0.4493 
     33 C         -53.9325  -27.7070   16.1013 C.2       11 UNK         0.4932 
     34 O         -54.8213  -28.3092   15.4995 O.2       11 UNK        -0.5029 
     35 CA        -52.5594  -28.3879   16.2614 C.3       10 UNK         0.0280 
     36 CB        -52.0336  -28.9165   14.9176 C.3       10 UNK        -0.1976 
     37 N         -51.5327  -27.5219   16.8417 N.am      10 UNK        -0.4242 
     38 C         -51.2687  -27.3955   18.1480 C.2       10 UNK         0.5072 
     39 O         -51.9328  -27.9255   19.0391 O.2       10 UNK        -0.5224 
     40 CA        -50.0526  -26.5357   18.5196 C.3       9 UNK         0.0343 
     41 CB        -48.7541  -27.3384   18.3319 C.3       9 UNK        -0.2003 
     42 N         -49.9865  -25.3193   17.7080 N.am      9 UNK        -0.4272 
     43 C         -50.4382  -24.1199   18.0982 C.2       9 UNK         0.4988 
     44 O         -50.9581  -23.9054   19.1938 O.2       9 UNK        -0.5108 
     45 CA        -50.2750  -22.9501   17.1099 C.3       8 UNK         0.0248 
     46 CB        -48.9729  -22.1850   17.3978 C.3       8 UNK        -0.2001 
     47 N         -50.2945  -23.3576   15.7026 N.am      8 UNK        -0.4140 
     48 C         -51.3786  -23.8183   15.0660 C.2       8 UNK         0.5028 
     49 O         -52.4842  -23.9491   15.5924 O.2       8 UNK        -0.5428 
     50 CA        -51.2054  -24.2283   13.5953 C.3       7 UNK         0.0264 
     51 CB        -51.3780  -23.0076   12.6768 C.3       7 UNK        -0.1988 
     52 N         -49.9441  -24.8978   13.2652 N.am      7 UNK        -0.4454 
     53 C         -49.4076  -25.9618   13.8773 C.2       7 UNK         0.5027 
     54 O         -49.8339  -26.4176   14.9400 O.2       7 UNK        -0.5083 
     55 CA        -48.2104  -26.6407   13.1734 C.3       6 UNK         0.0844 
     56 C56       -47.7407  -27.9129   13.9289 C.3       14 UNK        -0.0967 
     57 S57       -46.3876  -28.7968   13.0762 S.3       14 UNK        -0.2604 
     58 C58       -47.1564  -30.4089   12.7144 C.3       14 UNK         0.0134 
     59 N         -48.4935  -26.9194   11.7603 N.am      6 UNK        -0.4116 
     60 C         -48.4725  -26.0286   10.7624 C.2       5 UNK         0.5034 
     61 O         -48.3355  -24.8132   10.9281 O.2       5 UNK        -0.5045 
     62 CA        -48.6770  -26.5929    9.3504 C.3       5 UNK         0.0224 
     63 CB        -50.1612  -26.5600    8.9596 C.3       5 UNK        -0.1978 
     64 N         -47.8890  -25.8852    8.3372 N.am      5 UNK        -0.4737 
     65 C         -46.5472  -25.8808    8.2871 C.2       4 UNK         0.5027 
     66 O         -45.8353  -26.4476    9.1176 O.2       4 UNK        -0.5211 
     67 CA        -45.8641  -25.1587    7.1099 C.3       4 UNK         0.0297 
     68 CB        -45.0987  -26.1605    6.2281 C.3       4 UNK        -0.1993 
     69 N         -46.7995  -24.4040    6.2731 N.am      4 UNK        -0.4486 
     70 C         -47.1957  -23.1497    6.5332 C.2       3 UNK         0.4961 
     71 O         -46.7802  -22.4897    7.4862 O.2       3 UNK        -0.5105 
     72 CA        -48.2218  -22.5052    5.5804 C.3       3 UNK         0.0299 
     73 CB        -47.5276  -21.4989    4.6477 C.3       3 UNK        -0.1972 
     74 N         -48.9856  -23.4570    4.7688 N.am      3 UNK        -0.4305 
     75 C         -49.8465  -24.3657    5.2459 C.2       2 UNK         0.5006 
     76 O         -50.0808  -24.5145    6.4452 O.2       2 UNK        -0.5106 
     77 CA        -50.5540  -25.2793    4.2257 C.3       2 UNK         0.0296 
     78 CB        -50.2407  -24.9488    2.7477 C.3       2 UNK        -0.2002 
     79 N         -50.2950  -26.6986    4.4880 N.am      2 UNK        -0.4032 
     80 C         -49.1022  -27.3043    4.5914 C.2       1 UNK         0.5000 
     81 O         -48.0238  -26.7136    4.4868 O.2       1 UNK        -0.5238 
     82 H82       -50.1613  -30.6340    1.3393 H         1 UNK         0.0889 
     83 H83       -51.5603  -29.5872    1.0902 H         1 UNK         0.0889 
     84 H84       -51.7494  -31.1306    1.9270 H         1 UNK         0.0889 
     85 H85       -48.8334  -29.8547    2.9662 H         1 UNK         0.3028 
     86 H86       -49.9070  -29.0387    5.5443 H         1 UNK         0.0864 
     87 H87       -46.9529  -29.0614    4.7603 H         1 UNK         0.0720 
     88 H88       -47.8037  -30.5307    5.1296 H         1 UNK         0.0720 
     89 H89       -47.6248  -31.4932    7.7267 H         1 UNK         0.0814 
     90 H90       -49.1992  -30.9627    7.1903 H         1 UNK         0.0814 
     91 H91       -46.7556  -30.5584   10.0184 H         1 UNK         0.1469 
     92 H92       -49.8728  -30.1750   12.9436 H         1 UNK         0.1381 
     93 H93       -50.8574  -30.3502    8.7799 H         1 UNK         0.1206 
     94 H94       -52.1632  -30.7310   12.1916 H         1 UNK         0.0813 
     95 H95       -52.5633  -30.7640   10.4945 H         1 UNK         0.0813 
     96 H96       -54.3965  -29.2178   12.9031 H         1 UNK         0.0638 
     97 H97       -54.6888  -29.8111   11.2888 H         1 UNK         0.0638 
     98 H98       -55.3214  -27.5190   10.5409 H         1 UNK         0.0568 
     99 H99       -57.2217  -27.0195   13.4308 H         1 UNK         0.3450 
    100 H100      -58.5382  -28.0486   12.9202 H         1 UNK         0.3450 
    101 H101      -54.5416  -26.7173   13.2313 H         1 UNK         0.2987 
    102 H102      -54.1513  -23.8107   12.7391 H         1 UNK         0.0766 
    103 H103      -55.8519  -22.2573   13.7210 H         1 UNK         0.0798 
    104 H104      -57.1324  -23.3880   13.2839 H         1 UNK         0.0798 
    105 H105      -56.1790  -22.6037   12.0328 H         1 UNK         0.0798 
    106 H106      -54.0198  -24.4268   14.8766 H         1 UNK         0.3198 
    107 H107      -55.0352  -24.7113   17.1048 H         1 UNK         0.0843 
    108 H108      -56.7404  -27.2606   17.1014 H         1 UNK         0.0831 
    109 H109      -57.2703  -25.6611   17.5943 H         1 UNK         0.0831 
    110 H110      -56.0380  -26.4965   18.5268 H         1 UNK         0.0831 
    111 H111      -53.2726  -26.0565   17.0483 H         1 UNK         0.3133 
    112 H112      -52.7089  -29.2474   16.9181 H         1 UNK         0.0566 
    113 H113      -51.0651  -29.4023   15.0349 H         1 UNK         0.0814 
    114 H114      -52.7122  -29.6562   14.4932 H         1 UNK         0.0814 
    115 H115      -51.9183  -28.1127   14.1904 H         1 UNK         0.0814 
    116 H116      -50.9197  -27.0558   16.1734 H         1 UNK         0.3091 
    117 H117      -50.1352  -26.2765   19.5775 H         1 UNK         0.0702 
    118 H118      -47.8842  -26.7602   18.6440 H         1 UNK         0.0785 
    119 H119      -48.6041  -27.6334   17.2925 H         1 UNK         0.0785 
    120 H120      -48.7688  -28.2498   18.9312 H         1 UNK         0.0785 
    121 H121      -49.6280  -25.4213   16.7661 H         1 UNK         0.2998 
    122 H122      -51.1125  -22.2681   17.2721 H         1 UNK         0.0697 
    123 H123      -48.0924  -22.8081   17.2349 H         1 UNK         0.0825 
    124 H124      -48.9423  -21.8432   18.4334 H         1 UNK         0.0825 
    125 H125      -48.8825  -21.3017   16.7653 H         1 UNK         0.0825 
    126 H126      -49.4287  -23.2870   15.1878 H         1 UNK         0.3029 
    127 H127      -52.0007  -24.9417   13.3713 H         1 UNK         0.0897 
    128 H128      -50.5300  -22.3257   12.7518 H         1 UNK         0.0792 
    129 H129      -52.2712  -22.4360   12.9323 H         1 UNK         0.0792 
    130 H130      -51.4725  -23.3083   11.6329 H         1 UNK         0.0792 
    131 H131      -49.4893  -24.6042   12.4034 H         1 UNK         0.3086 
    132 H132      -47.3873  -25.9238   13.2088 H         1 UNK         0.0583 
    133 H133      -47.3819  -27.6423   14.9238 H         1 UNK         0.1020 
    134 H134      -48.5751  -28.5948   14.0968 H         1 UNK         0.1020 
    135 H135      -46.3699  -31.1087   12.4279 H         1 UNK         0.0694 
    136 H136      -47.5972  -30.8152   13.6262 H         1 UNK         0.0694 
    137 H137      -48.6366  -27.8946   11.5349 H         1 UNK         0.2989 
    138 H138      -48.3446  -27.6312    9.3571 H         1 UNK         0.1055 
    139 H139      -50.3210  -26.9949    7.9727 H         1 UNK         0.0806 
    140 H140      -50.5533  -25.5423    8.9487 H         1 UNK         0.0806 
    141 H141      -50.7609  -27.1342    9.6648 H         1 UNK         0.0806 
    142 H142      -48.4081  -25.3675    7.6384 H         1 UNK         0.3061 
    143 H143      -45.1324  -24.4697    7.5375 H         1 UNK         0.0734 
    144 H144      -44.5950  -25.6612    5.4005 H         1 UNK         0.0832 
    145 H145      -44.3342  -26.6823    6.8050 H         1 UNK         0.0832 
    146 H146      -45.7603  -26.9199    5.8118 H         1 UNK         0.0832 
    147 H147      -47.2117  -24.9049    5.4931 H         1 UNK         0.3156 
    148 H148      -48.9345  -21.9576    6.2007 H         1 UNK         0.0589 
    149 H149      -46.8147  -21.9894    3.9837 H         1 UNK         0.0808 
    150 H150      -48.2497  -20.9629    4.0314 H         1 UNK         0.0808 
    151 H151      -46.9770  -20.7508    5.2201 H         1 UNK         0.0808 
    152 H152      -48.8376  -23.4222    3.7704 H         1 UNK         0.3098 
    153 H153      -51.6236  -25.1281    4.3783 H         1 UNK         0.0720 
    154 H154      -50.8156  -25.5889    2.0780 H         1 UNK         0.0791 
    155 H155      -49.1864  -25.0911    2.5062 H         1 UNK         0.0791 
    156 H156      -50.5078  -23.9196    2.5039 H         1 UNK         0.0791 
    157 H157      -51.1148  -27.2939    4.5414 H         1 UNK         0.3028 
@<TRIPOS>BOND
     1    1    2 1    
     2    1   82 1    
     3    1   83 1    
     4    1   84 1    
     5    2    3 2    
     6    2    4 am   BACKBONE|DICT|INTERRES
     7    4    5 1    
     8    4   85 1    
     9    5    6 1    
    10    5   80 1    
    11    5   86 1    
    12    6    7 1    
    13    6   87 1    
    14    6   88 1    
    15    7    8 1    
    16    8    9 1    
    17    8   89 1    
    18    8   90 1    
    19    9   10 ar   
    20    9   14 ar   
    21   10   11 ar   
    22   10   91 1    
    23   11   12 ar   
    24   11   58 1    
    25   12   13 ar   
    26   12   92 1    
    27   13   14 ar   
    28   13   15 1    
    29   14   93 1    
    30   15   16 1    
    31   15   94 1    
    32   15   95 1    
    33   16   17 1    
    34   17   18 1    
    35   17   96 1    
    36   17   97 1    
    37   18   19 1    
    38   18   22 1    
    39   18   98 1    
    40   19   20 am   BACKBONE|DICT|INTERRES
    41   19   21 2    
    42   20   99 1    
    43   20  100 1    
    44   22   23 am   BACKBONE|DICT|INTERRES
    45   22  101 1    
    46   23   24 2    
    47   23   25 1    
    48   25   26 1    
    49   25   27 1    
    50   25  102 1    
    51   26  103 1    
    52   26  104 1    
    53   26  105 1    
    54   27   28 am   BACKBONE|DICT|INTERRES
    55   27  106 1    
    56   28   29 2    
    57   28   30 1    
    58   30   31 1    
    59   30   32 1    
    60   30  107 1    
    61   31  108 1    
    62   31  109 1    
    63   31  110 1    
    64   32   33 am   BACKBONE|DICT|INTERRES
    65   32  111 1    
    66   33   34 2    
    67   33   35 1    
    68   35   36 1    
    69   35   37 1    
    70   35  112 1    
    71   36  113 1    
    72   36  114 1    
    73   36  115 1    
    74   37   38 am   BACKBONE|DICT|INTERRES
    75   37  116 1    
    76   38   39 2    
    77   38   40 1    
    78   40   41 1    
    79   40   42 1    
    80   40  117 1    
    81   41  118 1    
    82   41  119 1    
    83   41  120 1    
    84   42   43 am   BACKBONE|DICT|INTERRES
    85   42  121 1    
    86   43   44 2    
    87   43   45 1    
    88   45   46 1    
    89   45   47 1    
    90   45  122 1    
    91   46  123 1    
    92   46  124 1    
    93   46  125 1    
    94   47   48 am   BACKBONE|DICT|INTERRES
    95   47  126 1    
    96   48   49 2    
    97   48   50 1    
    98   50   51 1    
    99   50   52 1    
   100   50  127 1    
   101   51  128 1    
   102   51  129 1    
   103   51  130 1    
   104   52   53 am   BACKBONE|DICT|INTERRES
   105   52  131 1    
   106   53   54 2    
   107   53   55 1    
   108   55   56 1    
   109   55   59 1    
   110   55  132 1    
   111   56   57 1    
   112   56  133 1    
   113   56  134 1    
   114   57   58 1    
   115   58  135 1    
   116   58  136 1    
   117   59   60 am   BACKBONE|DICT|INTERRES
   118   59  137 1    
   119   60   61 2    
   120   60   62 1    
   121   62   63 1    
   122   62   64 1    
   123   62  138 1    
   124   63  139 1    
   125   63  140 1    
   126   63  141 1    
   127   64   65 am   BACKBONE|DICT|INTERRES
   128   64  142 1    
   129   65   66 2    
   130   65   67 1    
   131   67   68 1    
   132   67   69 1    
   133   67  143 1    
   134   68  144 1    
   135   68  145 1    
   136   68  146 1    
   137   69   70 am   BACKBONE|DICT|INTERRES
   138   69  147 1    
   139   70   71 2    
   140   70   72 1    
   141   72   73 1    
   142   72   74 1    
   143   72  148 1    
   144   73  149 1    
   145   73  150 1    
   146   73  151 1    
   147   74   75 am   BACKBONE|DICT|INTERRES
   148   74  152 1    
   149   75   76 2    
   150   75   77 1    
   151   77   78 1    
   152   77   79 1    
   153   77  153 1    
   154   78  154 1    
   155   78  155 1    
   156   78  156 1    
   157   79   80 am   BACKBONE|DICT|INTERRES
   158   79  157 1    
   159   80   81 2    
@<TRIPOS>SUBSTRUCTURE
     1 UNK         1 GROUP             0       ****    0 ROOT    
