@<TRIPOS>MOLECULE
3R207
157   159    1
SMALL
USER_CHARGES


@<TRIPOS>ATOM
      1 CA        -48.8831  -24.2782    2.4677 C.3       0 UNK        -0.1975 
      2 C         -49.0096  -24.9034    3.8486 C.2       0 UNK         0.4852 
      3 O         -48.0588  -25.5242    4.3246 O.2       0 UNK        -0.5216 
      4 N         -50.1697  -24.7268    4.5011 N.am      1 UNK        -0.4461 
      5 CA        -50.5214  -25.2748    5.8215 C.3       1 UNK         0.0864 
      6 C6        -50.7697  -26.8068    5.7677 C.3       14 UNK        -0.0898 
      7 S7        -51.9322  -27.3802    7.0503 S.3       14 UNK        -0.2598 
      8 C8        -52.3034  -29.0457    6.4208 C.3       14 UNK         0.0286 
      9 C9        -52.6719  -29.9867    7.5550 C.ar      14 UNK        -0.0844 
     10 C10       -51.6709  -30.4585    8.4062 C.ar      14 UNK        -0.0881 
     11 C11       -51.9812  -31.3189    9.4614 C.ar      14 UNK        -0.0643 
     12 C12       -53.3040  -31.7326    9.6447 C.ar      14 UNK        -0.0930 
     13 C13       -54.3171  -31.2659    8.7988 C.ar      14 UNK        -0.0827 
     14 C14       -53.9953  -30.3904    7.7558 C.ar      14 UNK        -0.1249 
     15 C15       -55.7574  -31.7129    9.0092 C.3       14 UNK         0.0141 
     16 S16       -56.4435  -31.1154   10.5872 S.3       14 UNK        -0.2313 
     17 C17       -56.6134  -29.3196   10.2889 C.3       14 UNK        -0.0915 
     18 CA        -55.3779  -28.4827   10.7381 C.3       13 UNK         0.0968 
     19 C         -55.5531  -26.9586   10.4570 C.2       13 UNK         0.5732 
     20 N         -54.9194  -26.0682   11.2081 N.am      13 UNK        -0.7310 
     21 O         -56.2566  -26.5705    9.5269 O.2       13 UNK        -0.5035 
     22 N         -54.9153  -28.8419   12.0909 N.am      13 UNK        -0.4233 
     23 C         -55.5360  -28.5975   13.2514 C.2       13 UNK         0.4989 
     24 O         -56.5359  -27.8908   13.3775 O.2       13 UNK        -0.4996 
     25 CA        -54.9496  -29.2995   14.4824 C.3       12 UNK         0.0216 
     26 CB        -54.4296  -30.7231   14.1715 C.3       12 UNK        -0.1964 
     27 N         -53.9006  -28.4768   15.0853 N.am      12 UNK        -0.4276 
     28 C         -53.4430  -28.6394   16.3352 C.2       12 UNK         0.5020 
     29 O         -53.8690  -29.4993   17.1082 O.2       12 UNK        -0.5489 
     30 CA        -52.3227  -27.7065   16.8311 C.3       11 UNK         0.0294 
     31 CB        -50.9587  -28.4161   16.7976 C.3       11 UNK        -0.2019 
     32 N         -52.2282  -26.4323   16.1169 N.am      11 UNK        -0.4493 
     33 C         -53.1209  -25.4375   16.2355 C.2       11 UNK         0.4932 
     34 O         -54.1633  -25.5352   16.8854 O.2       11 UNK        -0.5029 
     35 CA        -52.7779  -24.1072   15.5332 C.3       10 UNK         0.0280 
     36 CB        -53.5793  -22.9117   16.0886 C.3       10 UNK        -0.1976 
     37 N         -51.3418  -23.8027   15.5309 N.am      10 UNK        -0.4242 
     38 C         -50.5112  -23.7136   16.5849 C.2       10 UNK         0.5072 
     39 O         -50.8774  -23.8091   17.7571 O.2       10 UNK        -0.5224 
     40 CA        -49.0131  -23.5070   16.2878 C.3       9 UNK         0.0343 
     41 CB        -48.1522  -24.5542   17.0186 C.3       9 UNK        -0.2003 
     42 N         -48.7389  -23.5912   14.8511 N.am      9 UNK        -0.4272 
     43 C         -48.3884  -22.5572   14.0757 C.2       9 UNK         0.4988 
     44 O         -48.1413  -21.4288   14.5024 O.2       9 UNK        -0.5108 
     45 CA        -48.3284  -22.8099   12.5593 C.3       8 UNK         0.0248 
     46 CB        -46.9157  -23.2438   12.1426 C.3       8 UNK        -0.2001 
     47 N         -49.3165  -23.7776   12.0625 N.am      8 UNK        -0.4140 
     48 C         -50.6462  -23.5934   12.1149 C.2       8 UNK         0.5028 
     49 O         -51.1762  -22.6475   12.6959 O.2       8 UNK        -0.5428 
     50 CA        -51.5482  -24.6330   11.4380 C.3       7 UNK         0.0264 
     51 CB        -51.6193  -24.3752    9.9280 C.3       7 UNK        -0.1988 
     52 N         -51.0730  -25.9935   11.6828 N.am      7 UNK        -0.4454 
     53 C         -51.7033  -26.8764   12.4705 C.2       7 UNK         0.5027 
     54 O         -52.7839  -26.6659   13.0244 O.2       7 UNK        -0.5083 
     55 CA        -51.0060  -28.2267   12.7241 C.3       6 UNK         0.0844 
     56 C56       -51.3085  -29.2041   11.5674 C.3       14 UNK        -0.0967 
     57 S57       -50.9830  -30.9362   12.0350 S.3       14 UNK        -0.2604 
     58 C58       -50.8835  -31.7693   10.4153 C.3       14 UNK         0.0134 
     59 N         -49.5650  -28.1041   12.9411 N.am      6 UNK        -0.4116 
     60 C         -48.9225  -27.2126   13.7079 C.2       5 UNK         0.5034 
     61 O         -49.4767  -26.4169   14.4685 O.2       5 UNK        -0.5045 
     62 CA        -47.3974  -27.1462   13.5183 C.3       5 UNK         0.0224 
     63 CB        -46.6926  -27.9932   14.5883 C.3       5 UNK        -0.1978 
     64 N         -46.9488  -27.5666   12.1789 N.am      5 UNK        -0.4737 
     65 C         -47.3384  -27.0230   11.0143 C.2       4 UNK         0.5027 
     66 O         -48.1207  -26.0719   10.9287 O.2       4 UNK        -0.5211 
     67 CA        -46.8630  -27.7378    9.7445 C.3       4 UNK         0.0297 
     68 CB        -47.9577  -28.7012    9.2535 C.3       4 UNK        -0.1993 
     69 N         -46.5883  -26.7681    8.6867 N.am      4 UNK        -0.4486 
     70 C         -45.3672  -26.4656    8.2202 C.2       3 UNK         0.4961 
     71 O         -44.3299  -26.9726    8.6497 O.2       3 UNK        -0.5105 
     72 CA        -45.2620  -25.4436    7.0687 C.3       3 UNK         0.0299 
     73 CB        -45.0541  -26.1692    5.7299 C.3       3 UNK        -0.1972 
     74 N         -46.4335  -24.5738    6.9644 N.am      3 UNK        -0.4305 
     75 C         -46.7218  -23.5965    7.8358 C.2       2 UNK         0.5006 
     76 O         -45.9261  -23.2057    8.6899 O.2       2 UNK        -0.5106 
     77 CA        -48.1215  -22.9464    7.7751 C.3       2 UNK         0.0296 
     78 CB        -48.0132  -21.4539    7.4201 C.3       2 UNK        -0.2002 
     79 N         -49.0815  -23.5802    6.8626 N.am      2 UNK        -0.4032 
     80 C         -49.5233  -24.8462    6.9248 C.2       1 UNK         0.5000 
     81 O         -49.1308  -25.6539    7.7685 O.2       1 UNK        -0.5238 
     82 H82       -49.7905  -23.7519    2.1722 H         1 UNK         0.0889 
     83 H83       -48.6817  -25.0500    1.7253 H         1 UNK         0.0889 
     84 H84       -48.0575  -23.5673    2.4526 H         1 UNK         0.0889 
     85 H85       -50.9018  -24.1936    4.0513 H         1 UNK         0.3028 
     86 H86       -51.4659  -24.7946    6.0831 H         1 UNK         0.0864 
     87 H87       -51.2021  -27.0741    4.8020 H         1 UNK         0.0720 
     88 H88       -49.8347  -27.3662    5.8409 H         1 UNK         0.0720 
     89 H89       -51.4347  -29.4477    5.8968 H         1 UNK         0.0814 
     90 H90       -53.1066  -28.9831    5.6851 H         1 UNK         0.0814 
     91 H91       -50.6500  -30.1342    8.2563 H         1 UNK         0.1469 
     92 H92       -53.5490  -32.3989   10.4608 H         1 UNK         0.1381 
     93 H93       -54.7733  -30.0236    7.1001 H         1 UNK         0.1206 
     94 H94       -56.3970  -31.3844    8.1885 H         1 UNK         0.0813 
     95 H95       -55.7919  -32.8031    9.0037 H         1 UNK         0.0813 
     96 H96       -57.5040  -28.9813   10.8211 H         1 UNK         0.0638 
     97 H97       -56.8179  -29.1626    9.2284 H         1 UNK         0.0638 
     98 H98       -54.5539  -28.7650   10.0843 H         1 UNK         0.0568 
     99 H99       -54.3041  -26.3614   11.9594 H         1 UNK         0.3450 
    100 H100      -55.0486  -25.0896   11.0134 H         1 UNK         0.3450 
    101 H101      -54.1192  -29.4586   12.1162 H         1 UNK         0.2987 
    102 H102      -55.7675  -29.3917   15.2004 H         1 UNK         0.0766 
    103 H103      -54.2396  -31.2832   15.0869 H         1 UNK         0.0798 
    104 H104      -53.5009  -30.7078   13.6023 H         1 UNK         0.0798 
    105 H105      -55.1615  -31.2955   13.5993 H         1 UNK         0.0798 
    106 H106      -53.5419  -27.7125   14.5178 H         1 UNK         0.3198 
    107 H107      -52.5454  -27.4764   17.8756 H         1 UNK         0.0843 
    108 H108      -50.6716  -28.7078   15.7889 H         1 UNK         0.0831 
    109 H109      -50.9797  -29.3244   17.4013 H         1 UNK         0.0831 
    110 H110      -50.1695  -27.7800   17.1991 H         1 UNK         0.0831 
    111 H111      -51.3932  -26.2760   15.5640 H         1 UNK         0.3133 
    112 H112      -53.0617  -24.2371   14.4879 H         1 UNK         0.0566 
    113 H113      -53.3373  -21.9920   15.5560 H         1 UNK         0.0814 
    114 H114      -54.6524  -23.0738   15.9801 H         1 UNK         0.0814 
    115 H115      -53.3792  -22.7494   17.1482 H         1 UNK         0.0814 
    116 H116      -50.9495  -23.6215   14.6155 H         1 UNK         0.3091 
    117 H117      -48.7475  -22.5210   16.6738 H         1 UNK         0.0702 
    118 H118      -47.0936  -24.4237   16.7938 H         1 UNK         0.0785 
    119 H119      -48.4302  -25.5722   16.7448 H         1 UNK         0.0785 
    120 H120      -48.2652  -24.4676   18.0999 H         1 UNK         0.0785 
    121 H121      -48.9260  -24.4940   14.4269 H         1 UNK         0.2998 
    122 H122      -48.5418  -21.8594   12.0656 H         1 UNK         0.0697 
    123 H123      -46.6021  -24.1584   12.6420 H         1 UNK         0.0825 
    124 H124      -46.1832  -22.4732   12.3860 H         1 UNK         0.0825 
    125 H125      -46.8584  -23.4184   11.0701 H         1 UNK         0.0825 
    126 H126      -48.9408  -24.5912   11.5771 H         1 UNK         0.3029 
    127 H127      -52.5537  -24.5006   11.8425 H         1 UNK         0.0897 
    128 H128      -52.2363  -25.1195    9.4236 H         1 UNK         0.0792 
    129 H129      -50.6272  -24.4000    9.4832 H         1 UNK         0.0792 
    130 H130      -52.0481  -23.3948    9.7171 H         1 UNK         0.0792 
    131 H131      -50.1681  -26.2356   11.2921 H         1 UNK         0.3086 
    132 H132      -51.4352  -28.6336   13.6396 H         1 UNK         0.0583 
    133 H133      -50.7207  -28.9443   10.6851 H         1 UNK         0.1020 
    134 H134      -52.3499  -29.1429   11.2530 H         1 UNK         0.1020 
    135 H135      -49.8990  -31.5815    9.9838 H         1 UNK         0.0694 
    136 H136      -50.9496  -32.8477   10.5656 H         1 UNK         0.0694 
    137 H137      -48.9926  -28.7232   12.3878 H         1 UNK         0.2989 
    138 H138      -47.1019  -26.1070   13.6616 H         1 UNK         0.1055 
    139 H139      -46.9957  -27.6864   15.5909 H         1 UNK         0.0806 
    140 H140      -45.6095  -27.8819   14.5333 H         1 UNK         0.0806 
    141 H141      -46.9280  -29.0535   14.4874 H         1 UNK         0.0806 
    142 H142      -46.3110  -28.3502   12.1503 H         1 UNK         0.3061 
    143 H143      -45.9686  -28.3197    9.9765 H         1 UNK         0.0734 
    144 H144      -47.6425  -29.2305    8.3542 H         1 UNK         0.0832 
    145 H145      -48.1891  -29.4549   10.0070 H         1 UNK         0.0832 
    146 H146      -48.8837  -28.1731    9.0186 H         1 UNK         0.0832 
    147 H147      -47.4037  -26.2697    8.3338 H         1 UNK         0.3156 
    148 H148      -44.3849  -24.8207    7.2566 H         1 UNK         0.0589 
    149 H149      -45.8928  -26.8258    5.4939 H         1 UNK         0.0808 
    150 H150      -44.9409  -25.4627    4.9073 H         1 UNK         0.0808 
    151 H151      -44.1544  -26.7855    5.7549 H         1 UNK         0.0808 
    152 H152      -47.1275  -24.8354    6.2738 H         1 UNK         0.3098 
    153 H153      -48.5376  -23.0253    8.7818 H         1 UNK         0.0720 
    154 H154      -48.9825  -20.9587    7.4805 H         1 UNK         0.0791 
    155 H155      -47.6208  -21.3074    6.4130 H         1 UNK         0.0791 
    156 H156      -47.3456  -20.9334    8.1085 H         1 UNK         0.0791 
    157 H157      -49.4316  -23.0004    6.1136 H         1 UNK         0.3028 
@<TRIPOS>BOND
     1    1    2 1    
     2    1   82 1    
     3    1   83 1    
     4    1   84 1    
     5    2    3 2    
     6    2    4 am   BACKBONE|DICT|INTERRES
     7    4    5 1    
     8    4   85 1    
     9    5    6 1    
    10    5   80 1    
    11    5   86 1    
    12    6    7 1    
    13    6   87 1    
    14    6   88 1    
    15    7    8 1    
    16    8    9 1    
    17    8   89 1    
    18    8   90 1    
    19    9   10 ar   
    20    9   14 ar   
    21   10   11 ar   
    22   10   91 1    
    23   11   12 ar   
    24   11   58 1    
    25   12   13 ar   
    26   12   92 1    
    27   13   14 ar   
    28   13   15 1    
    29   14   93 1    
    30   15   16 1    
    31   15   94 1    
    32   15   95 1    
    33   16   17 1    
    34   17   18 1    
    35   17   96 1    
    36   17   97 1    
    37   18   19 1    
    38   18   22 1    
    39   18   98 1    
    40   19   20 am   BACKBONE|DICT|INTERRES
    41   19   21 2    
    42   20   99 1    
    43   20  100 1    
    44   22   23 am   BACKBONE|DICT|INTERRES
    45   22  101 1    
    46   23   24 2    
    47   23   25 1    
    48   25   26 1    
    49   25   27 1    
    50   25  102 1    
    51   26  103 1    
    52   26  104 1    
    53   26  105 1    
    54   27   28 am   BACKBONE|DICT|INTERRES
    55   27  106 1    
    56   28   29 2    
    57   28   30 1    
    58   30   31 1    
    59   30   32 1    
    60   30  107 1    
    61   31  108 1    
    62   31  109 1    
    63   31  110 1    
    64   32   33 am   BACKBONE|DICT|INTERRES
    65   32  111 1    
    66   33   34 2    
    67   33   35 1    
    68   35   36 1    
    69   35   37 1    
    70   35  112 1    
    71   36  113 1    
    72   36  114 1    
    73   36  115 1    
    74   37   38 am   BACKBONE|DICT|INTERRES
    75   37  116 1    
    76   38   39 2    
    77   38   40 1    
    78   40   41 1    
    79   40   42 1    
    80   40  117 1    
    81   41  118 1    
    82   41  119 1    
    83   41  120 1    
    84   42   43 am   BACKBONE|DICT|INTERRES
    85   42  121 1    
    86   43   44 2    
    87   43   45 1    
    88   45   46 1    
    89   45   47 1    
    90   45  122 1    
    91   46  123 1    
    92   46  124 1    
    93   46  125 1    
    94   47   48 am   BACKBONE|DICT|INTERRES
    95   47  126 1    
    96   48   49 2    
    97   48   50 1    
    98   50   51 1    
    99   50   52 1    
   100   50  127 1    
   101   51  128 1    
   102   51  129 1    
   103   51  130 1    
   104   52   53 am   BACKBONE|DICT|INTERRES
   105   52  131 1    
   106   53   54 2    
   107   53   55 1    
   108   55   56 1    
   109   55   59 1    
   110   55  132 1    
   111   56   57 1    
   112   56  133 1    
   113   56  134 1    
   114   57   58 1    
   115   58  135 1    
   116   58  136 1    
   117   59   60 am   BACKBONE|DICT|INTERRES
   118   59  137 1    
   119   60   61 2    
   120   60   62 1    
   121   62   63 1    
   122   62   64 1    
   123   62  138 1    
   124   63  139 1    
   125   63  140 1    
   126   63  141 1    
   127   64   65 am   BACKBONE|DICT|INTERRES
   128   64  142 1    
   129   65   66 2    
   130   65   67 1    
   131   67   68 1    
   132   67   69 1    
   133   67  143 1    
   134   68  144 1    
   135   68  145 1    
   136   68  146 1    
   137   69   70 am   BACKBONE|DICT|INTERRES
   138   69  147 1    
   139   70   71 2    
   140   70   72 1    
   141   72   73 1    
   142   72   74 1    
   143   72  148 1    
   144   73  149 1    
   145   73  150 1    
   146   73  151 1    
   147   74   75 am   BACKBONE|DICT|INTERRES
   148   74  152 1    
   149   75   76 2    
   150   75   77 1    
   151   77   78 1    
   152   77   79 1    
   153   77  153 1    
   154   78  154 1    
   155   78  155 1    
   156   78  156 1    
   157   79   80 am   BACKBONE|DICT|INTERRES
   158   79  157 1    
   159   80   81 2    
@<TRIPOS>SUBSTRUCTURE
     1 UNK         1 GROUP             0       ****    0 ROOT    
