@<TRIPOS>MOLECULE
3R207
157   159    1
SMALL
USER_CHARGES


@<TRIPOS>ATOM
      1 CA        -52.8287  -27.0064    4.8382 C.3       0 UNK        -0.1975 
      2 C         -51.5335  -27.0147    5.6355 C.2       0 UNK         0.4852 
      3 O         -51.0861  -25.9575    6.0801 O.2       0 UNK        -0.5216 
      4 N         -50.9204  -28.1979    5.7941 N.am      1 UNK        -0.4461 
      5 CA        -49.7567  -28.4845    6.6508 C.3       1 UNK         0.0864 
      6 C6        -49.4223  -30.0033    6.6444 C.3       14 UNK        -0.0898 
      7 S7        -49.0037  -30.6311    8.3054 S.3       14 UNK        -0.2598 
      8 C8        -50.5534  -31.4598    8.8077 C.3       14 UNK         0.0286 
      9 C9        -51.7623  -30.5293    8.7988 C.ar      14 UNK        -0.0844 
     10 C10       -51.7339  -29.3220    9.5007 C.ar      14 UNK        -0.0881 
     11 C11       -52.8173  -28.4417    9.4469 C.ar      14 UNK        -0.0643 
     12 C12       -53.9648  -28.7972    8.7321 C.ar      14 UNK        -0.0930 
     13 C13       -54.0271  -30.0270    8.0706 C.ar      14 UNK        -0.0827 
     14 C14       -52.9166  -30.8783    8.0914 C.ar      14 UNK        -0.1249 
     15 C15       -55.2832  -30.4441    7.3209 C.3       14 UNK         0.0141 
     16 S16       -56.1651  -31.7744    8.2024 S.3       14 UNK        -0.2313 
     17 C17       -57.5657  -30.9187    9.0110 C.3       14 UNK        -0.0915 
     18 CA        -57.4686  -30.7684   10.5558 C.3       13 UNK         0.0968 
     19 C         -57.2689  -32.1206   11.3035 C.2       13 UNK         0.5732 
     20 N         -56.2048  -32.3032   12.0765 N.am      13 UNK        -0.7310 
     21 O         -58.1071  -33.0125   11.1931 O.2       13 UNK        -0.5035 
     22 N         -56.5454  -29.6886   10.9360 N.am      13 UNK        -0.4233 
     23 C         -56.6293  -28.9860   12.0734 C.2       13 UNK         0.4989 
     24 O         -57.4510  -29.2011   12.9683 O.2       13 UNK        -0.4996 
     25 CA        -55.6633  -27.8064   12.2076 C.3       12 UNK         0.0216 
     26 CB        -56.1796  -26.5941   11.4069 C.3       12 UNK        -0.1964 
     27 N         -55.5183  -27.4363   13.6133 N.am      12 UNK        -0.4276 
     28 C         -54.4533  -26.8168   14.1325 C.2       12 UNK         0.5020 
     29 O         -53.4572  -26.4958   13.4775 O.2       12 UNK        -0.5489 
     30 CA        -54.4973  -26.5059   15.6341 C.3       11 UNK         0.0294 
     31 CB        -54.3667  -27.7903   16.4755 C.3       11 UNK        -0.2019 
     32 N         -53.3911  -25.6036   15.9359 N.am      11 UNK        -0.4493 
     33 C         -53.2744  -24.8001   16.9985 C.2       11 UNK         0.4932 
     34 O         -54.1388  -24.6861   17.8696 O.2       11 UNK        -0.5029 
     35 CA        -51.9518  -24.0116   17.0990 C.3       10 UNK         0.0280 
     36 CB        -51.7496  -23.3181   18.4631 C.3       10 UNK        -0.1976 
     37 N         -50.7966  -24.8464   16.7439 N.am      10 UNK        -0.4242 
     38 C         -50.3857  -25.9638   17.3648 C.2       10 UNK         0.5072 
     39 O         -50.8474  -26.3783   18.4290 O.2       10 UNK        -0.5224 
     40 CA        -49.3000  -26.7920   16.6596 C.3       9 UNK         0.0343 
     41 CB        -49.9554  -27.8050   15.7058 C.3       9 UNK        -0.2003 
     42 N         -48.3248  -25.9850   15.9216 N.am      9 UNK        -0.4272 
     43 C         -47.3815  -25.2255   16.4975 C.2       9 UNK         0.4988 
     44 O         -47.2411  -25.1141   17.7162 O.2       9 UNK        -0.5108 
     45 CA        -46.4223  -24.4705   15.5605 C.3       8 UNK         0.0248 
     46 CB        -45.3627  -25.4219   14.9810 C.3       8 UNK        -0.2001 
     47 N         -47.1151  -23.7783   14.4723 N.am      8 UNK        -0.4140 
     48 C         -47.9245  -22.7222   14.6415 C.2       8 UNK         0.5028 
     49 O         -48.1263  -22.1771   15.7272 O.2       8 UNK        -0.5428 
     50 CA        -48.6547  -22.1958   13.3937 C.3       7 UNK         0.0264 
     51 CB        -47.7476  -21.2569   12.5824 C.3       7 UNK        -0.1988 
     52 N         -49.1489  -23.2665   12.5266 N.am      7 UNK        -0.4454 
     53 C         -50.0527  -24.1901   12.8872 C.2       7 UNK         0.5027 
     54 O         -50.6100  -24.2190   13.9846 O.2       7 UNK        -0.5083 
     55 CA        -50.3391  -25.2978   11.8612 C.3       6 UNK         0.0844 
     56 C56       -51.3268  -24.8004   10.7753 C.3       14 UNK        -0.0967 
     57 S57       -51.5356  -25.9966    9.4179 S.3       14 UNK        -0.2604 
     58 C58       -52.7381  -27.1166   10.1805 C.3       14 UNK         0.0134 
     59 N         -49.0934  -25.8278   11.3046 N.am      6 UNK        -0.4116 
     60 C         -48.1738  -26.5194   11.9889 C.2       5 UNK         0.5034 
     61 O         -48.2685  -26.8016   13.1816 O.2       5 UNK        -0.5045 
     62 CA        -46.9105  -26.9270   11.2180 C.3       5 UNK         0.0224 
     63 CB        -47.1407  -28.2542   10.4819 C.3       5 UNK        -0.1978 
     64 N         -46.4823  -25.8928   10.2711 N.am      5 UNK        -0.4737 
     65 C         -46.0276  -24.6892   10.6511 C.2       4 UNK         0.5027 
     66 O         -45.8932  -24.3513   11.8274 O.2       4 UNK        -0.5211 
     67 CA        -45.7144  -23.6771    9.5396 C.3       4 UNK         0.0297 
     68 CB        -44.3180  -23.9334    8.9523 C.3       4 UNK        -0.1993 
     69 N         -46.7035  -23.6658    8.4597 N.am      4 UNK        -0.4486 
     70 C         -48.0082  -23.3970    8.5875 C.2       3 UNK         0.4961 
     71 O         -48.5476  -23.1656    9.6702 O.2       3 UNK        -0.5105 
     72 CA        -48.8637  -23.3779    7.3042 C.3       3 UNK         0.0299 
     73 CB        -48.8041  -21.9950    6.6290 C.3       3 UNK        -0.1972 
     74 N         -48.5887  -24.4560    6.3405 N.am      3 UNK        -0.4305 
     75 C         -47.4642  -24.7230    5.6528 C.2       2 UNK         0.5006 
     76 O         -46.4530  -24.0205    5.7099 O.2       2 UNK        -0.5106 
     77 CA        -47.4465  -25.9949    4.7719 C.3       2 UNK         0.0296 
     78 CB        -46.0327  -26.6027    4.6467 C.3       2 UNK        -0.2002 
     79 N         -48.4130  -27.0210    5.1864 N.am      2 UNK        -0.4032 
     80 C         -48.5050  -27.6121    6.3893 C.2       1 UNK         0.5000 
     81 O         -47.6849  -27.4429    7.2934 O.2       1 UNK        -0.5238 
     82 H82       -53.1001  -28.0021    4.4878 H         1 UNK         0.0889 
     83 H83       -52.7326  -26.3537    3.9710 H         1 UNK         0.0889 
     84 H84       -53.6430  -26.6328    5.4585 H         1 UNK         0.0889 
     85 H85       -51.3465  -29.0124    5.3762 H         1 UNK         0.3028 
     86 H86       -50.0845  -28.2023    7.6521 H         1 UNK         0.0864 
     87 H87       -50.2662  -30.5884    6.2753 H         1 UNK         0.0720 
     88 H88       -48.6004  -30.2328    5.9633 H         1 UNK         0.0720 
     89 H89       -50.4272  -31.8624    9.8135 H         1 UNK         0.0814 
     90 H90       -50.7192  -32.3167    8.1529 H         1 UNK         0.0814 
     91 H91       -50.8490  -29.0457   10.0582 H         1 UNK         0.1469 
     92 H92       -54.8055  -28.1186    8.6910 H         1 UNK         0.1381 
     93 H93       -52.9597  -31.8206    7.5622 H         1 UNK         0.1206 
     94 H94       -54.9990  -30.8119    6.3339 H         1 UNK         0.0813 
     95 H95       -55.9407  -29.5921    7.1440 H         1 UNK         0.0813 
     96 H96       -57.7196  -29.9419    8.5508 H         1 UNK         0.0638 
     97 H97       -58.4635  -31.4888    8.7659 H         1 UNK         0.0638 
     98 H98       -58.4586  -30.4354   10.8742 H         1 UNK         0.0568 
     99 H99       -56.0913  -33.1798   12.5600 H         1 UNK         0.3450 
    100 H100      -55.5115  -31.5796   12.1708 H         1 UNK         0.3450 
    101 H101      -55.8153  -29.4830   10.2706 H         1 UNK         0.2987 
    102 H102      -54.6946  -28.1305   11.8266 H         1 UNK         0.0766 
    103 H103      -55.5067  -25.7408   11.4931 H         1 UNK         0.0798 
    104 H104      -57.1621  -26.2741   11.7564 H         1 UNK         0.0798 
    105 H105      -56.2730  -26.8281   10.3460 H         1 UNK         0.0798 
    106 H106      -56.2848  -27.7297   14.2072 H         1 UNK         0.3198 
    107 H107      -55.4419  -26.0052   15.8571 H         1 UNK         0.0843 
    108 H108      -53.4339  -28.3145   16.2633 H         1 UNK         0.0831 
    109 H109      -55.1850  -28.4823   16.2740 H         1 UNK         0.0831 
    110 H110      -54.3885  -27.5707   17.5431 H         1 UNK         0.0831 
    111 H111      -52.6796  -25.5864   15.2123 H         1 UNK         0.3133 
    112 H112      -52.0036  -23.2306   16.3391 H         1 UNK         0.0566 
    113 H113      -50.8058  -22.7735   18.4934 H         1 UNK         0.0814 
    114 H114      -52.5461  -22.5983   18.6548 H         1 UNK         0.0814 
    115 H115      -51.7530  -24.0309   19.2881 H         1 UNK         0.0814 
    116 H116      -50.3903  -24.6337   15.8357 H         1 UNK         0.3091 
    117 H117      -48.7614  -27.3514   17.4275 H         1 UNK         0.0702 
    118 H118      -50.6734  -28.4336   16.2343 H         1 UNK         0.0785 
    119 H119      -50.4911  -27.3080   14.8953 H         1 UNK         0.0785 
    120 H120      -49.2129  -28.4664   15.2591 H         1 UNK         0.0785 
    121 H121      -48.3365  -26.0768   14.9081 H         1 UNK         0.2998 
    122 H122      -45.9039  -23.7160   16.1562 H         1 UNK         0.0697 
    123 H123      -45.8094  -26.1911   14.3506 H         1 UNK         0.0825 
    124 H124      -44.8156  -25.9287   15.7770 H         1 UNK         0.0825 
    125 H125      -44.6323  -24.8811   14.3787 H         1 UNK         0.0825 
    126 H126      -46.9433  -24.1161   13.5297 H         1 UNK         0.3029 
    127 H127      -49.5204  -21.6246   13.7357 H         1 UNK         0.0897 
    128 H128      -48.2801  -20.8266   11.7339 H         1 UNK         0.0792 
    129 H129      -46.8701  -21.7765   12.1960 H         1 UNK         0.0792 
    130 H130      -47.3929  -20.4289   13.1977 H         1 UNK         0.0792 
    131 H131      -48.7746  -23.3009   11.5807 H         1 UNK         0.3086 
    132 H132      -50.8184  -26.1162   12.4021 H         1 UNK         0.0583 
    133 H133      -52.3017  -24.5882   11.2196 H         1 UNK         0.1020 
    134 H134      -50.9886  -23.8617   10.3335 H         1 UNK         0.1020 
    135 H135      -52.4569  -27.3113   11.2149 H         1 UNK         0.0694 
    136 H136      -53.7045  -26.6164   10.1980 H         1 UNK         0.0694 
    137 H137      -48.9173  -25.6159   10.3337 H         1 UNK         0.2989 
    138 H138      -46.1082  -27.0723   11.9448 H         1 UNK         0.1055 
    139 H139      -47.3621  -29.0570   11.1865 H         1 UNK         0.0806 
    140 H140      -46.2629  -28.5556    9.9102 H         1 UNK         0.0806 
    141 H141      -47.9836  -28.1896    9.7936 H         1 UNK         0.0806 
    142 H142      -46.5820  -26.0955    9.2845 H         1 UNK         0.3061 
    143 H143      -45.7174  -22.6835    9.9924 H         1 UNK         0.0734 
    144 H144      -44.0417  -23.1607    8.2346 H         1 UNK         0.0832 
    145 H145      -43.5588  -23.9331    9.7358 H         1 UNK         0.0832 
    146 H146      -44.2636  -24.8971    8.4442 H         1 UNK         0.0832 
    147 H147      -46.3637  -23.8220    7.5123 H         1 UNK         0.3156 
    148 H148      -49.8947  -23.5403    7.6233 H         1 UNK         0.0589 
    149 H149      -47.8006  -21.7541    6.2772 H         1 UNK         0.0808 
    150 H150      -49.4806  -21.9419    5.7761 H         1 UNK         0.0808 
    151 H151      -49.0995  -21.2097    7.3262 H         1 UNK         0.0808 
    152 H152      -49.3688  -25.1003    6.2217 H         1 UNK         0.3098 
    153 H153      -47.7563  -25.6714    3.7773 H         1 UNK         0.0720 
    154 H154      -46.0370  -27.4904    4.0143 H         1 UNK         0.0791 
    155 H155      -45.6267  -26.8852    5.6186 H         1 UNK         0.0791 
    156 H156      -45.3371  -25.8922    4.1985 H         1 UNK         0.0791 
    157 H157      -49.1543  -27.2130    4.5270 H         1 UNK         0.3028 
@<TRIPOS>BOND
     1    1    2 1    
     2    1   82 1    
     3    1   83 1    
     4    1   84 1    
     5    2    3 2    
     6    2    4 am   BACKBONE|DICT|INTERRES
     7    4    5 1    
     8    4   85 1    
     9    5    6 1    
    10    5   80 1    
    11    5   86 1    
    12    6    7 1    
    13    6   87 1    
    14    6   88 1    
    15    7    8 1    
    16    8    9 1    
    17    8   89 1    
    18    8   90 1    
    19    9   10 ar   
    20    9   14 ar   
    21   10   11 ar   
    22   10   91 1    
    23   11   12 ar   
    24   11   58 1    
    25   12   13 ar   
    26   12   92 1    
    27   13   14 ar   
    28   13   15 1    
    29   14   93 1    
    30   15   16 1    
    31   15   94 1    
    32   15   95 1    
    33   16   17 1    
    34   17   18 1    
    35   17   96 1    
    36   17   97 1    
    37   18   19 1    
    38   18   22 1    
    39   18   98 1    
    40   19   20 am   BACKBONE|DICT|INTERRES
    41   19   21 2    
    42   20   99 1    
    43   20  100 1    
    44   22   23 am   BACKBONE|DICT|INTERRES
    45   22  101 1    
    46   23   24 2    
    47   23   25 1    
    48   25   26 1    
    49   25   27 1    
    50   25  102 1    
    51   26  103 1    
    52   26  104 1    
    53   26  105 1    
    54   27   28 am   BACKBONE|DICT|INTERRES
    55   27  106 1    
    56   28   29 2    
    57   28   30 1    
    58   30   31 1    
    59   30   32 1    
    60   30  107 1    
    61   31  108 1    
    62   31  109 1    
    63   31  110 1    
    64   32   33 am   BACKBONE|DICT|INTERRES
    65   32  111 1    
    66   33   34 2    
    67   33   35 1    
    68   35   36 1    
    69   35   37 1    
    70   35  112 1    
    71   36  113 1    
    72   36  114 1    
    73   36  115 1    
    74   37   38 am   BACKBONE|DICT|INTERRES
    75   37  116 1    
    76   38   39 2    
    77   38   40 1    
    78   40   41 1    
    79   40   42 1    
    80   40  117 1    
    81   41  118 1    
    82   41  119 1    
    83   41  120 1    
    84   42   43 am   BACKBONE|DICT|INTERRES
    85   42  121 1    
    86   43   44 2    
    87   43   45 1    
    88   45   46 1    
    89   45   47 1    
    90   45  122 1    
    91   46  123 1    
    92   46  124 1    
    93   46  125 1    
    94   47   48 am   BACKBONE|DICT|INTERRES
    95   47  126 1    
    96   48   49 2    
    97   48   50 1    
    98   50   51 1    
    99   50   52 1    
   100   50  127 1    
   101   51  128 1    
   102   51  129 1    
   103   51  130 1    
   104   52   53 am   BACKBONE|DICT|INTERRES
   105   52  131 1    
   106   53   54 2    
   107   53   55 1    
   108   55   56 1    
   109   55   59 1    
   110   55  132 1    
   111   56   57 1    
   112   56  133 1    
   113   56  134 1    
   114   57   58 1    
   115   58  135 1    
   116   58  136 1    
   117   59   60 am   BACKBONE|DICT|INTERRES
   118   59  137 1    
   119   60   61 2    
   120   60   62 1    
   121   62   63 1    
   122   62   64 1    
   123   62  138 1    
   124   63  139 1    
   125   63  140 1    
   126   63  141 1    
   127   64   65 am   BACKBONE|DICT|INTERRES
   128   64  142 1    
   129   65   66 2    
   130   65   67 1    
   131   67   68 1    
   132   67   69 1    
   133   67  143 1    
   134   68  144 1    
   135   68  145 1    
   136   68  146 1    
   137   69   70 am   BACKBONE|DICT|INTERRES
   138   69  147 1    
   139   70   71 2    
   140   70   72 1    
   141   72   73 1    
   142   72   74 1    
   143   72  148 1    
   144   73  149 1    
   145   73  150 1    
   146   73  151 1    
   147   74   75 am   BACKBONE|DICT|INTERRES
   148   74  152 1    
   149   75   76 2    
   150   75   77 1    
   151   77   78 1    
   152   77   79 1    
   153   77  153 1    
   154   78  154 1    
   155   78  155 1    
   156   78  156 1    
   157   79   80 am   BACKBONE|DICT|INTERRES
   158   79  157 1    
   159   80   81 2    
@<TRIPOS>SUBSTRUCTURE
     1 UNK         1 GROUP             0       ****    0 ROOT    
