@<TRIPOS>MOLECULE
3R207
157   159    1
SMALL
USER_CHARGES


@<TRIPOS>ATOM
      1 CA        -49.2426  -24.0709    4.1388 C.3       0 UNK        -0.1975 
      2 C         -49.6406  -25.2319    5.0369 C.2       0 UNK         0.4852 
      3 O         -49.0578  -25.4039    6.1078 O.2       0 UNK        -0.5216 
      4 N         -50.6304  -26.0321    4.6196 N.am      1 UNK        -0.4461 
      5 CA        -51.1042  -27.2038    5.3620 C.3       1 UNK         0.0864 
      6 C6        -52.3932  -27.8080    4.7527 C.3       14 UNK        -0.0898 
      7 S7        -53.8325  -26.7333    5.0666 S.3       14 UNK        -0.2598 
      8 C8        -54.7274  -27.6661    6.3597 C.3       14 UNK         0.0286 
      9 C9        -53.8525  -28.0459    7.5513 C.ar      14 UNK        -0.0844 
     10 C10       -53.1233  -27.0707    8.2400 C.ar      14 UNK        -0.0881 
     11 C11       -52.2918  -27.4228    9.3068 C.ar      14 UNK        -0.0643 
     12 C12       -52.2441  -28.7543    9.7251 C.ar      14 UNK        -0.0930 
     13 C13       -52.9965  -29.7331    9.0728 C.ar      14 UNK        -0.0827 
     14 C14       -53.7811  -29.3783    7.9716 C.ar      14 UNK        -0.1249 
     15 C15       -52.9653  -31.1668    9.5792 C.3       14 UNK         0.0141 
     16 S16       -53.7939  -31.3145   11.1947 S.3       14 UNK        -0.2313 
     17 C17       -55.5564  -31.3287   10.7220 C.3       14 UNK        -0.0915 
     18 CA        -56.2187  -29.9260   10.6408 C.3       13 UNK         0.0968 
     19 C         -57.7093  -30.0591   10.2116 C.2       13 UNK         0.5732 
     20 N         -58.6795  -29.7582   11.0673 N.am      13 UNK        -0.7310 
     21 O         -57.9895  -30.4418    9.0781 O.2       13 UNK        -0.5035 
     22 N         -55.9876  -29.1201   11.8510 N.am      13 UNK        -0.4233 
     23 C         -56.1887  -27.8005   11.9418 C.2       13 UNK         0.4989 
     24 O         -56.5870  -27.1034   11.0082 O.2       13 UNK        -0.4996 
     25 CA        -55.9034  -27.1270   13.2962 C.3       12 UNK         0.0216 
     26 CB        -57.0702  -27.3400   14.2809 C.3       12 UNK        -0.1964 
     27 N         -54.6125  -27.4776   13.9047 N.am      12 UNK        -0.4276 
     28 C         -54.1921  -28.6545   14.3933 C.2       12 UNK         0.5020 
     29 O         -54.8597  -29.6896   14.3769 O.2       12 UNK        -0.5489 
     30 CA        -52.7762  -28.6769   14.9979 C.3       11 UNK         0.0294 
     31 CB        -51.7588  -29.0943   13.9259 C.3       11 UNK        -0.2019 
     32 N         -52.3774  -27.3847   15.5701 N.am      11 UNK        -0.4493 
     33 C         -52.9095  -26.8554   16.6825 C.2       11 UNK         0.4932 
     34 O         -53.7499  -27.4321   17.3751 O.2       11 UNK        -0.5029 
     35 CA        -52.4388  -25.4390   17.0642 C.3       10 UNK         0.0280 
     36 CB        -52.9182  -24.9914   18.4618 C.3       10 UNK        -0.1976 
     37 N         -50.9920  -25.2559   16.9207 N.am      10 UNK        -0.4242 
     38 C         -50.0104  -25.8845   17.5868 C.2       10 UNK         0.5072 
     39 O         -50.2046  -26.7356   18.4558 O.2       10 UNK        -0.5224 
     40 CA        -48.5555  -25.5144   17.2271 C.3       9 UNK         0.0343 
     41 CB        -47.8635  -26.6935   16.5240 C.3       9 UNK        -0.2003 
     42 N         -48.4367  -24.3235   16.3804 N.am      9 UNK        -0.4272 
     43 C         -48.6583  -23.0630   16.7803 C.2       9 UNK         0.4988 
     44 O         -48.8991  -22.7438   17.9446 O.2       9 UNK        -0.5108 
     45 CA        -48.6618  -21.9843   15.6829 C.3       8 UNK         0.0248 
     46 CB        -47.2403  -21.4596   15.4221 C.3       8 UNK        -0.2001 
     47 N         -49.2539  -22.4654   14.4296 N.am      8 UNK        -0.4140 
     48 C         -50.5516  -22.7651   14.2670 C.2       8 UNK         0.5028 
     49 O         -51.4021  -22.6242   15.1448 O.2       8 UNK        -0.5428 
     50 CA        -50.9605  -23.3779   12.9186 C.3       7 UNK         0.0264 
     51 CB        -51.1539  -22.2875   11.8537 C.3       7 UNK        -0.1988 
     52 N         -49.9876  -24.3634   12.4461 N.am      7 UNK        -0.4454 
     53 C         -49.8090  -25.5727   13.0036 C.2       7 UNK         0.5027 
     54 O         -50.4897  -25.9954   13.9394 O.2       7 UNK        -0.5083 
     55 CA        -48.6728  -26.4561   12.4376 C.3       6 UNK         0.0844 
     56 C56       -49.1861  -27.4191   11.3367 C.3       14 UNK        -0.0967 
     57 S57       -49.6732  -26.5971    9.7722 S.3       14 UNK        -0.2604 
     58 C58       -51.4677  -26.3604   10.0166 C.3       14 UNK         0.0134 
     59 N         -47.5228  -25.6813   11.9745 N.am      6 UNK        -0.4116 
     60 C         -46.8253  -24.7869   12.6869 C.2       5 UNK         0.5034 
     61 O         -46.9827  -24.6022   13.8930 O.2       5 UNK        -0.5045 
     62 CA        -45.8332  -23.9022   11.9100 C.3       5 UNK         0.0224 
     63 CB        -44.3879  -24.3310   12.2058 C.3       5 UNK        -0.1978 
     64 N         -46.0476  -23.9090   10.4574 N.am      5 UNK        -0.4737 
     65 C         -47.1448  -23.4973    9.8090 C.2       4 UNK         0.5027 
     66 O         -48.1180  -23.0018   10.3777 O.2       4 UNK        -0.5211 
     67 CA        -47.1967  -23.7554    8.2911 C.3       4 UNK         0.0297 
     68 CB        -46.3203  -22.7518    7.5177 C.3       4 UNK        -0.1993 
     69 N         -46.9111  -25.1496    7.9006 N.am      4 UNK        -0.4486 
     70 C         -45.7709  -25.8438    8.0473 C.2       3 UNK         0.4961 
     71 O         -44.7376  -25.3434    8.4952 O.2       3 UNK        -0.5105 
     72 CA        -45.7573  -27.3409    7.6822 C.3       3 UNK         0.0299 
     73 CB        -44.9019  -28.1433    8.6921 C.3       3 UNK        -0.1972 
     74 N         -47.0921  -27.9465    7.5700 N.am      3 UNK        -0.4305 
     75 C         -47.3211  -29.1211    6.9596 C.2       2 UNK         0.5006 
     76 O         -46.4592  -29.7547    6.3482 O.2       2 UNK        -0.5106 
     77 CA        -48.7390  -29.7101    7.0531 C.3       2 UNK         0.0296 
     78 CB        -49.0036  -30.3075    8.4444 C.3       2 UNK        -0.2002 
     79 N         -49.7807  -28.7414    6.7235 N.am      2 UNK        -0.4032 
     80 C         -49.9997  -28.2668    5.4900 C.2       1 UNK         0.5000 
     81 O         -49.3871  -28.6340    4.4833 O.2       1 UNK        -0.5238 
     82 H82       -48.1978  -24.1674    3.8450 H         1 UNK         0.0889 
     83 H83       -49.3609  -23.1283    4.6725 H         1 UNK         0.0889 
     84 H84       -49.8489  -24.0288    3.2342 H         1 UNK         0.0889 
     85 H85       -51.0762  -25.8625    3.7297 H         1 UNK         0.3028 
     86 H86       -51.3246  -26.8511    6.3686 H         1 UNK         0.0864 
     87 H87       -52.2830  -27.9493    3.6760 H         1 UNK         0.0720 
     88 H88       -52.5995  -28.7989    5.1626 H         1 UNK         0.0720 
     89 H89       -55.1638  -28.5561    5.9035 H         1 UNK         0.0814 
     90 H90       -55.5642  -27.0634    6.7151 H         1 UNK         0.0814 
     91 H91       -53.1831  -26.0388    7.9213 H         1 UNK         0.1469 
     92 H92       -51.6331  -29.0370   10.5688 H         1 UNK         0.1381 
     93 H93       -54.3566  -30.1368    7.4586 H         1 UNK         0.1206 
     94 H94       -53.4183  -31.8521    8.8614 H         1 UNK         0.0813 
     95 H95       -51.9284  -31.4847    9.6916 H         1 UNK         0.0813 
     96 H96       -56.0799  -31.9420   11.4575 H         1 UNK         0.0638 
     97 H97       -55.6550  -31.8538    9.7702 H         1 UNK         0.0638 
     98 H98       -55.7389  -29.3854    9.8261 H         1 UNK         0.0568 
     99 H99       -58.4597  -29.4481   11.9996 H         1 UNK         0.3450 
    100 H100      -59.6400  -29.8463   10.7755 H         1 UNK         0.3450 
    101 H101      -55.6359  -29.6068   12.6719 H         1 UNK         0.2987 
    102 H102      -55.8443  -26.0554   13.0980 H         1 UNK         0.0766 
    103 H103      -56.9085  -26.7919   15.2093 H         1 UNK         0.0798 
    104 H104      -57.2072  -28.3916   14.5344 H         1 UNK         0.0798 
    105 H105      -58.0093  -26.9846   13.8544 H         1 UNK         0.0798 
    106 H106      -53.9484  -26.7180   13.9528 H         1 UNK         0.3198 
    107 H107      -52.7638  -29.4218   15.7965 H         1 UNK         0.0843 
    108 H108      -51.9764  -30.0957   13.5517 H         1 UNK         0.0831 
    109 H109      -50.7419  -29.1051   14.3185 H         1 UNK         0.0831 
    110 H110      -51.7883  -28.4163   13.0736 H         1 UNK         0.0831 
    111 H111      -51.6735  -26.8523   15.0595 H         1 UNK         0.3133 
    112 H112      -52.8958  -24.7675   16.3359 H         1 UNK         0.0566 
    113 H113      -52.5882  -23.9772   18.6870 H         1 UNK         0.0814 
    114 H114      -54.0072  -24.9976   18.5216 H         1 UNK         0.0814 
    115 H115      -52.5467  -25.6483   19.2489 H         1 UNK         0.0814 
    116 H116      -50.7174  -24.5849   16.2152 H         1 UNK         0.3091 
    117 H117      -48.0285  -25.3169   18.1628 H         1 UNK         0.0702 
    118 H118      -46.8332  -26.4533   16.2600 H         1 UNK         0.0785 
    119 H119      -48.3879  -26.9780   15.6124 H         1 UNK         0.0785 
    120 H120      -47.8370  -27.5720   17.1701 H         1 UNK         0.0785 
    121 H121      -48.1479  -24.4767   15.4179 H         1 UNK         0.2998 
    122 H122      -49.2697  -21.1506   16.0411 H         1 UNK         0.0697 
    123 H123      -46.5729  -22.2448   15.0662 H         1 UNK         0.0825 
    124 H124      -46.8036  -21.0542   16.3359 H         1 UNK         0.0825 
    125 H125      -47.2416  -20.6586   14.6827 H         1 UNK         0.0825 
    126 H126      -48.6194  -22.6460   13.6655 H         1 UNK         0.3029 
    127 H127      -51.9174  -23.8855   13.0605 H         1 UNK         0.0897 
    128 H128      -51.4916  -22.7132   10.9085 H         1 UNK         0.0792 
    129 H129      -51.9051  -21.5626   12.1702 H         1 UNK         0.0792 
    130 H130      -50.2311  -21.7388   11.6613 H         1 UNK         0.0792 
    131 H131      -49.3924  -24.0825   11.6728 H         1 UNK         0.3086 
    132 H132      -48.3154  -27.0700   13.2656 H         1 UNK         0.0583 
    133 H133      -50.0045  -28.0281   11.7147 H         1 UNK         0.1020 
    134 H134      -48.3952  -28.1321   11.0992 H         1 UNK         0.1020 
    135 H135      -51.7241  -26.3647   11.0757 H         1 UNK         0.0694 
    136 H136      -51.7291  -25.3666    9.6499 H         1 UNK         0.0694 
    137 H137      -47.3285  -25.7360   10.9862 H         1 UNK         0.2989 
    138 H138      -45.9725  -22.8783   12.2630 H         1 UNK         0.1055 
    139 H139      -44.1865  -24.3174   13.2782 H         1 UNK         0.0806 
    140 H140      -43.6708  -23.6585   11.7347 H         1 UNK         0.0806 
    141 H141      -44.1857  -25.3412   11.8473 H         1 UNK         0.0806 
    142 H142      -45.3252  -24.3447    9.8850 H         1 UNK         0.3061 
    143 H143      -48.2300  -23.5781    7.9881 H         1 UNK         0.0734 
    144 H144      -46.6105  -21.7260    7.7487 H         1 UNK         0.0832 
    145 H145      -45.2629  -22.8510    7.7637 H         1 UNK         0.0832 
    146 H146      -46.4280  -22.8841    6.4412 H         1 UNK         0.0832 
    147 H147      -47.6886  -25.5859    7.4090 H         1 UNK         0.3156 
    148 H148      -45.2765  -27.3981    6.7036 H         1 UNK         0.0589 
    149 H149      -45.3331  -28.1107    9.6933 H         1 UNK         0.0808 
    150 H150      -44.8053  -29.1901    8.4055 H         1 UNK         0.0808 
    151 H151      -43.8874  -27.7484    8.7602 H         1 UNK         0.0808 
    152 H152      -47.8521  -27.4841    8.0508 H         1 UNK         0.3098 
    153 H153      -48.8015  -30.5257    6.3291 H         1 UNK         0.0720 
    154 H154      -49.9546  -30.8383    8.4671 H         1 UNK         0.0791 
    155 H155      -49.0285  -29.5438    9.2202 H         1 UNK         0.0791 
    156 H156      -48.2276  -31.0245    8.7161 H         1 UNK         0.0791 
    157 H157      -50.3372  -28.3902    7.4909 H         1 UNK         0.3028 
@<TRIPOS>BOND
     1    1    2 1    
     2    1   82 1    
     3    1   83 1    
     4    1   84 1    
     5    2    3 2    
     6    2    4 am   BACKBONE|DICT|INTERRES
     7    4    5 1    
     8    4   85 1    
     9    5    6 1    
    10    5   80 1    
    11    5   86 1    
    12    6    7 1    
    13    6   87 1    
    14    6   88 1    
    15    7    8 1    
    16    8    9 1    
    17    8   89 1    
    18    8   90 1    
    19    9   10 ar   
    20    9   14 ar   
    21   10   11 ar   
    22   10   91 1    
    23   11   12 ar   
    24   11   58 1    
    25   12   13 ar   
    26   12   92 1    
    27   13   14 ar   
    28   13   15 1    
    29   14   93 1    
    30   15   16 1    
    31   15   94 1    
    32   15   95 1    
    33   16   17 1    
    34   17   18 1    
    35   17   96 1    
    36   17   97 1    
    37   18   19 1    
    38   18   22 1    
    39   18   98 1    
    40   19   20 am   BACKBONE|DICT|INTERRES
    41   19   21 2    
    42   20   99 1    
    43   20  100 1    
    44   22   23 am   BACKBONE|DICT|INTERRES
    45   22  101 1    
    46   23   24 2    
    47   23   25 1    
    48   25   26 1    
    49   25   27 1    
    50   25  102 1    
    51   26  103 1    
    52   26  104 1    
    53   26  105 1    
    54   27   28 am   BACKBONE|DICT|INTERRES
    55   27  106 1    
    56   28   29 2    
    57   28   30 1    
    58   30   31 1    
    59   30   32 1    
    60   30  107 1    
    61   31  108 1    
    62   31  109 1    
    63   31  110 1    
    64   32   33 am   BACKBONE|DICT|INTERRES
    65   32  111 1    
    66   33   34 2    
    67   33   35 1    
    68   35   36 1    
    69   35   37 1    
    70   35  112 1    
    71   36  113 1    
    72   36  114 1    
    73   36  115 1    
    74   37   38 am   BACKBONE|DICT|INTERRES
    75   37  116 1    
    76   38   39 2    
    77   38   40 1    
    78   40   41 1    
    79   40   42 1    
    80   40  117 1    
    81   41  118 1    
    82   41  119 1    
    83   41  120 1    
    84   42   43 am   BACKBONE|DICT|INTERRES
    85   42  121 1    
    86   43   44 2    
    87   43   45 1    
    88   45   46 1    
    89   45   47 1    
    90   45  122 1    
    91   46  123 1    
    92   46  124 1    
    93   46  125 1    
    94   47   48 am   BACKBONE|DICT|INTERRES
    95   47  126 1    
    96   48   49 2    
    97   48   50 1    
    98   50   51 1    
    99   50   52 1    
   100   50  127 1    
   101   51  128 1    
   102   51  129 1    
   103   51  130 1    
   104   52   53 am   BACKBONE|DICT|INTERRES
   105   52  131 1    
   106   53   54 2    
   107   53   55 1    
   108   55   56 1    
   109   55   59 1    
   110   55  132 1    
   111   56   57 1    
   112   56  133 1    
   113   56  134 1    
   114   57   58 1    
   115   58  135 1    
   116   58  136 1    
   117   59   60 am   BACKBONE|DICT|INTERRES
   118   59  137 1    
   119   60   61 2    
   120   60   62 1    
   121   62   63 1    
   122   62   64 1    
   123   62  138 1    
   124   63  139 1    
   125   63  140 1    
   126   63  141 1    
   127   64   65 am   BACKBONE|DICT|INTERRES
   128   64  142 1    
   129   65   66 2    
   130   65   67 1    
   131   67   68 1    
   132   67   69 1    
   133   67  143 1    
   134   68  144 1    
   135   68  145 1    
   136   68  146 1    
   137   69   70 am   BACKBONE|DICT|INTERRES
   138   69  147 1    
   139   70   71 2    
   140   70   72 1    
   141   72   73 1    
   142   72   74 1    
   143   72  148 1    
   144   73  149 1    
   145   73  150 1    
   146   73  151 1    
   147   74   75 am   BACKBONE|DICT|INTERRES
   148   74  152 1    
   149   75   76 2    
   150   75   77 1    
   151   77   78 1    
   152   77   79 1    
   153   77  153 1    
   154   78  154 1    
   155   78  155 1    
   156   78  156 1    
   157   79   80 am   BACKBONE|DICT|INTERRES
   158   79  157 1    
   159   80   81 2    
@<TRIPOS>SUBSTRUCTURE
     1 UNK         1 GROUP             0       ****    0 ROOT    
