@<TRIPOS>MOLECULE
3R207
157   159    1
SMALL
USER_CHARGES


@<TRIPOS>ATOM
      1 CA        -45.2976  -29.7481    3.6476 C.3       0 UNK        -0.1975 
      2 C         -45.6425  -29.9981    5.1141 C.2       0 UNK         0.4852 
      3 O         -44.7865  -30.4708    5.8602 O.2       0 UNK        -0.5216 
      4 N         -46.8676  -29.7095    5.5795 N.am      1 UNK        -0.4461 
      5 CA        -47.9913  -29.1141    4.8399 C.3       1 UNK         0.0864 
      6 C6        -49.3034  -29.1711    5.6575 C.3       14 UNK        -0.0898 
      7 S7        -49.8643  -30.8542    6.0911 S.3       14 UNK        -0.2598 
      8 C8        -49.8985  -30.8106    7.9219 C.3       14 UNK         0.0286 
      9 C9        -51.1076  -30.1077    8.5511 C.ar      14 UNK        -0.0844 
     10 C10       -51.6871  -28.9678    7.9807 C.ar      14 UNK        -0.0881 
     11 C11       -52.7147  -28.2774    8.6238 C.ar      14 UNK        -0.0643 
     12 C12       -53.2082  -28.7603    9.8346 C.ar      14 UNK        -0.0930 
     13 C13       -52.6514  -29.8979   10.4233 C.ar      14 UNK        -0.0827 
     14 C14       -51.6042  -30.5665    9.7783 C.ar      14 UNK        -0.1249 
     15 C15       -53.1189  -30.3321   11.8026 C.3       14 UNK         0.0141 
     16 S16       -54.8166  -30.9745   11.8252 S.3       14 UNK        -0.2313 
     17 C17       -55.2007  -30.7297   13.5970 C.3       14 UNK        -0.0915 
     18 CA        -56.0496  -29.4533   13.8654 C.3       13 UNK         0.0968 
     19 C         -56.5124  -29.3220   15.3460 C.2       13 UNK         0.5732 
     20 N         -56.7383  -28.1171   15.8615 N.am      13 UNK        -0.7310 
     21 O         -56.6887  -30.3212   16.0397 O.2       13 UNK        -0.5035 
     22 N         -55.3755  -28.2288   13.4037 N.am      13 UNK        -0.4233 
     23 C         -55.8146  -27.4394   12.4165 C.2       13 UNK         0.4989 
     24 O         -56.7918  -27.6972   11.7109 O.2       13 UNK        -0.4996 
     25 CA        -55.0293  -26.1319   12.1869 C.3       12 UNK         0.0216 
     26 CB        -55.7593  -25.1516   11.2442 C.3       12 UNK        -0.1964 
     27 N         -54.6430  -25.4492   13.4280 N.am      12 UNK        -0.4276 
     28 C         -55.4543  -25.0615   14.4221 C.2       12 UNK         0.5020 
     29 O         -56.6610  -25.3113   14.4647 O.2       12 UNK        -0.5489 
     30 CA        -54.7843  -24.3589   15.6062 C.3       11 UNK         0.0294 
     31 CB        -55.8099  -23.6324   16.5065 C.3       11 UNK        -0.2019 
     32 N         -54.0613  -25.3874   16.3441 N.am      11 UNK        -0.4493 
     33 C         -53.2641  -25.2235   17.4006 C.2       11 UNK         0.4932 
     34 O         -53.0085  -24.1376   17.9214 O.2       11 UNK        -0.5029 
     35 CA        -52.6484  -26.5056   17.9805 C.3       10 UNK         0.0280 
     36 CB        -53.7250  -27.5138   18.4342 C.3       10 UNK        -0.1976 
     37 N         -51.6688  -27.1285   17.0864 N.am      10 UNK        -0.4242 
     38 C         -51.8425  -27.6878   15.8808 C.2       10 UNK         0.5072 
     39 O         -52.9285  -27.7706   15.2936 O.2       10 UNK        -0.5224 
     40 CA        -50.5579  -28.2512   15.2425 C.3       9 UNK         0.0343 
     41 CB        -50.8343  -29.0937   13.9923 C.3       9 UNK        -0.2003 
     42 N         -49.6032  -27.1973   14.8957 N.am      9 UNK        -0.4272 
     43 C         -48.8105  -26.5554   15.7644 C.2       9 UNK         0.4988 
     44 O         -48.8022  -26.7844   16.9757 O.2       9 UNK        -0.5108 
     45 CA        -47.8745  -25.4774   15.1952 C.3       8 UNK         0.0248 
     46 CB        -46.6058  -26.1223   14.6148 C.3       8 UNK        -0.2001 
     47 N         -48.5139  -24.6364   14.1798 N.am      8 UNK        -0.4140 
     48 C         -49.5098  -23.7725   14.4287 C.2       8 UNK         0.5028 
     49 O         -49.9716  -23.5638   15.5508 O.2       8 UNK        -0.5428 
     50 CA        -50.0950  -23.0097   13.2268 C.3       7 UNK         0.0264 
     51 CB        -49.2130  -21.8052   12.8602 C.3       7 UNK        -0.1988 
     52 N         -50.2874  -23.8536   12.0462 N.am      7 UNK        -0.4454 
     53 C         -51.1463  -24.8821   11.9791 C.2       7 UNK         0.5027 
     54 O         -51.9015  -25.2044   12.8972 O.2       7 UNK        -0.5083 
     55 CA        -51.1445  -25.6965   10.6679 C.3       6 UNK         0.0844 
     56 C56       -52.0122  -24.9771    9.5999 C.3       14 UNK        -0.0967 
     57 S57       -51.9616  -25.7097    7.9297 S.3       14 UNK        -0.2604 
     58 C58       -53.2551  -26.9931    8.0137 C.3       14 UNK         0.0134 
     59 N         -49.7762  -25.9889   10.2251 N.am      6 UNK        -0.4116 
     60 C         -48.8833  -26.6976   10.9352 C.2       5 UNK         0.5034 
     61 O         -49.1276  -27.2330   12.0152 O.2       5 UNK        -0.5045 
     62 CA        -47.4500  -26.7573   10.3899 C.3       5 UNK         0.0224 
     63 CB        -47.3053  -27.8653    9.3332 C.3       5 UNK        -0.1978 
     64 N         -47.0313  -25.4619    9.8471 N.am      5 UNK        -0.4737 
     65 C         -46.7696  -24.3890   10.6113 C.2       4 UNK         0.5027 
     66 O         -46.8060  -24.4088   11.8402 O.2       4 UNK        -0.5211 
     67 CA        -46.4532  -23.0611    9.9000 C.3       4 UNK         0.0297 
     68 CB        -44.9415  -22.9332    9.6551 C.3       4 UNK        -0.1993 
     69 N         -47.1665  -22.9002    8.6331 N.am      4 UNK        -0.4486 
     70 C         -48.4997  -22.8468    8.5004 C.2       3 UNK         0.4961 
     71 O         -49.2818  -22.8354    9.4518 O.2       3 UNK        -0.5105 
     72 CA        -49.0484  -22.8758    7.0599 C.3       3 UNK         0.0299 
     73 CB        -49.2879  -21.4477    6.5468 C.3       3 UNK        -0.1972 
     74 N         -48.1866  -23.6037    6.1140 N.am      3 UNK        -0.4305 
     75 C         -47.8578  -24.8977    6.2376 C.2       2 UNK         0.5006 
     76 O         -48.2587  -25.6116    7.1599 O.2       2 UNK        -0.5106 
     77 CA        -46.8520  -25.4669    5.2234 C.3       2 UNK         0.0296 
     78 CB        -45.4194  -25.0588    5.6095 C.3       2 UNK        -0.2002 
     79 N         -46.9391  -26.9272    5.2297 N.am      2 UNK        -0.4032 
     80 C         -47.7478  -27.6423    4.4385 C.2       1 UNK         0.5000 
     81 O         -48.3214  -27.1837    3.4496 O.2       1 UNK        -0.5238 
     82 H82       -45.1326  -28.6861    3.4663 H         1 UNK         0.0889 
     83 H83       -46.0828  -30.1034    2.9807 H         1 UNK         0.0889 
     84 H84       -44.3816  -30.2760    3.3800 H         1 UNK         0.0889 
     85 H85       -47.0671  -29.9320    6.5439 H         1 UNK         0.3028 
     86 H86       -48.1435  -29.6867    3.9229 H         1 UNK         0.0864 
     87 H87       -50.1165  -28.7080    5.0935 H         1 UNK         0.0720 
     88 H88       -49.1883  -28.5801    6.5682 H         1 UNK         0.0720 
     89 H89       -49.8649  -31.8448    8.2678 H         1 UNK         0.0814 
     90 H90       -48.9859  -30.3416    8.2903 H         1 UNK         0.0814 
     91 H91       -51.3345  -28.5702    7.0457 H         1 UNK         0.1469 
     92 H92       -54.0103  -28.2393   10.3328 H         1 UNK         0.1381 
     93 H93       -51.1524  -31.4288   10.2500 H         1 UNK         0.1206 
     94 H94       -52.4456  -31.0752   12.2325 H         1 UNK         0.0813 
     95 H95       -53.0850  -29.4590   12.4507 H         1 UNK         0.0813 
     96 H96       -54.2777  -30.7047   14.1796 H         1 UNK         0.0638 
     97 H97       -55.7405  -31.6184   13.9286 H         1 UNK         0.0638 
     98 H98       -56.9836  -29.5828   13.3165 H         1 UNK         0.0568 
     99 H99       -56.6842  -27.2848   15.2873 H         1 UNK         0.3450 
    100 H100      -57.0512  -28.0481   16.8163 H         1 UNK         0.3450 
    101 H101      -54.5720  -27.9433   13.9538 H         1 UNK         0.2987 
    102 H102      -54.0953  -26.4197   11.7056 H         1 UNK         0.0766 
    103 H103      -55.1773  -24.2439   11.0848 H         1 UNK         0.0798 
    104 H104      -56.7307  -24.8584   11.6446 H         1 UNK         0.0798 
    105 H105      -55.9324  -25.6018   10.2659 H         1 UNK         0.0798 
    106 H106      -53.6421  -25.2657   13.5081 H         1 UNK         0.3198 
    107 H107      -54.0693  -23.6308   15.2171 H         1 UNK         0.0843 
    108 H108      -56.4826  -24.3356   16.9992 H         1 UNK         0.0831 
    109 H109      -56.4248  -22.9477   15.9210 H         1 UNK         0.0831 
    110 H110      -55.3227  -23.0382   17.2789 H         1 UNK         0.0831 
    111 H111      -54.0992  -26.3244   15.9519 H         1 UNK         0.3133 
    112 H112      -52.0893  -26.2100   18.8696 H         1 UNK         0.0566 
    113 H113      -53.2762  -28.3572   18.9587 H         1 UNK         0.0814 
    114 H114      -54.4316  -27.0451   19.1205 H         1 UNK         0.0814 
    115 H115      -54.3016  -27.9135   17.5998 H         1 UNK         0.0814 
    116 H116      -50.7028  -27.0573   17.3959 H         1 UNK         0.3091 
    117 H117      -50.0958  -28.9114   15.9797 H         1 UNK         0.0702 
    118 H118      -51.5463  -29.8892   14.2126 H         1 UNK         0.0785 
    119 H119      -51.2379  -28.4766   13.1893 H         1 UNK         0.0785 
    120 H120      -49.9239  -29.5646   13.6211 H         1 UNK         0.0785 
    121 H121      -49.5298  -26.9712   13.9073 H         1 UNK         0.2998 
    122 H122      -47.5756  -24.8303   16.0226 H         1 UNK         0.0697 
    123 H123      -46.8320  -26.7546   13.7555 H         1 UNK         0.0825 
    124 H124      -46.1079  -26.7462   15.3584 H         1 UNK         0.0825 
    125 H125      -45.8886  -25.3666   14.2940 H         1 UNK         0.0825 
    126 H126      -48.1325  -24.6894   13.2388 H         1 UNK         0.3029 
    127 H127      -51.0763  -22.6330   13.5243 H         1 UNK         0.0897 
    128 H128      -49.6448  -21.2310   12.0400 H         1 UNK         0.0792 
    129 H129      -48.2112  -22.1141   12.5610 H         1 UNK         0.0792 
    130 H130      -49.1053  -21.1290   13.7094 H         1 UNK         0.0792 
    131 H131      -49.7481  -23.6168   11.2173 H         1 UNK         0.3086 
    132 H132      -51.6113  -26.6580   10.8880 H         1 UNK         0.0583 
    133 H133      -53.0510  -24.9272    9.9283 H         1 UNK         0.1020 
    134 H134      -51.6949  -23.9385    9.4892 H         1 UNK         0.1020 
    135 H135      -54.1190  -26.6200    8.5658 H         1 UNK         0.0694 
    136 H136      -53.6045  -27.2048    7.0022 H         1 UNK         0.0694 
    137 H137      -49.4935  -25.5960    9.3369 H         1 UNK         0.2989 
    138 H138      -46.7867  -27.0024   11.2228 H         1 UNK         0.1055 
    139 H139      -47.4749  -28.8451    9.7822 H         1 UNK         0.0806 
    140 H140      -46.3054  -27.8763    8.8986 H         1 UNK         0.0806 
    141 H141      -48.0274  -27.7565    8.5249 H         1 UNK         0.0806 
    142 H142      -47.0809  -25.3557    8.8406 H         1 UNK         0.3061 
    143 H143      -46.7636  -22.2491   10.5607 H         1 UNK         0.0734 
    144 H144      -44.6881  -21.9631    9.2267 H         1 UNK         0.0832 
    145 H145      -44.3874  -23.0262   10.5903 H         1 UNK         0.0832 
    146 H146      -44.5728  -23.7073    8.9805 H         1 UNK         0.0832 
    147 H147      -46.6069  -22.8907    7.7936 H         1 UNK         0.3156 
    148 H148      -50.0101  -23.3918    7.0914 H         1 UNK         0.0589 
    149 H149      -48.3577  -20.8840    6.4669 H         1 UNK         0.0808 
    150 H150      -49.7646  -21.4523    5.5663 H         1 UNK         0.0808 
    151 H151      -49.9455  -20.8971    7.2212 H         1 UNK         0.0808 
    152 H152      -47.8149  -23.0757    5.3366 H         1 UNK         0.3098 
    153 H153      -47.0828  -25.0753    4.2302 H         1 UNK         0.0720 
    154 H154      -45.1585  -25.3904    6.6159 H         1 UNK         0.0791 
    155 H155      -45.2952  -23.9756    5.5790 H         1 UNK         0.0791 
    156 H156      -44.6896  -25.4844    4.9198 H         1 UNK         0.0791 
    157 H157      -46.5544  -27.3884    6.0411 H         1 UNK         0.3028 
@<TRIPOS>BOND
     1    1    2 1    
     2    1   82 1    
     3    1   83 1    
     4    1   84 1    
     5    2    3 2    
     6    2    4 am   BACKBONE|DICT|INTERRES
     7    4    5 1    
     8    4   85 1    
     9    5    6 1    
    10    5   80 1    
    11    5   86 1    
    12    6    7 1    
    13    6   87 1    
    14    6   88 1    
    15    7    8 1    
    16    8    9 1    
    17    8   89 1    
    18    8   90 1    
    19    9   10 ar   
    20    9   14 ar   
    21   10   11 ar   
    22   10   91 1    
    23   11   12 ar   
    24   11   58 1    
    25   12   13 ar   
    26   12   92 1    
    27   13   14 ar   
    28   13   15 1    
    29   14   93 1    
    30   15   16 1    
    31   15   94 1    
    32   15   95 1    
    33   16   17 1    
    34   17   18 1    
    35   17   96 1    
    36   17   97 1    
    37   18   19 1    
    38   18   22 1    
    39   18   98 1    
    40   19   20 am   BACKBONE|DICT|INTERRES
    41   19   21 2    
    42   20   99 1    
    43   20  100 1    
    44   22   23 am   BACKBONE|DICT|INTERRES
    45   22  101 1    
    46   23   24 2    
    47   23   25 1    
    48   25   26 1    
    49   25   27 1    
    50   25  102 1    
    51   26  103 1    
    52   26  104 1    
    53   26  105 1    
    54   27   28 am   BACKBONE|DICT|INTERRES
    55   27  106 1    
    56   28   29 2    
    57   28   30 1    
    58   30   31 1    
    59   30   32 1    
    60   30  107 1    
    61   31  108 1    
    62   31  109 1    
    63   31  110 1    
    64   32   33 am   BACKBONE|DICT|INTERRES
    65   32  111 1    
    66   33   34 2    
    67   33   35 1    
    68   35   36 1    
    69   35   37 1    
    70   35  112 1    
    71   36  113 1    
    72   36  114 1    
    73   36  115 1    
    74   37   38 am   BACKBONE|DICT|INTERRES
    75   37  116 1    
    76   38   39 2    
    77   38   40 1    
    78   40   41 1    
    79   40   42 1    
    80   40  117 1    
    81   41  118 1    
    82   41  119 1    
    83   41  120 1    
    84   42   43 am   BACKBONE|DICT|INTERRES
    85   42  121 1    
    86   43   44 2    
    87   43   45 1    
    88   45   46 1    
    89   45   47 1    
    90   45  122 1    
    91   46  123 1    
    92   46  124 1    
    93   46  125 1    
    94   47   48 am   BACKBONE|DICT|INTERRES
    95   47  126 1    
    96   48   49 2    
    97   48   50 1    
    98   50   51 1    
    99   50   52 1    
   100   50  127 1    
   101   51  128 1    
   102   51  129 1    
   103   51  130 1    
   104   52   53 am   BACKBONE|DICT|INTERRES
   105   52  131 1    
   106   53   54 2    
   107   53   55 1    
   108   55   56 1    
   109   55   59 1    
   110   55  132 1    
   111   56   57 1    
   112   56  133 1    
   113   56  134 1    
   114   57   58 1    
   115   58  135 1    
   116   58  136 1    
   117   59   60 am   BACKBONE|DICT|INTERRES
   118   59  137 1    
   119   60   61 2    
   120   60   62 1    
   121   62   63 1    
   122   62   64 1    
   123   62  138 1    
   124   63  139 1    
   125   63  140 1    
   126   63  141 1    
   127   64   65 am   BACKBONE|DICT|INTERRES
   128   64  142 1    
   129   65   66 2    
   130   65   67 1    
   131   67   68 1    
   132   67   69 1    
   133   67  143 1    
   134   68  144 1    
   135   68  145 1    
   136   68  146 1    
   137   69   70 am   BACKBONE|DICT|INTERRES
   138   69  147 1    
   139   70   71 2    
   140   70   72 1    
   141   72   73 1    
   142   72   74 1    
   143   72  148 1    
   144   73  149 1    
   145   73  150 1    
   146   73  151 1    
   147   74   75 am   BACKBONE|DICT|INTERRES
   148   74  152 1    
   149   75   76 2    
   150   75   77 1    
   151   77   78 1    
   152   77   79 1    
   153   77  153 1    
   154   78  154 1    
   155   78  155 1    
   156   78  156 1    
   157   79   80 am   BACKBONE|DICT|INTERRES
   158   79  157 1    
   159   80   81 2    
@<TRIPOS>SUBSTRUCTURE
     1 UNK         1 GROUP             0       ****    0 ROOT    
