@<TRIPOS>MOLECULE
3R207
157   159    1
SMALL
USER_CHARGES


@<TRIPOS>ATOM
      1 CA        -45.6913  -31.6482    3.4101 C.3       0 UNK        -0.1975 
      2 C         -46.5584  -30.3991    3.4672 C.2       0 UNK         0.4852 
      3 O         -46.3347  -29.4629    2.6982 O.2       0 UNK        -0.5216 
      4 N         -47.5518  -30.3828    4.3644 N.am      1 UNK        -0.4461 
      5 CA        -48.4359  -29.2436    4.6254 C.3       1 UNK         0.0864 
      6 C6        -49.7194  -29.6613    5.3919 C.3       14 UNK        -0.0898 
      7 S7        -49.4316  -30.7548    6.8297 S.3       14 UNK        -0.2598 
      8 C8        -49.6255  -29.5981    8.2194 C.3       14 UNK         0.0286 
      9 C9        -51.0777  -29.2222    8.4579 C.ar      14 UNK        -0.0844 
     10 C10       -51.5214  -27.9239    8.1973 C.ar      14 UNK        -0.0881 
     11 C11       -52.8521  -27.5707    8.4349 C.ar      14 UNK        -0.0643 
     12 C12       -53.7443  -28.5352    8.9134 C.ar      14 UNK        -0.0930 
     13 C13       -53.3124  -29.8416    9.1843 C.ar      14 UNK        -0.0827 
     14 C14       -51.9737  -30.1707    8.9564 C.ar      14 UNK        -0.1249 
     15 C15       -54.2533  -30.9350    9.6958 C.3       14 UNK         0.0141 
     16 S16       -55.7306  -30.3392   10.5841 S.3       14 UNK        -0.2313 
     17 C17       -54.9703  -29.4810   12.0009 C.3       14 UNK        -0.0915 
     18 CA        -55.6458  -29.8524   13.3497 C.3       13 UNK         0.0968 
     19 C         -54.9347  -31.0330   14.0730 C.2       13 UNK         0.5732 
     20 N         -54.4602  -30.8692   15.3028 N.am      13 UNK        -0.7310 
     21 O         -54.8225  -32.1219   13.5158 O.2       13 UNK        -0.5035 
     22 N         -55.8126  -28.6522   14.1780 N.am      13 UNK        -0.4233 
     23 C         -56.8545  -28.3987   14.9788 C.2       13 UNK         0.4989 
     24 O         -57.7994  -29.1708   15.1462 O.2       13 UNK        -0.4996 
     25 CA        -56.8508  -27.0493   15.7147 C.3       12 UNK         0.0216 
     26 CB        -56.5546  -27.2496   17.2105 C.3       12 UNK        -0.1964 
     27 N         -55.8654  -26.1202   15.1569 N.am      12 UNK        -0.4276 
     28 C         -56.0892  -25.2544   14.1562 C.2       12 UNK         0.5020 
     29 O         -57.1771  -25.1502   13.5873 O.2       12 UNK        -0.5489 
     30 CA        -54.9064  -24.3681   13.6961 C.3       11 UNK         0.0294 
     31 CB        -55.3468  -22.9290   13.3571 C.3       11 UNK        -0.2019 
     32 N         -53.7668  -24.3632   14.6234 N.am      11 UNK        -0.4493 
     33 C         -53.7645  -23.9863   15.9125 C.2       11 UNK         0.4932 
     34 O         -54.7068  -23.4088   16.4563 O.2       11 UNK        -0.5029 
     35 CA        -52.5325  -24.3720   16.7548 C.3       10 UNK         0.0280 
     36 CB        -52.9088  -24.6964   18.2161 C.3       10 UNK        -0.1976 
     37 N         -51.7259  -25.4633   16.1886 N.am      10 UNK        -0.4242 
     38 C         -52.1042  -26.7236   15.9109 C.2       10 UNK         0.5072 
     39 O         -53.2599  -27.1285   16.0580 O.2       10 UNK        -0.5224 
     40 CA        -51.0461  -27.6910   15.3336 C.3       9 UNK         0.0343 
     41 CB        -51.5750  -28.4042   14.0751 C.3       9 UNK        -0.2003 
     42 N         -49.7749  -27.0387   15.0059 N.am      9 UNK        -0.4272 
     43 C         -48.8037  -26.7359   15.8790 C.2       9 UNK         0.4988 
     44 O         -48.8153  -27.0770   17.0617 O.2       9 UNK        -0.5108 
     45 CA        -47.6585  -25.8442   15.3603 C.3       8 UNK         0.0248 
     46 CB        -46.5286  -26.6989   14.7660 C.3       8 UNK        -0.2001 
     47 N         -48.1104  -24.8466   14.3797 N.am      8 UNK        -0.4140 
     48 C         -48.9863  -23.8672   14.6541 C.2       8 UNK         0.5028 
     49 O         -49.4300  -23.6554   15.7818 O.2       8 UNK        -0.5428 
     50 CA        -49.5077  -23.0190   13.4832 C.3       7 UNK         0.0264 
     51 CB        -48.5517  -21.8555   13.1782 C.3       7 UNK        -0.1988 
     52 N         -49.7406  -23.8024   12.2689 N.am      7 UNK        -0.4454 
     53 C         -50.6659  -24.7647   12.1333 C.2       7 UNK         0.5027 
     54 O         -51.4716  -25.0648   13.0155 O.2       7 UNK        -0.5083 
     55 CA        -50.6485  -25.5550   10.8048 C.3       6 UNK         0.0844 
     56 C56       -51.3645  -24.7785    9.6692 C.3       14 UNK        -0.0967 
     57 S57       -53.1625  -25.0890    9.6387 S.3       14 UNK        -0.2604 
     58 C58       -53.3328  -26.1516    8.1674 C.3       14 UNK         0.0134 
     59 N         -49.2837  -25.9469   10.4305 N.am      6 UNK        -0.4116 
     60 C         -48.4960  -26.7515   11.1603 C.2       5 UNK         0.5034 
     61 O         -48.8739  -27.3422   12.1711 O.2       5 UNK        -0.5045 
     62 CA        -47.0192  -26.8609   10.7421 C.3       5 UNK         0.0224 
     63 CB        -46.7806  -28.0181    9.7665 C.3       5 UNK        -0.1978 
     64 N         -46.5144  -25.6193   10.1563 N.am      5 UNK        -0.4737 
     65 C         -46.2322  -24.5221   10.8698 C.2       4 UNK         0.5027 
     66 O         -46.3184  -24.4667   12.0956 O.2       4 UNK        -0.5211 
     67 CA        -45.8426  -23.2659   10.0738 C.3       4 UNK         0.0297 
     68 CB        -44.3546  -23.3051    9.6920 C.3       4 UNK        -0.1993 
     69 N         -46.6591  -23.0883    8.8685 N.am      4 UNK        -0.4486 
     70 C         -47.9825  -22.8737    8.8785 C.2       3 UNK         0.4961 
     71 O         -48.6476  -22.7693    9.9066 O.2       3 UNK        -0.5105 
     72 CA        -48.6998  -22.7972    7.5225 C.3       3 UNK         0.0299 
     73 CB        -48.7818  -21.3396    7.0436 C.3       3 UNK        -0.1972 
     74 N         -48.0820  -23.6216    6.4815 N.am      3 UNK        -0.4305 
     75 C         -48.0264  -24.9610    6.4809 C.2       2 UNK         0.5006 
     76 O         -48.4587  -25.6697    7.3941 O.2       2 UNK        -0.5106 
     77 CA        -47.3425  -25.5744    5.2490 C.3       2 UNK         0.0296 
     78 CB        -45.8096  -25.6230    5.4227 C.3       2 UNK        -0.2002 
     79 N         -47.9144  -26.8651    4.8414 N.am      2 UNK        -0.4032 
     80 C         -47.6733  -28.0943    5.3222 C.2       1 UNK         0.5000 
     81 O         -46.8895  -28.3535    6.2384 O.2       1 UNK        -0.5238 
     82 H82       -45.7403  -32.0944    2.4172 H         1 UNK         0.0889 
     83 H83       -46.0087  -32.3979    4.1349 H         1 UNK         0.0889 
     84 H84       -44.6527  -31.3932    3.6191 H         1 UNK         0.0889 
     85 H85       -47.6719  -31.1620    4.9966 H         1 UNK         0.3028 
     86 H86       -48.7602  -28.8726    3.6502 H         1 UNK         0.0864 
     87 H87       -50.2980  -28.7861    5.6920 H         1 UNK         0.0720 
     88 H88       -50.3707  -30.2103    4.7102 H         1 UNK         0.0720 
     89 H89       -49.0313  -28.7074    8.0231 H         1 UNK         0.0814 
     90 H90       -49.2199  -30.0544    9.1231 H         1 UNK         0.0814 
     91 H91       -50.8272  -27.1881    7.8151 H         1 UNK         0.1469 
     92 H92       -54.7756  -28.2565    9.0760 H         1 UNK         0.1381 
     93 H93       -51.6253  -31.1754    9.1548 H         1 UNK         0.1206 
     94 H94       -53.7113  -31.6128   10.3577 H         1 UNK         0.0813 
     95 H95       -54.5812  -31.5324    8.8442 H         1 UNK         0.0813 
     96 H96       -53.8936  -29.6608   12.0292 H         1 UNK         0.0638 
     97 H97       -55.0768  -28.4146   11.7933 H         1 UNK         0.0638 
     98 H98       -56.6490  -30.2229   13.1308 H         1 UNK         0.0568 
     99 H99       -54.0092  -31.6438   15.7629 H         1 UNK         0.3450 
    100 H100      -54.5477  -29.9828   15.7730 H         1 UNK         0.3450 
    101 H101      -55.0642  -27.9771   14.1423 H         1 UNK         0.2987 
    102 H102      -57.8495  -26.6180   15.6191 H         1 UNK         0.0766 
    103 H103      -56.5753  -26.3013   17.7481 H         1 UNK         0.0798 
    104 H104      -55.5770  -27.7047   17.3740 H         1 UNK         0.0798 
    105 H105      -57.2984  -27.9002   17.6726 H         1 UNK         0.0798 
    106 H106      -54.9287  -26.1799   15.5480 H         1 UNK         0.3198 
    107 H107      -54.5350  -24.8224   12.7758 H         1 UNK         0.0843 
    108 H108      -55.7948  -22.4284   14.2158 H         1 UNK         0.0831 
    109 H109      -56.0882  -22.9253   12.5573 H         1 UNK         0.0831 
    110 H110      -54.5041  -22.3271   13.0174 H         1 UNK         0.0831 
    111 H111      -52.9133  -24.7747   14.2487 H         1 UNK         0.3133 
    112 H112      -51.8915  -23.4903   16.7670 H         1 UNK         0.0566 
    113 H113      -52.0281  -24.9549   18.8039 H         1 UNK         0.0814 
    114 H114      -53.3786  -23.8404   18.7020 H         1 UNK         0.0814 
    115 H115      -53.6098  -25.5298   18.2772 H         1 UNK         0.0814 
    116 H116      -50.7672  -25.2010   15.9868 H         1 UNK         0.3091 
    117 H117      -50.8613  -28.4499   16.0963 H         1 UNK         0.0702 
    118 H118      -52.4692  -28.9856   14.2987 H         1 UNK         0.0785 
    119 H119      -51.8337  -27.6978   13.2861 H         1 UNK         0.0785 
    120 H120      -50.8355  -29.0958   13.6711 H         1 UNK         0.0785 
    121 H121      -49.6484  -26.7719   14.0352 H         1 UNK         0.2998 
    122 H122      -47.2528  -25.2977   16.2143 H         1 UNK         0.0697 
    123 H123      -46.8850  -27.3341   13.9562 H         1 UNK         0.0825 
    124 H124      -46.1019  -27.3558   15.5250 H         1 UNK         0.0825 
    125 H125      -45.7185  -26.0798   14.3800 H         1 UNK         0.0825 
    126 H126      -47.7102  -24.8963   13.4473 H         1 UNK         0.3029 
    127 H127      -50.4677  -22.5967   13.7885 H         1 UNK         0.0897 
    128 H128      -48.9514  -21.2095   12.3963 H         1 UNK         0.0792 
    129 H129      -47.5740  -22.2087   12.8505 H         1 UNK         0.0792 
    130 H130      -48.3958  -21.2367   14.0629 H         1 UNK         0.0792 
    131 H131      -49.1722  -23.5600   11.4587 H         1 UNK         0.3086 
    132 H132      -51.1876  -26.4895   10.9775 H         1 UNK         0.0583 
    133 H133      -51.1995  -23.7020    9.7476 H         1 UNK         0.1020 
    134 H134      -50.9502  -25.0527    8.6992 H         1 UNK         0.1020 
    135 H135      -54.3829  -26.1694    7.8720 H         1 UNK         0.0694 
    136 H136      -52.7924  -25.7148    7.3262 H         1 UNK         0.0694 
    137 H137      -48.8989  -25.5330    9.5911 H         1 UNK         0.2989 
    138 H138      -46.4452  -27.0720   11.6465 H         1 UNK         0.1055 
    139 H139      -47.2468  -28.9388   10.1190 H         1 UNK         0.0806 
    140 H140      -45.7158  -28.2198    9.6495 H         1 UNK         0.0806 
    141 H141      -47.1785  -27.7905    8.7798 H         1 UNK         0.0806 
    142 H142      -46.4531  -25.5775    9.1488 H         1 UNK         0.3061 
    143 H143      -46.0073  -22.4011   10.7203 H         1 UNK         0.0734 
    144 H144      -44.0459  -22.3816    9.2018 H         1 UNK         0.0832 
    145 H145      -43.7293  -23.4232   10.5782 H         1 UNK         0.0832 
    146 H146      -44.1278  -24.1347    9.0211 H         1 UNK         0.0832 
    147 H147      -46.1887  -23.1510    7.9777 H         1 UNK         0.3156 
    148 H148      -49.7186  -23.1602    7.6689 H         1 UNK         0.0589 
    149 H149      -47.7940  -20.9192    6.8503 H         1 UNK         0.0808 
    150 H150      -49.3693  -21.2538    6.1292 H         1 UNK         0.0808 
    151 H151      -49.2622  -20.7096    7.7939 H         1 UNK         0.0808 
    152 H152      -47.6945  -23.1242    5.6919 H         1 UNK         0.3098 
    153 H153      -47.5466  -24.9122    4.4058 H         1 UNK         0.0720 
    154 H154      -45.3268  -26.0947    4.5666 H         1 UNK         0.0791 
    155 H155      -45.5159  -26.1715    6.3183 H         1 UNK         0.0791 
    156 H156      -45.3946  -24.6187    5.5141 H         1 UNK         0.0791 
    157 H157      -48.5974  -26.7925    4.1001 H         1 UNK         0.3028 
@<TRIPOS>BOND
     1    1    2 1    
     2    1   82 1    
     3    1   83 1    
     4    1   84 1    
     5    2    3 2    
     6    2    4 am   BACKBONE|DICT|INTERRES
     7    4    5 1    
     8    4   85 1    
     9    5    6 1    
    10    5   80 1    
    11    5   86 1    
    12    6    7 1    
    13    6   87 1    
    14    6   88 1    
    15    7    8 1    
    16    8    9 1    
    17    8   89 1    
    18    8   90 1    
    19    9   10 ar   
    20    9   14 ar   
    21   10   11 ar   
    22   10   91 1    
    23   11   12 ar   
    24   11   58 1    
    25   12   13 ar   
    26   12   92 1    
    27   13   14 ar   
    28   13   15 1    
    29   14   93 1    
    30   15   16 1    
    31   15   94 1    
    32   15   95 1    
    33   16   17 1    
    34   17   18 1    
    35   17   96 1    
    36   17   97 1    
    37   18   19 1    
    38   18   22 1    
    39   18   98 1    
    40   19   20 am   BACKBONE|DICT|INTERRES
    41   19   21 2    
    42   20   99 1    
    43   20  100 1    
    44   22   23 am   BACKBONE|DICT|INTERRES
    45   22  101 1    
    46   23   24 2    
    47   23   25 1    
    48   25   26 1    
    49   25   27 1    
    50   25  102 1    
    51   26  103 1    
    52   26  104 1    
    53   26  105 1    
    54   27   28 am   BACKBONE|DICT|INTERRES
    55   27  106 1    
    56   28   29 2    
    57   28   30 1    
    58   30   31 1    
    59   30   32 1    
    60   30  107 1    
    61   31  108 1    
    62   31  109 1    
    63   31  110 1    
    64   32   33 am   BACKBONE|DICT|INTERRES
    65   32  111 1    
    66   33   34 2    
    67   33   35 1    
    68   35   36 1    
    69   35   37 1    
    70   35  112 1    
    71   36  113 1    
    72   36  114 1    
    73   36  115 1    
    74   37   38 am   BACKBONE|DICT|INTERRES
    75   37  116 1    
    76   38   39 2    
    77   38   40 1    
    78   40   41 1    
    79   40   42 1    
    80   40  117 1    
    81   41  118 1    
    82   41  119 1    
    83   41  120 1    
    84   42   43 am   BACKBONE|DICT|INTERRES
    85   42  121 1    
    86   43   44 2    
    87   43   45 1    
    88   45   46 1    
    89   45   47 1    
    90   45  122 1    
    91   46  123 1    
    92   46  124 1    
    93   46  125 1    
    94   47   48 am   BACKBONE|DICT|INTERRES
    95   47  126 1    
    96   48   49 2    
    97   48   50 1    
    98   50   51 1    
    99   50   52 1    
   100   50  127 1    
   101   51  128 1    
   102   51  129 1    
   103   51  130 1    
   104   52   53 am   BACKBONE|DICT|INTERRES
   105   52  131 1    
   106   53   54 2    
   107   53   55 1    
   108   55   56 1    
   109   55   59 1    
   110   55  132 1    
   111   56   57 1    
   112   56  133 1    
   113   56  134 1    
   114   57   58 1    
   115   58  135 1    
   116   58  136 1    
   117   59   60 am   BACKBONE|DICT|INTERRES
   118   59  137 1    
   119   60   61 2    
   120   60   62 1    
   121   62   63 1    
   122   62   64 1    
   123   62  138 1    
   124   63  139 1    
   125   63  140 1    
   126   63  141 1    
   127   64   65 am   BACKBONE|DICT|INTERRES
   128   64  142 1    
   129   65   66 2    
   130   65   67 1    
   131   67   68 1    
   132   67   69 1    
   133   67  143 1    
   134   68  144 1    
   135   68  145 1    
   136   68  146 1    
   137   69   70 am   BACKBONE|DICT|INTERRES
   138   69  147 1    
   139   70   71 2    
   140   70   72 1    
   141   72   73 1    
   142   72   74 1    
   143   72  148 1    
   144   73  149 1    
   145   73  150 1    
   146   73  151 1    
   147   74   75 am   BACKBONE|DICT|INTERRES
   148   74  152 1    
   149   75   76 2    
   150   75   77 1    
   151   77   78 1    
   152   77   79 1    
   153   77  153 1    
   154   78  154 1    
   155   78  155 1    
   156   78  156 1    
   157   79   80 am   BACKBONE|DICT|INTERRES
   158   79  157 1    
   159   80   81 2    
@<TRIPOS>SUBSTRUCTURE
     1 UNK         1 GROUP             0       ****    0 ROOT    
