@<TRIPOS>MOLECULE
3R207
157   159    1
SMALL
USER_CHARGES


@<TRIPOS>ATOM
      1 CA        -47.1005  -32.8375    2.4581 C.3       0 UNK        -0.1975 
      2 C         -47.6950  -31.7211    3.3044 C.2       0 UNK         0.4852 
      3 O         -47.9581  -31.9308    4.4892 O.2       0 UNK        -0.5216 
      4 N         -47.9099  -30.5433    2.7007 N.am      1 UNK        -0.4461 
      5 CA        -48.4271  -29.3247    3.3339 C.3       1 UNK         0.0864 
      6 C6        -49.8889  -29.4847    3.8460 C.3       14 UNK        -0.0898 
      7 S7        -50.7597  -27.8871    3.9848 S.3       14 UNK        -0.2598 
      8 C8        -52.4080  -28.4307    4.5312 C.3       14 UNK         0.0286 
      9 C9        -52.6240  -28.2093    6.0224 C.ar      14 UNK        -0.0844 
     10 C10       -52.0482  -29.0719    6.9617 C.ar      14 UNK        -0.0881 
     11 C11       -52.3009  -28.8996    8.3255 C.ar      14 UNK        -0.0643 
     12 C12       -53.1539  -27.8754    8.7390 C.ar      14 UNK        -0.0930 
     13 C13       -53.6996  -26.9730    7.8234 C.ar      14 UNK        -0.0827 
     14 C14       -53.4299  -27.1523    6.4625 C.ar      14 UNK        -0.1249 
     15 C15       -54.5494  -25.7832    8.2736 C.3       14 UNK         0.0141 
     16 S16       -55.5145  -26.0556    9.8029 S.3       14 UNK        -0.2313 
     17 C17       -54.3729  -25.4490   11.1060 C.3       14 UNK        -0.0915 
     18 CA        -54.8085  -25.6726   12.5952 C.3       13 UNK         0.0968 
     19 C         -56.3286  -25.4937   12.8890 C.2       13 UNK         0.5732 
     20 N         -56.9011  -24.3601   12.5041 N.am      13 UNK        -0.7310 
     21 O         -56.9937  -26.3460   13.4751 O.2       13 UNK        -0.5035 
     22 N         -54.2157  -26.8581   13.2366 N.am      13 UNK        -0.4233 
     23 C         -54.3801  -28.1482   12.9137 C.2       13 UNK         0.4989 
     24 O         -54.9453  -28.5482   11.8978 O.2       13 UNK        -0.4996 
     25 CA        -53.8250  -29.1890   13.9065 C.3       12 UNK         0.0216 
     26 CB        -52.4178  -29.6639   13.5161 C.3       12 UNK        -0.1964 
     27 N         -53.7944  -28.6988   15.2863 N.am      12 UNK        -0.4276 
     28 C         -54.8461  -28.7223   16.1152 C.2       12 UNK         0.5020 
     29 O         -55.9433  -29.1981   15.8208 O.2       12 UNK        -0.5489 
     30 CA        -54.6398  -28.1294   17.5193 C.3       11 UNK         0.0294 
     31 CB        -54.2138  -29.2263   18.5084 C.3       11 UNK        -0.2019 
     32 N         -53.6677  -27.0341   17.5698 N.am      11 UNK        -0.4493 
     33 C         -53.8227  -25.8331   17.0006 C.2       11 UNK         0.4932 
     34 O         -54.7763  -25.5324   16.2839 O.2       11 UNK        -0.5029 
     35 CA        -52.7367  -24.7832   17.2775 C.3       10 UNK         0.0280 
     36 CB        -52.8397  -24.2312   18.7127 C.3       10 UNK        -0.1976 
     37 N         -51.3714  -25.2185   16.9610 N.am      10 UNK        -0.4242 
     38 C         -50.6162  -26.1626   17.5436 C.2       10 UNK         0.5072 
     39 O         -51.0099  -26.8764   18.4679 O.2       10 UNK        -0.5224 
     40 CA        -49.1837  -26.3660   17.0071 C.3       9 UNK         0.0343 
     41 CB        -49.0652  -27.7199   16.2870 C.3       9 UNK        -0.2003 
     42 N         -48.7324  -25.3024   16.1041 N.am      9 UNK        -0.4272 
     43 C         -48.4087  -24.0564   16.4801 C.2       9 UNK         0.4988 
     44 O         -48.3527  -23.6884   17.6537 O.2       9 UNK        -0.5108 
     45 CA        -48.1526  -23.0345   15.3562 C.3       8 UNK         0.0248 
     46 CB        -46.6789  -23.0604   14.9215 C.3       8 UNK        -0.2001 
     47 N         -49.0270  -23.2275   14.1914 N.am      8 UNK        -0.4140 
     48 C         -50.3635  -23.1062   14.2243 C.2       8 UNK         0.5028 
     49 O         -50.9884  -22.7574   15.2245 O.2       8 UNK        -0.5428 
     50 CA        -51.1493  -23.4836   12.9590 C.3       7 UNK         0.0264 
     51 CB        -51.1752  -22.3168   11.9604 C.3       7 UNK        -0.1988 
     52 N         -50.6330  -24.6892   12.3096 N.am      7 UNK        -0.4454 
     53 C         -50.6729  -25.9204   12.8413 C.2       7 UNK         0.5027 
     54 O         -51.2283  -26.1816   13.9094 O.2       7 UNK        -0.5083 
     55 CA        -49.9481  -27.0450   12.0679 C.3       6 UNK         0.0844 
     56 C56       -50.8552  -27.6030   10.9511 C.3       14 UNK        -0.0967 
     57 S57       -50.1757  -29.0780   10.1158 S.3       14 UNK        -0.2604 
     58 C58       -51.6679  -29.8150    9.3644 C.3       14 UNK         0.0134 
     59 N         -48.6467  -26.6068   11.5605 N.am      6 UNK        -0.4116 
     60 C         -47.6271  -26.2005   12.3288 C.2       5 UNK         0.5034 
     61 O         -47.6461  -26.2127   13.5590 O.2       5 UNK        -0.5045 
     62 CA        -46.4035  -25.6273   11.6014 C.3       5 UNK         0.0224 
     63 CB        -45.4660  -26.7503   11.1309 C.3       5 UNK        -0.1978 
     64 N         -46.7995  -24.7904   10.4661 N.am      5 UNK        -0.4737 
     65 C         -47.3518  -23.5754   10.5899 C.2       4 UNK         0.5027 
     66 O         -47.5400  -23.0217   11.6723 O.2       4 UNK        -0.5211 
     67 CA        -47.8028  -22.8757    9.2964 C.3       4 UNK         0.0297 
     68 CB        -46.6204  -22.1519    8.6338 C.3       4 UNK        -0.1993 
     69 N         -48.4223  -23.7914    8.3348 N.am      4 UNK        -0.4486 
     70 C         -49.5830  -24.4299    8.5394 C.2       3 UNK         0.4961 
     71 O         -50.2702  -24.2939    9.5493 O.2       3 UNK        -0.5105 
     72 CA        -50.0376  -25.4210    7.4561 C.3       3 UNK         0.0299 
     73 CB        -50.8171  -24.6824    6.3570 C.3       3 UNK        -0.1972 
     74 N         -48.9597  -26.2122    6.8503 N.am      3 UNK        -0.4305 
     75 C         -48.0528  -26.9471    7.5154 C.2       2 UNK         0.5006 
     76 O         -47.9342  -26.9398    8.7407 O.2       2 UNK        -0.5106 
     77 CA        -47.1373  -27.8446    6.6692 C.3       2 UNK         0.0296 
     78 CB        -46.4619  -28.9596    7.4928 C.3       2 UNK        -0.2002 
     79 N         -47.9037  -28.4289    5.5712 N.am      2 UNK        -0.4032 
     80 C         -47.4209  -28.7745    4.3730 C.2       1 UNK         0.5000 
     81 O         -46.2342  -28.6555    4.0555 O.2       1 UNK        -0.5238 
     82 H82       -46.1487  -33.1603    2.8790 H         1 UNK         0.0889 
     83 H83       -46.9268  -32.5224    1.4293 H         1 UNK         0.0889 
     84 H84       -47.7739  -33.6941    2.4409 H         1 UNK         0.0889 
     85 H85       -47.6398  -30.4366    1.7325 H         1 UNK         0.3028 
     86 H86       -48.4426  -28.5841    2.5324 H         1 UNK         0.0864 
     87 H87       -50.4537  -30.0894    3.1343 H         1 UNK         0.0720 
     88 H88       -49.9321  -30.0291    4.7904 H         1 UNK         0.0720 
     89 H89       -52.5634  -29.4829    4.2884 H         1 UNK         0.0814 
     90 H90       -53.1565  -27.8813    3.9582 H         1 UNK         0.0814 
     91 H91       -51.4130  -29.8821    6.6331 H         1 UNK         0.1469 
     92 H92       -53.3763  -27.7762    9.7886 H         1 UNK         0.1381 
     93 H93       -53.8555  -26.4690    5.7402 H         1 UNK         0.1206 
     94 H94       -55.2571  -25.5277    7.4836 H         1 UNK         0.0813 
     95 H95       -53.9034  -24.9132    8.3987 H         1 UNK         0.0813 
     96 H96       -54.2653  -24.3765   10.9370 H         1 UNK         0.0638 
     97 H97       -53.3751  -25.8534   10.9401 H         1 UNK         0.0638 
     98 H98       -54.3471  -24.8640   13.1631 H         1 UNK         0.0568 
     99 H99       -57.8817  -24.2212   12.6897 H         1 UNK         0.3450 
    100 H100      -56.3791  -23.6531   12.0117 H         1 UNK         0.3450 
    101 H101      -53.7415  -26.6605   14.1057 H         1 UNK         0.2987 
    102 H102      -54.4860  -30.0575   13.8571 H         1 UNK         0.0766 
    103 H103      -52.0988  -30.4991   14.1399 H         1 UNK         0.0798 
    104 H104      -51.6801  -28.8716   13.6255 H         1 UNK         0.0798 
    105 H105      -52.3904  -30.0097   12.4833 H         1 UNK         0.0798 
    106 H106      -52.9297  -28.2974   15.6197 H         1 UNK         0.3198 
    107 H107      -55.6027  -27.7304   17.8458 H         1 UNK         0.0843 
    108 H108      -53.2378  -29.6422   18.2549 H         1 UNK         0.0831 
    109 H109      -54.9293  -30.0499   18.5106 H         1 UNK         0.0831 
    110 H110      -54.1607  -28.8430   19.5276 H         1 UNK         0.0831 
    111 H111      -52.8167  -27.1809   18.1099 H         1 UNK         0.3133 
    112 H112      -52.9375  -23.9509   16.6016 H         1 UNK         0.0566 
    113 H113      -52.1279  -23.4216   18.8746 H         1 UNK         0.0814 
    114 H114      -53.8358  -23.8298   18.9036 H         1 UNK         0.0814 
    115 H115      -52.6509  -24.9978   19.4647 H         1 UNK         0.0814 
    116 H116      -50.9523  -24.7109   16.1910 H         1 UNK         0.3091 
    117 H117      -48.5163  -26.3820   17.8712 H         1 UNK         0.0702 
    118 H118      -48.0444  -27.9010   15.9498 H         1 UNK         0.0785 
    119 H119      -49.7180  -27.7739   15.4160 H         1 UNK         0.0785 
    120 H120      -49.3378  -28.5420   16.9501 H         1 UNK         0.0785 
    121 H121      -48.6607  -25.5430   15.1196 H         1 UNK         0.2998 
    122 H122      -48.3654  -22.0430   15.7614 H         1 UNK         0.0697 
    123 H123      -46.3951  -24.0283   14.5094 H         1 UNK         0.0825 
    124 H124      -46.0202  -22.8622   15.7679 H         1 UNK         0.0825 
    125 H125      -46.4737  -22.3010   14.1668 H         1 UNK         0.0825 
    126 H126      -48.5734  -23.4413   13.3075 H         1 UNK         0.3029 
    127 H127      -52.1776  -23.6877   13.2638 H         1 UNK         0.0897 
    128 H128      -51.8096  -22.5445   11.1034 H         1 UNK         0.0792 
    129 H129      -51.5703  -21.4126   12.4253 H         1 UNK         0.0792 
    130 H130      -50.1784  -22.0836   11.5852 H         1 UNK         0.0792 
    131 H131      -50.2450  -24.5669   11.3757 H         1 UNK         0.3086 
    132 H132      -49.7517  -27.8492   12.7792 H         1 UNK         0.0583 
    133 H133      -51.8250  -27.8697   11.3687 H         1 UNK         0.1020 
    134 H134      -51.0407  -26.8355   10.1989 H         1 UNK         0.1020 
    135 H135      -51.3942  -30.7670    8.9074 H         1 UNK         0.0694 
    136 H136      -52.3955  -30.0509   10.1415 H         1 UNK         0.0694 
    137 H137      -48.5186  -26.6230   10.5517 H         1 UNK         0.2989 
    138 H138      -45.8549  -25.0039   12.3107 H         1 UNK         0.1055 
    139 H139      -45.1092  -27.3363   11.9789 H         1 UNK         0.0806 
    140 H140      -44.5892  -26.3499   10.6220 H         1 UNK         0.0806 
    141 H141      -45.9653  -27.4395   10.4501 H         1 UNK         0.0806 
    142 H142      -46.7741  -25.2235    9.5521 H         1 UNK         0.3061 
    143 H143      -48.5485  -22.1265    9.5710 H         1 UNK         0.0734 
    144 H144      -46.9420  -21.5790    7.7639 H         1 UNK         0.0832 
    145 H145      -46.1567  -21.4495    9.3281 H         1 UNK         0.0832 
    146 H146      -45.8461  -22.8491    8.3111 H         1 UNK         0.0832 
    147 H147      -47.9217  -23.9703    7.4766 H         1 UNK         0.3156 
    148 H148      -50.7179  -26.1311    7.9294 H         1 UNK         0.0589 
    149 H149      -50.1862  -23.9764    5.8159 H         1 UNK         0.0808 
    150 H150      -51.2405  -25.3773    5.6328 H         1 UNK         0.0808 
    151 H151      -51.6493  -24.1195    6.7824 H         1 UNK         0.0808 
    152 H152      -48.9616  -26.2594    5.8416 H         1 UNK         0.3098 
    153 H153      -46.3604  -27.1961    6.2593 H         1 UNK         0.0720 
    154 H154      -45.8284  -29.5896    6.8683 H         1 UNK         0.0791 
    155 H155      -47.1997  -29.6008    7.9772 H         1 UNK         0.0791 
    156 H156      -45.8273  -28.5406    8.2740 H         1 UNK         0.0791 
    157 H157      -48.8947  -28.5466    5.7379 H         1 UNK         0.3028 
@<TRIPOS>BOND
     1    1    2 1    
     2    1   82 1    
     3    1   83 1    
     4    1   84 1    
     5    2    3 2    
     6    2    4 am   BACKBONE|DICT|INTERRES
     7    4    5 1    
     8    4   85 1    
     9    5    6 1    
    10    5   80 1    
    11    5   86 1    
    12    6    7 1    
    13    6   87 1    
    14    6   88 1    
    15    7    8 1    
    16    8    9 1    
    17    8   89 1    
    18    8   90 1    
    19    9   10 ar   
    20    9   14 ar   
    21   10   11 ar   
    22   10   91 1    
    23   11   12 ar   
    24   11   58 1    
    25   12   13 ar   
    26   12   92 1    
    27   13   14 ar   
    28   13   15 1    
    29   14   93 1    
    30   15   16 1    
    31   15   94 1    
    32   15   95 1    
    33   16   17 1    
    34   17   18 1    
    35   17   96 1    
    36   17   97 1    
    37   18   19 1    
    38   18   22 1    
    39   18   98 1    
    40   19   20 am   BACKBONE|DICT|INTERRES
    41   19   21 2    
    42   20   99 1    
    43   20  100 1    
    44   22   23 am   BACKBONE|DICT|INTERRES
    45   22  101 1    
    46   23   24 2    
    47   23   25 1    
    48   25   26 1    
    49   25   27 1    
    50   25  102 1    
    51   26  103 1    
    52   26  104 1    
    53   26  105 1    
    54   27   28 am   BACKBONE|DICT|INTERRES
    55   27  106 1    
    56   28   29 2    
    57   28   30 1    
    58   30   31 1    
    59   30   32 1    
    60   30  107 1    
    61   31  108 1    
    62   31  109 1    
    63   31  110 1    
    64   32   33 am   BACKBONE|DICT|INTERRES
    65   32  111 1    
    66   33   34 2    
    67   33   35 1    
    68   35   36 1    
    69   35   37 1    
    70   35  112 1    
    71   36  113 1    
    72   36  114 1    
    73   36  115 1    
    74   37   38 am   BACKBONE|DICT|INTERRES
    75   37  116 1    
    76   38   39 2    
    77   38   40 1    
    78   40   41 1    
    79   40   42 1    
    80   40  117 1    
    81   41  118 1    
    82   41  119 1    
    83   41  120 1    
    84   42   43 am   BACKBONE|DICT|INTERRES
    85   42  121 1    
    86   43   44 2    
    87   43   45 1    
    88   45   46 1    
    89   45   47 1    
    90   45  122 1    
    91   46  123 1    
    92   46  124 1    
    93   46  125 1    
    94   47   48 am   BACKBONE|DICT|INTERRES
    95   47  126 1    
    96   48   49 2    
    97   48   50 1    
    98   50   51 1    
    99   50   52 1    
   100   50  127 1    
   101   51  128 1    
   102   51  129 1    
   103   51  130 1    
   104   52   53 am   BACKBONE|DICT|INTERRES
   105   52  131 1    
   106   53   54 2    
   107   53   55 1    
   108   55   56 1    
   109   55   59 1    
   110   55  132 1    
   111   56   57 1    
   112   56  133 1    
   113   56  134 1    
   114   57   58 1    
   115   58  135 1    
   116   58  136 1    
   117   59   60 am   BACKBONE|DICT|INTERRES
   118   59  137 1    
   119   60   61 2    
   120   60   62 1    
   121   62   63 1    
   122   62   64 1    
   123   62  138 1    
   124   63  139 1    
   125   63  140 1    
   126   63  141 1    
   127   64   65 am   BACKBONE|DICT|INTERRES
   128   64  142 1    
   129   65   66 2    
   130   65   67 1    
   131   67   68 1    
   132   67   69 1    
   133   67  143 1    
   134   68  144 1    
   135   68  145 1    
   136   68  146 1    
   137   69   70 am   BACKBONE|DICT|INTERRES
   138   69  147 1    
   139   70   71 2    
   140   70   72 1    
   141   72   73 1    
   142   72   74 1    
   143   72  148 1    
   144   73  149 1    
   145   73  150 1    
   146   73  151 1    
   147   74   75 am   BACKBONE|DICT|INTERRES
   148   74  152 1    
   149   75   76 2    
   150   75   77 1    
   151   77   78 1    
   152   77   79 1    
   153   77  153 1    
   154   78  154 1    
   155   78  155 1    
   156   78  156 1    
   157   79   80 am   BACKBONE|DICT|INTERRES
   158   79  157 1    
   159   80   81 2    
@<TRIPOS>SUBSTRUCTURE
     1 UNK         1 GROUP             0       ****    0 ROOT    
