@<TRIPOS>MOLECULE
3R207
157   159    1
SMALL
USER_CHARGES


@<TRIPOS>ATOM
      1 CA        -49.3057  -27.5648    0.6492 C.3       0 UNK        -0.1975 
      2 C         -49.6231  -27.3845    2.1265 C.2       0 UNK         0.4852 
      3 O         -49.2800  -28.2514    2.9306 O.2       0 UNK        -0.5216 
      4 N         -50.2765  -26.2669    2.4793 N.am      1 UNK        -0.4461 
      5 CA        -50.6653  -25.8743    3.8419 C.3       1 UNK         0.0864 
      6 C6        -51.7313  -26.8274    4.4642 C.3       14 UNK        -0.0898 
      7 S7        -53.0720  -25.9251    5.3135 S.3       14 UNK        -0.2598 
      8 C8        -52.5180  -25.9236    7.0471 C.3       14 UNK         0.0286 
      9 C9        -52.6483  -27.2924    7.7014 C.ar      14 UNK        -0.0844 
     10 C10       -51.5278  -28.1169    7.8464 C.ar      14 UNK        -0.0881 
     11 C11       -51.6420  -29.3713    8.4512 C.ar      14 UNK        -0.0643 
     12 C12       -52.8929  -29.8068    8.8936 C.ar      14 UNK        -0.0930 
     13 C13       -54.0151  -28.9782    8.7911 C.ar      14 UNK        -0.0827 
     14 C14       -53.8858  -27.7219    8.1908 C.ar      14 UNK        -0.1249 
     15 C15       -55.3671  -29.4430    9.3192 C.3       14 UNK         0.0141 
     16 S16       -55.5276  -29.1901   11.1190 S.3       14 UNK        -0.2313 
     17 C17       -54.3945  -30.4756   11.7382 C.3       14 UNK        -0.0915 
     18 CA        -54.5658  -30.8051   13.2373 C.3       13 UNK         0.0968 
     19 C         -53.6823  -32.0234   13.6200 C.2       13 UNK         0.5732 
     20 N         -54.2516  -33.2204   13.6511 N.am      13 UNK        -0.7310 
     21 O         -52.4789  -31.8963   13.8410 O.2       13 UNK        -0.5035 
     22 N         -54.2637  -29.6378   14.0710 N.am      13 UNK        -0.4233 
     23 C         -54.5359  -29.5515   15.3783 C.2       13 UNK         0.4989 
     24 O         -55.1341  -30.4204   16.0149 O.2       13 UNK        -0.4996 
     25 CA        -54.0661  -28.2834   16.1102 C.3       12 UNK         0.0216 
     26 CB        -52.7011  -28.5346   16.7711 C.3       12 UNK        -0.1964 
     27 N         -53.9812  -27.0971   15.2537 N.am      12 UNK        -0.4276 
     28 C         -55.0179  -26.5101   14.6402 C.2       12 UNK         0.5020 
     29 O         -56.1858  -26.8917   14.7464 O.2       12 UNK        -0.5489 
     30 CA        -54.6749  -25.2755   13.7854 C.3       11 UNK         0.0294 
     31 CB        -55.9047  -24.6586   13.0864 C.3       11 UNK        -0.2019 
     32 N         -53.9397  -24.2572   14.5475 N.am      11 UNK        -0.4493 
     33 C         -54.3412  -23.6362   15.6687 C.2       11 UNK         0.4932 
     34 O         -55.4401  -23.8099   16.1992 O.2       11 UNK        -0.5029 
     35 CA        -53.3346  -22.6529   16.3007 C.3       10 UNK         0.0280 
     36 CB        -53.8060  -22.1004   17.6629 C.3       10 UNK        -0.1976 
     37 N         -51.9802  -23.2058   16.4174 N.am      10 UNK        -0.4242 
     38 C         -51.5924  -24.3255   17.0471 C.2       10 UNK         0.5072 
     39 O         -52.3647  -25.0738   17.6467 O.2       10 UNK        -0.5224 
     40 CA        -50.0846  -24.6633   16.9918 C.3       9 UNK         0.0343 
     41 CB        -49.7669  -26.0719   17.5259 C.3       9 UNK        -0.2003 
     42 N         -49.5267  -24.5261   15.6412 N.am      9 UNK        -0.4272 
     43 C         -49.1975  -23.3581   15.0703 C.2       9 UNK         0.4988 
     44 O         -49.2862  -22.2755   15.6509 O.2       9 UNK        -0.5108 
     45 CA        -48.7599  -23.3704   13.5988 C.3       8 UNK         0.0248 
     46 CB        -47.2309  -23.4608   13.4826 C.3       8 UNK        -0.2001 
     47 N         -49.3831  -24.4165   12.7852 N.am      8 UNK        -0.4140 
     48 C         -50.6963  -24.5269   12.5333 C.2       8 UNK         0.5028 
     49 O         -51.5649  -23.8476   13.0820 O.2       8 UNK        -0.5428 
     50 CA        -51.1026  -25.5555   11.4708 C.3       7 UNK         0.0264 
     51 CB        -50.6973  -25.0510   10.0767 C.3       7 UNK        -0.1988 
     52 N         -50.4553  -26.8399   11.7156 N.am      7 UNK        -0.4454 
     53 C         -51.0054  -27.8757   12.3636 C.2       7 UNK         0.5027 
     54 O         -52.1583  -27.8820   12.8021 O.2       7 UNK        -0.5083 
     55 CA        -50.0955  -29.1032   12.6070 C.3       6 UNK         0.0844 
     56 C56       -50.2021  -30.1486   11.4637 C.3       14 UNK        -0.0967 
     57 S57       -49.3085  -29.6781    9.9359 S.3       14 UNK        -0.2604 
     58 C58       -50.4170  -30.2599    8.6116 C.3       14 UNK         0.0134 
     59 N         -48.6952  -28.7507   12.8651 N.am      6 UNK        -0.4116 
     60 C         -48.2345  -27.9176   13.8067 C.2       5 UNK         0.5034 
     61 O         -48.9383  -27.3631   14.6503 O.2       5 UNK        -0.5045 
     62 CA        -46.7293  -27.5988   13.7546 C.3       5 UNK         0.0224 
     63 CB        -45.9401  -28.6234   14.5849 C.3       5 UNK        -0.1978 
     64 N         -46.1492  -27.5151   12.4026 N.am      5 UNK        -0.4737 
     65 C         -46.6158  -26.7744   11.3861 C.2       4 UNK         0.5027 
     66 O         -47.6719  -26.1405   11.4317 O.2       4 UNK        -0.5211 
     67 CA        -45.7806  -26.7673   10.0946 C.3       4 UNK         0.0297 
     68 CB        -45.9637  -28.0776    9.3126 C.3       4 UNK        -0.1993 
     69 N         -46.1611  -25.6508    9.2273 N.am      4 UNK        -0.4486 
     70 C         -45.8312  -24.3696    9.4371 C.2       3 UNK         0.4961 
     71 O         -45.0603  -23.9983   10.3235 O.2       3 UNK        -0.5105 
     72 CA        -46.4560  -23.3457    8.4751 C.3       3 UNK         0.0299 
     73 CB        -45.7554  -21.9732    8.5062 C.3       3 UNK        -0.1972 
     74 N         -46.4570  -23.8779    7.1116 N.am      3 UNK        -0.4305 
     75 C         -47.4198  -23.6907    6.2016 C.2       2 UNK         0.5006 
     76 O         -48.4110  -22.9818    6.3916 O.2       2 UNK        -0.5106 
     77 CA        -47.2326  -24.3856    4.8345 C.3       2 UNK         0.0296 
     78 CB        -46.2541  -25.5844    4.8655 C.3       2 UNK        -0.2002 
     79 N         -48.5076  -24.7838    4.2239 N.am      2 UNK        -0.4032 
     80 C         -49.4213  -25.6281    4.7317 C.2       1 UNK         0.5000 
     81 O         -49.2901  -26.2097    5.8112 O.2       1 UNK        -0.5238 
     82 H82       -48.2285  -27.6439    0.5043 H         1 UNK         0.0889 
     83 H83       -49.6683  -26.7314    0.0477 H         1 UNK         0.0889 
     84 H84       -49.7677  -28.4783    0.2755 H         1 UNK         0.0889 
     85 H85       -50.5291  -25.6066    1.7563 H         1 UNK         0.3028 
     86 H86       -51.1264  -24.8929    3.7177 H         1 UNK         0.0864 
     87 H87       -52.2234  -27.3965    3.6742 H         1 UNK         0.0720 
     88 H88       -51.2925  -27.5859    5.1127 H         1 UNK         0.0720 
     89 H89       -53.1160  -25.2013    7.6048 H         1 UNK         0.0814 
     90 H90       -51.4911  -25.5617    7.0956 H         1 UNK         0.0814 
     91 H91       -50.5617  -27.7818    7.4937 H         1 UNK         0.1469 
     92 H92       -52.9881  -30.7880    9.3357 H         1 UNK         0.1381 
     93 H93       -54.7498  -27.0780    8.0981 H         1 UNK         0.1206 
     94 H94       -56.1697  -28.8983    8.8198 H         1 UNK         0.0813 
     95 H95       -55.5236  -30.4953    9.0775 H         1 UNK         0.0813 
     96 H96       -54.5373  -31.3744   11.1353 H         1 UNK         0.0638 
     97 H97       -53.3800  -30.1283   11.5599 H         1 UNK         0.0638 
     98 H98       -55.6106  -31.0721   13.4087 H         1 UNK         0.0568 
     99 H99       -55.2347  -33.3368   13.4606 H         1 UNK         0.3450 
    100 H100      -53.6878  -34.0234   13.8813 H         1 UNK         0.3450 
    101 H101      -53.7205  -28.9027   13.6308 H         1 UNK         0.2987 
    102 H102      -54.7948  -28.0724   16.8955 H         1 UNK         0.0766 
    103 H103      -52.4303  -27.7165   17.4370 H         1 UNK         0.0798 
    104 H104      -51.9075  -28.6501   16.0311 H         1 UNK         0.0798 
    105 H105      -52.7182  -29.4425   17.3759 H         1 UNK         0.0798 
    106 H106      -53.0598  -26.7125   15.1040 H         1 UNK         0.3198 
    107 H107      -54.0000  -25.6267   13.0042 H         1 UNK         0.0843 
    108 H108      -56.6454  -24.3041   13.8038 H         1 UNK         0.0831 
    109 H109      -56.3968  -25.3941   12.4485 H         1 UNK         0.0831 
    110 H110      -55.6205  -23.8185   12.4530 H         1 UNK         0.0831 
    111 H111      -53.0196  -24.0244   14.1717 H         1 UNK         0.3133 
    112 H112      -53.2608  -21.8103   15.6117 H         1 UNK         0.0566 
    113 H113      -53.0959  -21.3784   18.0659 H         1 UNK         0.0814 
    114 H114      -54.7656  -21.5906   17.5681 H         1 UNK         0.0814 
    115 H115      -53.9309  -22.8951   18.3994 H         1 UNK         0.0814 
    116 H116      -51.2459  -22.6699   15.9659 H         1 UNK         0.3091 
    117 H117      -49.5831  -23.9501   17.6493 H         1 UNK         0.0702 
    118 H118      -50.2437  -26.8451   16.9242 H         1 UNK         0.0785 
    119 H119      -48.6939  -26.2638   17.5227 H         1 UNK         0.0785 
    120 H120      -50.1143  -26.1933   18.5527 H         1 UNK         0.0785 
    121 H121      -49.4371  -25.3815   15.1023 H         1 UNK         0.2998 
    122 H122      -49.0683  -22.4152   13.1687 H         1 UNK         0.0697 
    123 H123      -46.8481  -24.3918   13.8965 H         1 UNK         0.0825 
    124 H124      -46.7496  -22.6435   14.0214 H         1 UNK         0.0825 
    125 H125      -46.9061  -23.3982   12.4437 H         1 UNK         0.0825 
    126 H126      -48.7461  -25.0357   12.2842 H         1 UNK         0.3029 
    127 H127      -52.1871  -25.6772   11.4886 H         1 UNK         0.0897 
    128 H128      -49.6408  -24.7849   10.0207 H         1 UNK         0.0792 
    129 H129      -51.2740  -24.1690    9.7959 H         1 UNK         0.0792 
    130 H130      -50.8738  -25.8155    9.3257 H         1 UNK         0.0792 
    131 H131      -49.4784  -26.9036   11.4458 H         1 UNK         0.3086 
    132 H132      -50.4664  -29.5769   13.5184 H         1 UNK         0.0583 
    133 H133      -49.7873  -31.0974   11.8075 H         1 UNK         0.1020 
    134 H134      -51.2423  -30.3653   11.2314 H         1 UNK         0.1020 
    135 H135      -49.8614  -30.2713    7.6728 H         1 UNK         0.0694 
    136 H136      -50.7046  -31.2941    8.8073 H         1 UNK         0.0694 
    137 H137      -48.0304  -29.1171   12.1997 H         1 UNK         0.2989 
    138 H138      -46.5989  -26.6228   14.2225 H         1 UNK         0.1055 
    139 H139      -46.3377  -28.6945   15.5987 H         1 UNK         0.0806 
    140 H140      -44.8906  -28.3414   14.6722 H         1 UNK         0.0806 
    141 H141      -45.9854  -29.6211   14.1465 H         1 UNK         0.0806 
    142 H142      -45.2820  -28.0147   12.2635 H         1 UNK         0.3061 
    143 H143      -44.7284  -26.6615   10.3674 H         1 UNK         0.0734 
    144 H144      -45.3015  -28.1154    8.4474 H         1 UNK         0.0832 
    145 H145      -45.7364  -28.9481    9.9291 H         1 UNK         0.0832 
    146 H146      -46.9859  -28.1904    8.9512 H         1 UNK         0.0832 
    147 H147      -46.8472  -25.8521    8.5142 H         1 UNK         0.3156 
    148 H148      -47.4863  -23.2107    8.8117 H         1 UNK         0.0589 
    149 H149      -44.7102  -22.0492    8.2043 H         1 UNK         0.0808 
    150 H150      -46.2462  -21.2625    7.8411 H         1 UNK         0.0808 
    151 H151      -45.7777  -21.5437    9.5086 H         1 UNK         0.0808 
    152 H152      -45.6746  -24.4715    6.8705 H         1 UNK         0.3098 
    153 H153      -46.8061  -23.6305    4.1727 H         1 UNK         0.0720 
    154 H154      -45.2400  -25.2703    5.1144 H         1 UNK         0.0791 
    155 H155      -46.2000  -26.0691    3.8904 H         1 UNK         0.0791 
    156 H156      -46.5585  -26.3416    5.5895 H         1 UNK         0.0791 
    157 H157      -48.7174  -24.3446    3.3388 H         1 UNK         0.3028 
@<TRIPOS>BOND
     1    1    2 1    
     2    1   82 1    
     3    1   83 1    
     4    1   84 1    
     5    2    3 2    
     6    2    4 am   BACKBONE|DICT|INTERRES
     7    4    5 1    
     8    4   85 1    
     9    5    6 1    
    10    5   80 1    
    11    5   86 1    
    12    6    7 1    
    13    6   87 1    
    14    6   88 1    
    15    7    8 1    
    16    8    9 1    
    17    8   89 1    
    18    8   90 1    
    19    9   10 ar   
    20    9   14 ar   
    21   10   11 ar   
    22   10   91 1    
    23   11   12 ar   
    24   11   58 1    
    25   12   13 ar   
    26   12   92 1    
    27   13   14 ar   
    28   13   15 1    
    29   14   93 1    
    30   15   16 1    
    31   15   94 1    
    32   15   95 1    
    33   16   17 1    
    34   17   18 1    
    35   17   96 1    
    36   17   97 1    
    37   18   19 1    
    38   18   22 1    
    39   18   98 1    
    40   19   20 am   BACKBONE|DICT|INTERRES
    41   19   21 2    
    42   20   99 1    
    43   20  100 1    
    44   22   23 am   BACKBONE|DICT|INTERRES
    45   22  101 1    
    46   23   24 2    
    47   23   25 1    
    48   25   26 1    
    49   25   27 1    
    50   25  102 1    
    51   26  103 1    
    52   26  104 1    
    53   26  105 1    
    54   27   28 am   BACKBONE|DICT|INTERRES
    55   27  106 1    
    56   28   29 2    
    57   28   30 1    
    58   30   31 1    
    59   30   32 1    
    60   30  107 1    
    61   31  108 1    
    62   31  109 1    
    63   31  110 1    
    64   32   33 am   BACKBONE|DICT|INTERRES
    65   32  111 1    
    66   33   34 2    
    67   33   35 1    
    68   35   36 1    
    69   35   37 1    
    70   35  112 1    
    71   36  113 1    
    72   36  114 1    
    73   36  115 1    
    74   37   38 am   BACKBONE|DICT|INTERRES
    75   37  116 1    
    76   38   39 2    
    77   38   40 1    
    78   40   41 1    
    79   40   42 1    
    80   40  117 1    
    81   41  118 1    
    82   41  119 1    
    83   41  120 1    
    84   42   43 am   BACKBONE|DICT|INTERRES
    85   42  121 1    
    86   43   44 2    
    87   43   45 1    
    88   45   46 1    
    89   45   47 1    
    90   45  122 1    
    91   46  123 1    
    92   46  124 1    
    93   46  125 1    
    94   47   48 am   BACKBONE|DICT|INTERRES
    95   47  126 1    
    96   48   49 2    
    97   48   50 1    
    98   50   51 1    
    99   50   52 1    
   100   50  127 1    
   101   51  128 1    
   102   51  129 1    
   103   51  130 1    
   104   52   53 am   BACKBONE|DICT|INTERRES
   105   52  131 1    
   106   53   54 2    
   107   53   55 1    
   108   55   56 1    
   109   55   59 1    
   110   55  132 1    
   111   56   57 1    
   112   56  133 1    
   113   56  134 1    
   114   57   58 1    
   115   58  135 1    
   116   58  136 1    
   117   59   60 am   BACKBONE|DICT|INTERRES
   118   59  137 1    
   119   60   61 2    
   120   60   62 1    
   121   62   63 1    
   122   62   64 1    
   123   62  138 1    
   124   63  139 1    
   125   63  140 1    
   126   63  141 1    
   127   64   65 am   BACKBONE|DICT|INTERRES
   128   64  142 1    
   129   65   66 2    
   130   65   67 1    
   131   67   68 1    
   132   67   69 1    
   133   67  143 1    
   134   68  144 1    
   135   68  145 1    
   136   68  146 1    
   137   69   70 am   BACKBONE|DICT|INTERRES
   138   69  147 1    
   139   70   71 2    
   140   70   72 1    
   141   72   73 1    
   142   72   74 1    
   143   72  148 1    
   144   73  149 1    
   145   73  150 1    
   146   73  151 1    
   147   74   75 am   BACKBONE|DICT|INTERRES
   148   74  152 1    
   149   75   76 2    
   150   75   77 1    
   151   77   78 1    
   152   77   79 1    
   153   77  153 1    
   154   78  154 1    
   155   78  155 1    
   156   78  156 1    
   157   79   80 am   BACKBONE|DICT|INTERRES
   158   79  157 1    
   159   80   81 2    
@<TRIPOS>SUBSTRUCTURE
     1 UNK         1 GROUP             0       ****    0 ROOT    
