@<TRIPOS>MOLECULE
3R207
157   159    1
SMALL
USER_CHARGES


@<TRIPOS>ATOM
      1 CA        -44.9786  -30.4634    6.6692 C.3       0 UNK        -0.1975 
      2 C         -45.9734  -30.0594    5.5913 C.2       0 UNK         0.4852 
      3 O         -45.6104  -29.9937    4.4166 O.2       0 UNK        -0.5216 
      4 N         -47.2254  -29.7885    5.9843 N.am      1 UNK        -0.4461 
      5 CA        -48.3294  -29.3937    5.0980 C.3       1 UNK         0.0864 
      6 C6        -49.6881  -29.3951    5.8367 C.3       14 UNK        -0.0898 
      7 S7        -50.0972  -30.9676    6.6614 S.3       14 UNK        -0.2598 
      8 C8        -51.8989  -30.7777    6.8675 C.3       14 UNK         0.0286 
      9 C9        -52.2487  -29.6013    7.7700 C.ar      14 UNK        -0.0844 
     10 C10       -52.4727  -28.3335    7.2229 C.ar      14 UNK        -0.0881 
     11 C11       -52.7652  -27.2421    8.0452 C.ar      14 UNK        -0.0643 
     12 C12       -52.8893  -27.4393    9.4236 C.ar      14 UNK        -0.0930 
     13 C13       -52.6646  -28.7003    9.9844 C.ar      14 UNK        -0.0827 
     14 C14       -52.3397  -29.7766    9.1534 C.ar      14 UNK        -0.1249 
     15 C15       -52.7447  -28.8951   11.4915 C.3       14 UNK         0.0141 
     16 S16       -54.2600  -29.7756   11.9818 S.3       14 UNK        -0.2313 
     17 C17       -55.5496  -28.5655   11.5229 C.3       14 UNK        -0.0915 
     18 CA        -56.8013  -28.5969   12.4397 C.3       13 UNK         0.0968 
     19 C         -57.6681  -29.8706   12.2175 C.2       13 UNK         0.5732 
     20 N         -58.4007  -29.9309   11.1132 N.am      13 UNK        -0.7310 
     21 O         -57.6697  -30.8087   13.0131 O.2       13 UNK        -0.5035 
     22 N         -56.4383  -28.3556   13.8423 N.am      13 UNK        -0.4233 
     23 C         -57.2971  -28.0754   14.8292 C.2       13 UNK         0.4989 
     24 O         -58.5063  -27.9181   14.6498 O.2       13 UNK        -0.4996 
     25 CA        -56.7264  -27.8799   16.2488 C.3       12 UNK         0.0216 
     26 CB        -57.5124  -28.6871   17.3039 C.3       12 UNK        -0.1964 
     27 N         -55.2770  -28.0942   16.3835 N.am      12 UNK        -0.4276 
     28 C         -54.5914  -29.2474   16.3018 C.2       12 UNK         0.5020 
     29 O         -55.1079  -30.3322   16.0360 O.2       12 UNK        -0.5489 
     30 CA        -53.0673  -29.1941   16.5406 C.3       11 UNK         0.0294 
     31 CB        -52.3105  -29.3600   15.2130 C.3       11 UNK        -0.2019 
     32 N         -52.6154  -27.9632   17.1958 N.am      11 UNK        -0.4493 
     33 C         -52.8711  -27.6421   18.4745 C.2       11 UNK         0.4932 
     34 O         -53.4096  -28.4100   19.2721 O.2       11 UNK        -0.5029 
     35 CA        -52.5030  -26.2198   18.9461 C.3       10 UNK         0.0280 
     36 CB        -51.2070  -26.2498   19.7724 C.3       10 UNK        -0.1976 
     37 N         -52.3569  -25.2393   17.8651 N.am      10 UNK        -0.4242 
     38 C         -53.2945  -24.9073   16.9647 C.2       10 UNK         0.5072 
     39 O         -54.4462  -25.3433   16.9848 O.2       10 UNK        -0.5224 
     40 CA        -52.8607  -23.9893   15.8068 C.3       9 UNK         0.0343 
     41 CB        -53.2878  -22.5391   16.0813 C.3       9 UNK        -0.2003 
     42 N         -51.4241  -24.0183   15.5045 N.am      9 UNK        -0.4272 
     43 C         -50.6993  -25.0969   15.1760 C.2       9 UNK         0.4988 
     44 O         -51.1636  -26.2381   15.1361 O.2       9 UNK        -0.5108 
     45 CA        -49.2066  -24.8502   14.8710 C.3       8 UNK         0.0248 
     46 CB        -48.4278  -26.1637   14.6718 C.3       8 UNK        -0.2001 
     47 N         -49.0102  -23.9991   13.6943 N.am      8 UNK        -0.4140 
     48 C         -49.2771  -22.6869   13.6137 C.2       8 UNK         0.5028 
     49 O         -49.6487  -22.0077   14.5729 O.2       8 UNK        -0.5428 
     50 CA        -49.1375  -22.0199   12.2327 C.3       7 UNK         0.0264 
     51 CB        -47.7471  -21.3859   12.0832 C.3       7 UNK        -0.1988 
     52 N         -49.3870  -22.9401   11.1174 N.am      7 UNK        -0.4454 
     53 C         -50.5776  -23.5018   10.8524 C.2       7 UNK         0.5027 
     54 O         -51.6041  -23.2460   11.4834 O.2       7 UNK        -0.5083 
     55 CA        -50.6428  -24.5381    9.7162 C.3       6 UNK         0.0844 
     56 C56       -51.0961  -23.8945    8.3856 C.3       14 UNK        -0.0967 
     57 S57       -51.3120  -25.1094    7.0375 S.3       14 UNK        -0.2604 
     58 C58       -52.9310  -25.8575    7.4326 C.3       14 UNK         0.0134 
     59 N         -49.3863  -25.2770    9.5934 N.am      6 UNK        -0.4116 
     60 C         -49.0821  -26.3669   10.3104 C.2       5 UNK         0.5034 
     61 O         -49.8264  -26.8760   11.1473 O.2       5 UNK        -0.5045 
     62 CA        -47.6908  -26.9767   10.0739 C.3       5 UNK         0.0224 
     63 CB        -47.7195  -27.9239    8.8651 C.3       5 UNK        -0.1978 
     64 N         -46.6494  -25.9629    9.8815 N.am      5 UNK        -0.4737 
     65 C         -46.2737  -25.0879   10.8264 C.2       4 UNK         0.5027 
     66 O         -46.7472  -25.0634   11.9615 O.2       4 UNK        -0.5211 
     67 CA        -45.2243  -24.0342   10.4358 C.3       4 UNK         0.0297 
     68 CB        -43.8110  -24.5575   10.7351 C.3       4 UNK        -0.1993 
     69 N         -45.2919  -23.5957    9.0401 N.am      4 UNK        -0.4486 
     70 C         -46.3674  -23.1150    8.3994 C.2       3 UNK         0.4961 
     71 O         -47.4845  -23.0039    8.9083 O.2       3 UNK        -0.5105 
     72 CA        -46.1687  -22.7180    6.9241 C.3       3 UNK         0.0299 
     73 CB        -44.6940  -22.4475    6.5483 C.3       3 UNK        -0.1972 
     74 N         -46.7462  -23.6832    5.9808 N.am      3 UNK        -0.4305 
     75 C         -46.5852  -25.0148    5.9652 C.2       2 UNK         0.5006 
     76 O         -45.9999  -25.6675    6.8363 O.2       2 UNK        -0.5106 
     77 CA        -47.1452  -25.7378    4.7365 C.3       2 UNK         0.0296 
     78 CB        -46.1748  -25.6216    3.5450 C.3       2 UNK        -0.2002 
     79 N         -47.3490  -27.1367    5.0882 N.am      2 UNK        -0.4032 
     80 C         -48.1331  -28.0081    4.4439 C.2       1 UNK         0.5000 
     81 O         -48.7257  -27.7483    3.3946 O.2       1 UNK        -0.5238 
     82 H82       -44.1720  -29.7329    6.7271 H         1 UNK         0.0889 
     83 H83       -45.4456  -30.5322    7.6516 H         1 UNK         0.0889 
     84 H84       -44.5436  -31.4342    6.4332 H         1 UNK         0.0889 
     85 H85       -47.4785  -29.9120    6.9539 H         1 UNK         0.3028 
     86 H86       -48.3779  -30.1263    4.2895 H         1 UNK         0.0864 
     87 H87       -50.4877  -29.1712    5.1278 H         1 UNK         0.0720 
     88 H88       -49.7146  -28.6062    6.5912 H         1 UNK         0.0720 
     89 H89       -52.3683  -30.6597    5.8896 H         1 UNK         0.0814 
     90 H90       -52.3048  -31.6992    7.2876 H         1 UNK         0.0814 
     91 H91       -52.3926  -28.1849    6.1551 H         1 UNK         0.1469 
     92 H92       -53.1435  -26.6091   10.0665 H         1 UNK         0.1381 
     93 H93       -52.1592  -30.7514    9.5857 H         1 UNK         0.1206 
     94 H94       -51.8784  -29.4677   11.8260 H         1 UNK         0.0813 
     95 H95       -52.6900  -27.9374   12.0120 H         1 UNK         0.0813 
     96 H96       -55.1156  -27.5652   11.5558 H         1 UNK         0.0638 
     97 H97       -55.8240  -28.7310   10.4795 H         1 UNK         0.0638 
     98 H98       -57.4292  -27.7534   12.1456 H         1 UNK         0.0568 
     99 H99       -58.9624  -30.7506   10.9440 H         1 UNK         0.3450 
    100 H100      -58.4050  -29.1750   10.4465 H         1 UNK         0.3450 
    101 H101      -55.4747  -28.5306   14.0813 H         1 UNK         0.2987 
    102 H102      -56.8778  -26.8236   16.4761 H         1 UNK         0.0766 
    103 H103      -57.1217  -28.5151   18.3069 H         1 UNK         0.0798 
    104 H104      -58.5643  -28.3989   17.3137 H         1 UNK         0.0798 
    105 H105      -57.4745  -29.7587   17.1068 H         1 UNK         0.0798 
    106 H106      -54.7555  -27.2468   16.5949 H         1 UNK         0.3198 
    107 H107      -52.8114  -30.0363   17.1872 H         1 UNK         0.0843 
    108 H108      -51.2319  -29.3848   15.3691 H         1 UNK         0.0831 
    109 H109      -52.5285  -28.5450   14.5223 H         1 UNK         0.0831 
    110 H110      -52.5880  -30.2912   14.7169 H         1 UNK         0.0831 
    111 H111      -52.1427  -27.2867   16.6029 H         1 UNK         0.3133 
    112 H112      -53.3136  -25.8739   19.5905 H         1 UNK         0.0566 
    113 H113      -50.3524  -26.5638   19.1714 H         1 UNK         0.0814 
    114 H114      -51.2917  -26.9475   20.6069 H         1 UNK         0.0814 
    115 H115      -50.9809  -25.2707   20.1951 H         1 UNK         0.0814 
    116 H116      -51.4431  -24.8249   17.7553 H         1 UNK         0.3091 
    117 H117      -53.3822  -24.3360   14.9124 H         1 UNK         0.0702 
    118 H118      -52.7702  -22.1233   16.9467 H         1 UNK         0.0785 
    119 H119      -54.3590  -22.4771   16.2794 H         1 UNK         0.0785 
    120 H120      -53.0803  -21.8964   15.2252 H         1 UNK         0.0785 
    121 H121      -50.9490  -23.1203   15.4519 H         1 UNK         0.2998 
    122 H122      -48.7799  -24.3396   15.7367 H         1 UNK         0.0697 
    123 H123      -48.7846  -26.7139   13.7999 H         1 UNK         0.0825 
    124 H124      -48.5327  -26.8187   15.5377 H         1 UNK         0.0825 
    125 H125      -47.3626  -25.9766   14.5352 H         1 UNK         0.0825 
    126 H126      -48.6445  -24.4597   12.8690 H         1 UNK         0.3029 
    127 H127      -49.8827  -21.2235   12.1748 H         1 UNK         0.0897 
    128 H128      -47.6006  -20.9619   11.0895 H         1 UNK         0.0792 
    129 H129      -47.6115  -20.5795   12.8052 H         1 UNK         0.0792 
    130 H130      -46.9574  -22.1134   12.2642 H         1 UNK         0.0792 
    131 H131      -48.6070  -23.1356   10.4956 H         1 UNK         0.3086 
    132 H132      -51.4197  -25.2399   10.0102 H         1 UNK         0.0583 
    133 H133      -52.0329  -23.3494    8.5179 H         1 UNK         0.1020 
    134 H134      -50.3636  -23.1545    8.0564 H         1 UNK         0.1020 
    135 H135      -53.5026  -25.2064    8.0955 H         1 UNK         0.0694 
    136 H136      -53.5125  -25.9378    6.5130 H         1 UNK         0.0694 
    137 H137      -48.6910  -24.8869    8.9712 H         1 UNK         0.2989 
    138 H138      -47.4321  -27.5580   10.9620 H         1 UNK         0.1055 
    139 H139      -46.7516  -28.4021    8.7153 H         1 UNK         0.0806 
    140 H140      -47.9832  -27.3933    7.9503 H         1 UNK         0.0806 
    141 H141      -48.4588  -28.7140    9.0082 H         1 UNK         0.0806 
    142 H142      -46.2349  -25.8887    8.9577 H         1 UNK         0.3061 
    143 H143      -45.3920  -23.1534   11.0548 H         1 UNK         0.0734 
    144 H144      -43.7238  -24.8705   11.7767 H         1 UNK         0.0832 
    145 H145      -43.5593  -25.4185   10.1145 H         1 UNK         0.0832 
    146 H146      -43.0568  -23.7884   10.5672 H         1 UNK         0.0832 
    147 H147      -44.4403  -23.6830    8.5051 H         1 UNK         0.3156 
    148 H148      -46.7177  -21.7848    6.7888 H         1 UNK         0.0589 
    149 H149      -44.0899  -23.3557    6.5581 H         1 UNK         0.0808 
    150 H150      -44.6212  -22.0220    5.5473 H         1 UNK         0.0808 
    151 H151      -44.2348  -21.7298    7.2300 H         1 UNK         0.0808 
    152 H152      -47.2844  -23.2714    5.2310 H         1 UNK         0.3098 
    153 H153      -48.1088  -25.2935    4.4776 H         1 UNK         0.0720 
    154 H154      -46.5739  -26.1086    2.6551 H         1 UNK         0.0791 
    155 H155      -45.9915  -24.5785    3.2847 H         1 UNK         0.0791 
    156 H156      -45.2096  -26.0775    3.7696 H         1 UNK         0.0791 
    157 H157      -46.8893  -27.4145    5.9461 H         1 UNK         0.3028 
@<TRIPOS>BOND
     1    1    2 1    
     2    1   82 1    
     3    1   83 1    
     4    1   84 1    
     5    2    3 2    
     6    2    4 am   BACKBONE|DICT|INTERRES
     7    4    5 1    
     8    4   85 1    
     9    5    6 1    
    10    5   80 1    
    11    5   86 1    
    12    6    7 1    
    13    6   87 1    
    14    6   88 1    
    15    7    8 1    
    16    8    9 1    
    17    8   89 1    
    18    8   90 1    
    19    9   10 ar   
    20    9   14 ar   
    21   10   11 ar   
    22   10   91 1    
    23   11   12 ar   
    24   11   58 1    
    25   12   13 ar   
    26   12   92 1    
    27   13   14 ar   
    28   13   15 1    
    29   14   93 1    
    30   15   16 1    
    31   15   94 1    
    32   15   95 1    
    33   16   17 1    
    34   17   18 1    
    35   17   96 1    
    36   17   97 1    
    37   18   19 1    
    38   18   22 1    
    39   18   98 1    
    40   19   20 am   BACKBONE|DICT|INTERRES
    41   19   21 2    
    42   20   99 1    
    43   20  100 1    
    44   22   23 am   BACKBONE|DICT|INTERRES
    45   22  101 1    
    46   23   24 2    
    47   23   25 1    
    48   25   26 1    
    49   25   27 1    
    50   25  102 1    
    51   26  103 1    
    52   26  104 1    
    53   26  105 1    
    54   27   28 am   BACKBONE|DICT|INTERRES
    55   27  106 1    
    56   28   29 2    
    57   28   30 1    
    58   30   31 1    
    59   30   32 1    
    60   30  107 1    
    61   31  108 1    
    62   31  109 1    
    63   31  110 1    
    64   32   33 am   BACKBONE|DICT|INTERRES
    65   32  111 1    
    66   33   34 2    
    67   33   35 1    
    68   35   36 1    
    69   35   37 1    
    70   35  112 1    
    71   36  113 1    
    72   36  114 1    
    73   36  115 1    
    74   37   38 am   BACKBONE|DICT|INTERRES
    75   37  116 1    
    76   38   39 2    
    77   38   40 1    
    78   40   41 1    
    79   40   42 1    
    80   40  117 1    
    81   41  118 1    
    82   41  119 1    
    83   41  120 1    
    84   42   43 am   BACKBONE|DICT|INTERRES
    85   42  121 1    
    86   43   44 2    
    87   43   45 1    
    88   45   46 1    
    89   45   47 1    
    90   45  122 1    
    91   46  123 1    
    92   46  124 1    
    93   46  125 1    
    94   47   48 am   BACKBONE|DICT|INTERRES
    95   47  126 1    
    96   48   49 2    
    97   48   50 1    
    98   50   51 1    
    99   50   52 1    
   100   50  127 1    
   101   51  128 1    
   102   51  129 1    
   103   51  130 1    
   104   52   53 am   BACKBONE|DICT|INTERRES
   105   52  131 1    
   106   53   54 2    
   107   53   55 1    
   108   55   56 1    
   109   55   59 1    
   110   55  132 1    
   111   56   57 1    
   112   56  133 1    
   113   56  134 1    
   114   57   58 1    
   115   58  135 1    
   116   58  136 1    
   117   59   60 am   BACKBONE|DICT|INTERRES
   118   59  137 1    
   119   60   61 2    
   120   60   62 1    
   121   62   63 1    
   122   62   64 1    
   123   62  138 1    
   124   63  139 1    
   125   63  140 1    
   126   63  141 1    
   127   64   65 am   BACKBONE|DICT|INTERRES
   128   64  142 1    
   129   65   66 2    
   130   65   67 1    
   131   67   68 1    
   132   67   69 1    
   133   67  143 1    
   134   68  144 1    
   135   68  145 1    
   136   68  146 1    
   137   69   70 am   BACKBONE|DICT|INTERRES
   138   69  147 1    
   139   70   71 2    
   140   70   72 1    
   141   72   73 1    
   142   72   74 1    
   143   72  148 1    
   144   73  149 1    
   145   73  150 1    
   146   73  151 1    
   147   74   75 am   BACKBONE|DICT|INTERRES
   148   74  152 1    
   149   75   76 2    
   150   75   77 1    
   151   77   78 1    
   152   77   79 1    
   153   77  153 1    
   154   78  154 1    
   155   78  155 1    
   156   78  156 1    
   157   79   80 am   BACKBONE|DICT|INTERRES
   158   79  157 1    
   159   80   81 2    
@<TRIPOS>SUBSTRUCTURE
     1 UNK         1 GROUP             0       ****    0 ROOT    
