@<TRIPOS>MOLECULE
3R207
157   159    1
SMALL
USER_CHARGES


@<TRIPOS>ATOM
      1 CA        -45.3424  -27.6848    5.6945 C.3       0 UNK        -0.1975 
      2 C         -45.7589  -28.8241    6.6234 C.2       0 UNK         0.4852 
      3 O         -44.8927  -29.4237    7.2569 O.2       0 UNK        -0.5216 
      4 N         -47.0498  -29.1747    6.7369 N.am      1 UNK        -0.4461 
      5 CA        -48.2186  -28.5296    6.1248 C.3       1 UNK         0.0864 
      6 C6        -49.5023  -29.3630    6.3622 C.3       14 UNK        -0.0898 
      7 S7        -50.7572  -29.0429    5.0797 S.3       14 UNK        -0.2598 
      8 C8        -52.2516  -29.7373    5.8567 C.3       14 UNK         0.0286 
      9 C9        -52.7811  -28.9352    7.0442 C.ar      14 UNK        -0.0844 
     10 C10       -52.8325  -27.5355    7.0223 C.ar      14 UNK        -0.0881 
     11 C11       -53.3996  -26.8246    8.0862 C.ar      14 UNK        -0.0643 
     12 C12       -53.9317  -27.5253    9.1732 C.ar      14 UNK        -0.0930 
     13 C13       -53.8796  -28.9206    9.2118 C.ar      14 UNK        -0.0827 
     14 C14       -53.2966  -29.6174    8.1500 C.ar      14 UNK        -0.1249 
     15 C15       -54.4968  -29.6803   10.3742 C.3       14 UNK         0.0141 
     16 S16       -53.4708  -29.5807   11.8718 S.3       14 UNK        -0.2313 
     17 C17       -54.0661  -31.0368   12.8021 C.3       14 UNK        -0.0915 
     18 CA        -55.5914  -31.0232   13.1246 C.3       13 UNK         0.0968 
     19 C         -56.0859  -32.3524   13.7755 C.2       13 UNK         0.5732 
     20 N         -57.1213  -32.3340   14.6067 N.am      13 UNK        -0.7310 
     21 O         -55.5522  -33.4242   13.4978 O.2       13 UNK        -0.5035 
     22 N         -56.0169  -29.7927   13.8138 N.am      13 UNK        -0.4233 
     23 C         -55.6835  -29.4209   15.0552 C.2       13 UNK         0.4989 
     24 O         -54.9789  -30.0868   15.8158 O.2       13 UNK        -0.4996 
     25 CA        -56.2207  -28.0509   15.4967 C.3       12 UNK         0.0216 
     26 CB        -56.1667  -27.8494   17.0225 C.3       12 UNK        -0.1964 
     27 N         -55.4687  -26.9854   14.8327 N.am      12 UNK        -0.4276 
     28 C         -55.7237  -26.5282   13.5971 C.2       12 UNK         0.5020 
     29 O         -56.6338  -26.9815   12.8991 O.2       12 UNK        -0.5489 
     30 CA        -54.8258  -25.4160   13.0105 C.3       11 UNK         0.0294 
     31 CB        -55.6543  -24.2847   12.3691 C.3       11 UNK        -0.2019 
     32 N         -53.8209  -24.8693   13.9289 N.am      11 UNK        -0.4493 
     33 C         -53.9981  -24.2132   15.0854 C.2       11 UNK         0.4932 
     34 O         -55.0980  -23.8827   15.5303 O.2       11 UNK        -0.5029 
     35 CA        -52.7146  -23.9429   15.9023 C.3       10 UNK         0.0280 
     36 CB        -53.0031  -23.5895   17.3760 C.3       10 UNK        -0.1976 
     37 N         -51.7474  -25.0484   15.8152 N.am      10 UNK        -0.4242 
     38 C         -51.9698  -26.3409   16.1061 C.2       10 UNK         0.5072 
     39 O         -53.0206  -26.7486   16.5991 O.2       10 UNK        -0.5224 
     40 CA        -50.8901  -27.3729   15.7295 C.3       9 UNK         0.0343 
     41 CB        -51.4246  -28.3115   14.6346 C.3       9 UNK        -0.2003 
     42 N         -49.6414  -26.7711   15.2591 N.am      9 UNK        -0.4272 
     43 C         -48.6845  -26.2785   16.0565 C.2       9 UNK         0.4988 
     44 O         -48.7180  -26.3376   17.2860 O.2       9 UNK        -0.5108 
     45 CA        -47.5074  -25.5653   15.3665 C.3       8 UNK         0.0248 
     46 CB        -46.4480  -26.5827   14.9155 C.3       8 UNK        -0.2001 
     47 N         -47.9187  -24.7311   14.2300 N.am      8 UNK        -0.4140 
     48 C         -48.7553  -23.6854   14.3263 C.2       8 UNK         0.5028 
     49 O         -49.2553  -23.3035   15.3841 O.2       8 UNK        -0.5428 
     50 CA        -49.1412  -22.9651   13.0271 C.3       7 UNK         0.0264 
     51 CB        -48.0379  -21.9827   12.6032 C.3       7 UNK        -0.1988 
     52 N         -49.4353  -23.8867   11.9300 N.am      7 UNK        -0.4454 
     53 C         -50.4535  -24.7594   11.9088 C.2       7 UNK         0.5027 
     54 O         -51.2676  -24.8802   12.8239 O.2       7 UNK        -0.5083 
     55 CA        -50.5414  -25.7000   10.6873 C.3       6 UNK         0.0844 
     56 C56       -51.0237  -24.9635    9.4131 C.3       14 UNK        -0.0967 
     57 S57       -52.7836  -24.4890    9.5051 S.3       14 UNK        -0.2604 
     58 C58       -53.4837  -25.3036    8.0322 C.3       14 UNK         0.0134 
     59 N         -49.2736  -26.3964   10.4628 N.am      6 UNK        -0.4116 
     60 C         -48.6458  -27.1699   11.3606 C.2       5 UNK         0.5034 
     61 O         -49.0908  -27.4493   12.4731 O.2       5 UNK        -0.5045 
     62 CA        -47.2551  -27.6790   10.9653 C.3       5 UNK         0.0224 
     63 CB        -47.3640  -29.0091   10.2057 C.3       5 UNK        -0.1978 
     64 N         -46.5196  -26.6945   10.1665 N.am      5 UNK        -0.4737 
     65 C         -46.0113  -25.5617   10.6672 C.2       4 UNK         0.5027 
     66 O         -46.1268  -25.2268   11.8474 O.2       4 UNK        -0.5211 
     67 CA        -45.2388  -24.6544    9.6931 C.3       4 UNK         0.0297 
     68 CB        -44.0160  -25.3874    9.1133 C.3       4 UNK        -0.1993 
     69 N         -46.0202  -24.0675    8.5965 N.am      4 UNK        -0.4486 
     70 C         -47.1790  -23.4007    8.7066 C.2       3 UNK         0.4961 
     71 O         -47.8697  -23.3755    9.7203 O.2       3 UNK        -0.5105 
     72 CA        -47.6452  -22.5859    7.4866 C.3       3 UNK         0.0299 
     73 CB        -47.1487  -21.1370    7.6138 C.3       3 UNK        -0.1972 
     74 N         -47.1734  -23.1406    6.2155 N.am      3 UNK        -0.4305 
     75 C         -47.7051  -24.1601    5.5274 C.2       2 UNK         0.5006 
     76 O         -47.1646  -24.5928    4.5091 O.2       2 UNK        -0.5106 
     77 CA        -49.0418  -24.7896    5.9748 C.3       2 UNK         0.0296 
     78 CB        -50.2159  -24.1988    5.1789 C.3       2 UNK        -0.2002 
     79 N         -48.9931  -26.2323    5.7630 N.am      2 UNK        -0.4032 
     80 C         -48.3998  -27.0766    6.6121 C.2       1 UNK         0.5000 
     81 O         -47.9975  -26.7431    7.7298 O.2       1 UNK        -0.5238 
     82 H82       -44.2822  -27.7629    5.4543 H         1 UNK         0.0889 
     83 H83       -45.5027  -26.7202    6.1749 H         1 UNK         0.0889 
     84 H84       -45.8890  -27.7028    4.7529 H         1 UNK         0.0889 
     85 H85       -47.2688  -29.9358    7.3619 H         1 UNK         0.3028 
     86 H86       -48.0244  -28.5046    5.0507 H         1 UNK         0.0864 
     87 H87       -49.2761  -30.4299    6.3194 H         1 UNK         0.0720 
     88 H88       -49.9198  -29.1825    7.3555 H         1 UNK         0.0720 
     89 H89       -53.0387  -29.7892    5.1035 H         1 UNK         0.0814 
     90 H90       -52.0410  -30.7673    6.1496 H         1 UNK         0.0814 
     91 H91       -52.4505  -26.9996    6.1644 H         1 UNK         0.1469 
     92 H92       -54.3923  -26.9840    9.9880 H         1 UNK         0.1381 
     93 H93       -53.2738  -30.6986    8.1708 H         1 UNK         0.1206 
     94 H94       -54.6437  -30.7269   10.1025 H         1 UNK         0.0813 
     95 H95       -55.4861  -29.2736   10.5885 H         1 UNK         0.0813 
     96 H96       -53.4857  -31.1064   13.7234 H         1 UNK         0.0638 
     97 H97       -53.8061  -31.9206   12.2171 H         1 UNK         0.0638 
     98 H98       -56.1217  -31.0059   12.1734 H         1 UNK         0.0568 
     99 H99       -57.4418  -33.1985   15.0134 H         1 UNK         0.3450 
    100 H100      -57.5794  -31.4670   14.8354 H         1 UNK         0.3450 
    101 H101      -56.5578  -29.1381   13.2614 H         1 UNK         0.2987 
    102 H102      -57.2704  -27.9893   15.2009 H         1 UNK         0.0766 
    103 H103      -56.5421  -26.8661   17.3063 H         1 UNK         0.0798 
    104 H104      -55.1545  -27.9461   17.4149 H         1 UNK         0.0798 
    105 H105      -56.7813  -28.5922   17.5324 H         1 UNK         0.0798 
    106 H106      -54.6666  -26.6252   15.3405 H         1 UNK         0.3198 
    107 H107      -54.2541  -25.8937   12.2134 H         1 UNK         0.0843 
    108 H108      -55.0099  -23.5352   11.9094 H         1 UNK         0.0831 
    109 H109      -56.2894  -23.7830   13.0995 H         1 UNK         0.0831 
    110 H110      -56.3051  -24.6723   11.5844 H         1 UNK         0.0831 
    111 H111      -52.8543  -25.0222   13.6368 H         1 UNK         0.3133 
    112 H112      -52.2328  -23.0803   15.4397 H         1 UNK         0.0566 
    113 H113      -52.0813  -23.3886   17.9219 H         1 UNK         0.0814 
    114 H114      -53.6242  -22.6961   17.4500 H         1 UNK         0.0814 
    115 H115      -53.5291  -24.3950   17.8897 H         1 UNK         0.0814 
    116 H116      -50.8516  -24.8020   15.4108 H         1 UNK         0.3091 
    117 H117      -50.6835  -27.9701   16.6199 H         1 UNK         0.0702 
    118 H118      -52.3351  -28.8195   14.9567 H         1 UNK         0.0785 
    119 H119      -50.6973  -29.0826   14.3803 H         1 UNK         0.0785 
    120 H120      -51.6627  -27.7650   13.7206 H         1 UNK         0.0785 
    121 H121      -49.5062  -26.7419   14.2514 H         1 UNK         0.2998 
    122 H122      -47.0472  -24.9034   16.1030 H         1 UNK         0.0697 
    123 H123      -46.8488  -27.2818   14.1821 H         1 UNK         0.0825 
    124 H124      -46.0872  -27.1699   15.7609 H         1 UNK         0.0825 
    125 H125      -45.5837  -26.0881   14.4718 H         1 UNK         0.0825 
    126 H126      -47.5139  -24.9543   13.3251 H         1 UNK         0.3029 
    127 H127      -50.0491  -22.3914   13.2259 H         1 UNK         0.0897 
    128 H128      -48.3417  -21.3982   11.7346 H         1 UNK         0.0792 
    129 H129      -47.8100  -21.2790   13.4049 H         1 UNK         0.0792 
    130 H130      -47.1126  -22.5015   12.3480 H         1 UNK         0.0792 
    131 H131      -48.8117  -23.8341   11.1231 H         1 UNK         0.3086 
    132 H132      -51.2734  -26.4757   10.9248 H         1 UNK         0.0583 
    133 H133      -50.4290  -24.0694    9.2198 H         1 UNK         0.1020 
    134 H134      -50.8817  -25.6084    8.5447 H         1 UNK         0.1020 
    135 H135      -54.5320  -25.0163    7.9413 H         1 UNK         0.0694 
    136 H136      -52.9814  -24.9146    7.1455 H         1 UNK         0.0694 
    137 H137      -48.8114  -26.2471    9.5724 H         1 UNK         0.2989 
    138 H138      -46.6899  -27.8598   11.8816 H         1 UNK         0.1055 
    139 H139      -47.7909  -29.7834   10.8445 H         1 UNK         0.0806 
    140 H140      -48.0099  -28.9220    9.3327 H         1 UNK         0.0806 
    141 H141      -46.3871  -29.3622    9.8749 H         1 UNK         0.0806 
    142 H142      -46.5112  -26.8349    9.1624 H         1 UNK         0.3061 
    143 H143      -44.8660  -23.8158   10.2847 H         1 UNK         0.0734 
    144 H144      -43.3644  -24.7043    8.5682 H         1 UNK         0.0832 
    145 H145      -43.4164  -25.8355    9.9071 H         1 UNK         0.0832 
    146 H146      -44.3048  -26.1894    8.4332 H         1 UNK         0.0832 
    147 H147      -45.5622  -24.0432    7.6981 H         1 UNK         0.3156 
    148 H148      -48.7354  -22.5442    7.4937 H         1 UNK         0.0589 
    149 H149      -46.0595  -21.0775    7.6177 H         1 UNK         0.0808 
    150 H150      -47.5160  -20.5180    6.7950 H         1 UNK         0.0808 
    151 H151      -47.5018  -20.6844    8.5420 H         1 UNK         0.0808 
    152 H152      -46.3302  -22.7248    5.8467 H         1 UNK         0.3098 
    153 H153      -49.2271  -24.6170    7.0332 H         1 UNK         0.0720 
    154 H154      -51.1614  -24.6584    5.4662 H         1 UNK         0.0791 
    155 H155      -50.0886  -24.3389    4.1045 H         1 UNK         0.0791 
    156 H156      -50.3081  -23.1271    5.3596 H         1 UNK         0.0791 
    157 H157      -49.2865  -26.5686    4.8568 H         1 UNK         0.3028 
@<TRIPOS>BOND
     1    1    2 1    
     2    1   82 1    
     3    1   83 1    
     4    1   84 1    
     5    2    3 2    
     6    2    4 am   BACKBONE|DICT|INTERRES
     7    4    5 1    
     8    4   85 1    
     9    5    6 1    
    10    5   80 1    
    11    5   86 1    
    12    6    7 1    
    13    6   87 1    
    14    6   88 1    
    15    7    8 1    
    16    8    9 1    
    17    8   89 1    
    18    8   90 1    
    19    9   10 ar   
    20    9   14 ar   
    21   10   11 ar   
    22   10   91 1    
    23   11   12 ar   
    24   11   58 1    
    25   12   13 ar   
    26   12   92 1    
    27   13   14 ar   
    28   13   15 1    
    29   14   93 1    
    30   15   16 1    
    31   15   94 1    
    32   15   95 1    
    33   16   17 1    
    34   17   18 1    
    35   17   96 1    
    36   17   97 1    
    37   18   19 1    
    38   18   22 1    
    39   18   98 1    
    40   19   20 am   BACKBONE|DICT|INTERRES
    41   19   21 2    
    42   20   99 1    
    43   20  100 1    
    44   22   23 am   BACKBONE|DICT|INTERRES
    45   22  101 1    
    46   23   24 2    
    47   23   25 1    
    48   25   26 1    
    49   25   27 1    
    50   25  102 1    
    51   26  103 1    
    52   26  104 1    
    53   26  105 1    
    54   27   28 am   BACKBONE|DICT|INTERRES
    55   27  106 1    
    56   28   29 2    
    57   28   30 1    
    58   30   31 1    
    59   30   32 1    
    60   30  107 1    
    61   31  108 1    
    62   31  109 1    
    63   31  110 1    
    64   32   33 am   BACKBONE|DICT|INTERRES
    65   32  111 1    
    66   33   34 2    
    67   33   35 1    
    68   35   36 1    
    69   35   37 1    
    70   35  112 1    
    71   36  113 1    
    72   36  114 1    
    73   36  115 1    
    74   37   38 am   BACKBONE|DICT|INTERRES
    75   37  116 1    
    76   38   39 2    
    77   38   40 1    
    78   40   41 1    
    79   40   42 1    
    80   40  117 1    
    81   41  118 1    
    82   41  119 1    
    83   41  120 1    
    84   42   43 am   BACKBONE|DICT|INTERRES
    85   42  121 1    
    86   43   44 2    
    87   43   45 1    
    88   45   46 1    
    89   45   47 1    
    90   45  122 1    
    91   46  123 1    
    92   46  124 1    
    93   46  125 1    
    94   47   48 am   BACKBONE|DICT|INTERRES
    95   47  126 1    
    96   48   49 2    
    97   48   50 1    
    98   50   51 1    
    99   50   52 1    
   100   50  127 1    
   101   51  128 1    
   102   51  129 1    
   103   51  130 1    
   104   52   53 am   BACKBONE|DICT|INTERRES
   105   52  131 1    
   106   53   54 2    
   107   53   55 1    
   108   55   56 1    
   109   55   59 1    
   110   55  132 1    
   111   56   57 1    
   112   56  133 1    
   113   56  134 1    
   114   57   58 1    
   115   58  135 1    
   116   58  136 1    
   117   59   60 am   BACKBONE|DICT|INTERRES
   118   59  137 1    
   119   60   61 2    
   120   60   62 1    
   121   62   63 1    
   122   62   64 1    
   123   62  138 1    
   124   63  139 1    
   125   63  140 1    
   126   63  141 1    
   127   64   65 am   BACKBONE|DICT|INTERRES
   128   64  142 1    
   129   65   66 2    
   130   65   67 1    
   131   67   68 1    
   132   67   69 1    
   133   67  143 1    
   134   68  144 1    
   135   68  145 1    
   136   68  146 1    
   137   69   70 am   BACKBONE|DICT|INTERRES
   138   69  147 1    
   139   70   71 2    
   140   70   72 1    
   141   72   73 1    
   142   72   74 1    
   143   72  148 1    
   144   73  149 1    
   145   73  150 1    
   146   73  151 1    
   147   74   75 am   BACKBONE|DICT|INTERRES
   148   74  152 1    
   149   75   76 2    
   150   75   77 1    
   151   77   78 1    
   152   77   79 1    
   153   77  153 1    
   154   78  154 1    
   155   78  155 1    
   156   78  156 1    
   157   79   80 am   BACKBONE|DICT|INTERRES
   158   79  157 1    
   159   80   81 2    
@<TRIPOS>SUBSTRUCTURE
     1 UNK         1 GROUP             0       ****    0 ROOT    
