@<TRIPOS>MOLECULE
3R207
157   159    1
SMALL
USER_CHARGES


@<TRIPOS>ATOM
      1 CA        -49.6214  -26.8464    9.7635 C.3       0 UNK        -0.1975 
      2 C         -49.1339  -27.9917    8.8966 C.2       0 UNK         0.4852 
      3 O         -48.1523  -28.6536    9.2376 O.2       0 UNK        -0.5216 
      4 N         -49.8152  -28.2256    7.7691 N.am      1 UNK        -0.4461 
      5 CA        -49.4680  -29.2255    6.7582 C.3       1 UNK         0.0864 
      6 C6        -50.6004  -29.4299    5.7156 C.3       14 UNK        -0.0898 
      7 S7        -51.3133  -27.8917    5.0223 S.3       14 UNK        -0.2598 
      8 C8        -53.0518  -27.9947    5.5540 C.3       14 UNK         0.0286 
      9 C9        -53.2646  -27.4513    6.9607 C.ar      14 UNK        -0.0844 
     10 C10       -53.6464  -26.1184    7.1453 C.ar      14 UNK        -0.0881 
     11 C11       -53.9238  -25.6268    8.4249 C.ar      14 UNK        -0.0643 
     12 C12       -53.7983  -26.4762    9.5278 C.ar      14 UNK        -0.0930 
     13 C13       -53.3938  -27.8033    9.3595 C.ar      14 UNK        -0.0827 
     14 C14       -53.1327  -28.2868    8.0738 C.ar      14 UNK        -0.1249 
     15 C15       -53.2303  -28.7128   10.5661 C.3       14 UNK         0.0141 
     16 S16       -54.5983  -29.8985   10.7070 S.3       14 UNK        -0.2313 
     17 C17       -54.0810  -30.8263   12.1907 C.3       14 UNK        -0.0915 
     18 CA        -55.2233  -30.9794   13.2281 C.3       13 UNK         0.0968 
     19 C         -54.8133  -31.9283   14.3917 C.2       13 UNK         0.5732 
     20 N         -54.8733  -31.5100   15.6509 N.am      13 UNK        -0.7310 
     21 O         -54.4538  -33.0781   14.1490 O.2       13 UNK        -0.5035 
     22 N         -55.7369  -29.6758   13.6831 N.am      13 UNK        -0.4233 
     23 C         -57.0283  -29.4164   13.9280 C.2       13 UNK         0.4989 
     24 O         -57.9309  -30.2380   13.7587 O.2       13 UNK        -0.4996 
     25 CA        -57.3994  -28.0245   14.4745 C.3       12 UNK         0.0216 
     26 CB        -57.9650  -28.1388   15.9009 C.3       12 UNK        -0.1964 
     27 N         -56.2897  -27.0710   14.4925 N.am      12 UNK        -0.4276 
     28 C         -55.8117  -26.3929   13.4453 C.2       12 UNK         0.5020 
     29 O         -56.2583  -26.5004   12.3040 O.2       12 UNK        -0.5489 
     30 CA        -54.6317  -25.4346   13.7002 C.3       11 UNK         0.0294 
     31 CB        -55.1264  -24.0270   14.0801 C.3       11 UNK        -0.2019 
     32 N         -53.6094  -25.9099   14.6450 N.am      11 UNK        -0.4493 
     33 C         -53.7189  -26.2054   15.9496 C.2       11 UNK         0.4932 
     34 O         -54.7706  -26.0972   16.5816 O.2       11 UNK        -0.5029 
     35 CA        -52.4610  -26.7176   16.6796 C.3       10 UNK         0.0280 
     36 CB        -52.7967  -27.8323   17.6935 C.3       10 UNK        -0.1976 
     37 N         -51.3612  -27.1328   15.7987 N.am      10 UNK        -0.4242 
     38 C         -51.3505  -28.1386   14.9069 C.2       10 UNK         0.5072 
     39 O         -52.3266  -28.8550   14.6796 O.2       10 UNK        -0.5224 
     40 CA        -50.0418  -28.3606   14.1214 C.3       9 UNK         0.0343 
     41 CB        -50.2989  -28.8652   12.6926 C.3       9 UNK        -0.2003 
     42 N         -49.2647  -27.1231   14.0443 N.am      9 UNK        -0.4272 
     43 C         -48.0992  -26.8931   14.6648 C.2       9 UNK         0.4988 
     44 O         -47.4791  -27.7448   15.3016 O.2       9 UNK        -0.5108 
     45 CA        -47.5424  -25.4573   14.5973 C.3       8 UNK         0.0248 
     46 CB        -46.4570  -25.3528   13.5180 C.3       8 UNK        -0.2001 
     47 N         -48.5729  -24.4431   14.3478 N.am      8 UNK        -0.4140 
     48 C         -49.5602  -24.1437   15.2061 C.2       8 UNK         0.5028 
     49 O         -49.6735  -24.6640   16.3160 O.2       8 UNK        -0.5428 
     50 CA        -50.6388  -23.1493   14.7413 C.3       7 UNK         0.0264 
     51 CB        -50.3387  -21.7428   15.2826 C.3       7 UNK        -0.1988 
     52 N         -50.8175  -23.0775   13.2881 N.am      7 UNK        -0.4454 
     53 C         -51.1793  -24.0953   12.4923 C.2       7 UNK         0.5027 
     54 O         -51.3667  -25.2466   12.8928 O.2       7 UNK        -0.5083 
     55 CA        -51.3206  -23.7737   10.9908 C.3       6 UNK         0.0844 
     56 C56       -52.7372  -23.2302   10.6869 C.3       14 UNK        -0.0967 
     57 S57       -53.0356  -23.0306    8.8968 S.3       14 UNK        -0.2604 
     58 C58       -54.4063  -24.1937    8.6031 C.3       14 UNK         0.0134 
     59 N         -50.2754  -22.8663   10.4981 N.am      6 UNK        -0.4116 
     60 C         -48.9524  -23.0644   10.5711 C.2       5 UNK         0.5034 
     61 O         -48.4207  -24.0348   11.1149 O.2       5 UNK        -0.5045 
     62 CA        -48.0729  -21.9603    9.9818 C.3       5 UNK         0.0224 
     63 CB        -47.7158  -20.9199   11.0580 C.3       5 UNK        -0.1978 
     64 N         -46.8488  -22.5521    9.4472 N.am      5 UNK        -0.4737 
     65 C         -46.2040  -22.1158    8.3589 C.2       4 UNK         0.5027 
     66 O         -46.5673  -21.1381    7.7036 O.2       4 UNK        -0.5211 
     67 CA        -44.9314  -22.8656    7.9207 C.3       4 UNK         0.0297 
     68 CB        -43.6817  -22.0399    8.2703 C.3       4 UNK        -0.1993 
     69 N         -44.7807  -24.2121    8.4816 N.am      4 UNK        -0.4486 
     70 C         -45.5219  -25.2746    8.1435 C.2       3 UNK         0.4961 
     71 O         -46.4866  -25.2265    7.3778 O.2       3 UNK        -0.5105 
     72 CA        -45.1139  -26.6035    8.8022 C.3       3 UNK         0.0299 
     73 CB        -45.6523  -26.6804   10.2379 C.3       3 UNK        -0.1972 
     74 N         -45.5880  -27.7619    8.0419 N.am      3 UNK        -0.4305 
     75 C         -45.0315  -28.1910    6.8981 C.2       2 UNK         0.5006 
     76 O         -44.0300  -27.6778    6.3957 O.2       2 UNK        -0.5106 
     77 CA        -45.6642  -29.4093    6.1974 C.3       2 UNK         0.0296 
     78 CB        -44.8532  -30.6811    6.4977 C.3       2 UNK        -0.2002 
     79 N         -47.0608  -29.6345    6.5727 N.am      2 UNK        -0.4032 
     80 C         -48.0955  -28.9137    6.1194 C.2       1 UNK         0.5000 
     81 O         -47.9896  -28.0265    5.2700 O.2       1 UNK        -0.5238 
     82 H82       -49.1365  -26.8574   10.7393 H         1 UNK         0.0889 
     83 H83       -50.6971  -26.9137    9.9169 H         1 UNK         0.0889 
     84 H84       -49.3931  -25.8958    9.2826 H         1 UNK         0.0889 
     85 H85       -50.6022  -27.6383    7.5269 H         1 UNK         0.3028 
     86 H86       -49.3670  -30.1768    7.2858 H         1 UNK         0.0864 
     87 H87       -50.2494  -30.0468    4.8861 H         1 UNK         0.0720 
     88 H88       -51.3988  -30.0115    6.1768 H         1 UNK         0.0720 
     89 H89       -53.4082  -29.0236    5.4846 H         1 UNK         0.0814 
     90 H90       -53.6593  -27.4268    4.8476 H         1 UNK         0.0814 
     91 H91       -53.7542  -25.4677    6.2880 H         1 UNK         0.1469 
     92 H92       -54.0273  -26.1096   10.5172 H         1 UNK         0.1381 
     93 H93       -52.8417  -29.3199    7.9429 H         1 UNK         0.1206 
     94 H94       -52.2905  -29.2597   10.4797 H         1 UNK         0.0813 
     95 H95       -53.1740  -28.1251   11.4841 H         1 UNK         0.0813 
     96 H96       -53.2204  -30.3411   12.6516 H         1 UNK         0.0638 
     97 H97       -53.7328  -31.8042   11.8536 H         1 UNK         0.0638 
     98 H98       -56.0303  -31.5054   12.7148 H         1 UNK         0.0568 
     99 H99       -54.6107  -32.1399   16.3919 H         1 UNK         0.3450 
    100 H100      -55.1606  -30.5694   15.8633 H         1 UNK         0.3450 
    101 H101      -55.0456  -28.9619   13.8597 H         1 UNK         0.2987 
    102 H102      -58.1832  -27.6256   13.8271 H         1 UNK         0.0766 
    103 H103      -58.8245  -28.8100   15.9319 H         1 UNK         0.0798 
    104 H104      -58.3008  -27.1705   16.2726 H         1 UNK         0.0798 
    105 H105      -57.2224  -28.5263   16.5996 H         1 UNK         0.0798 
    106 H106      -55.8617  -26.8692   15.3956 H         1 UNK         0.3198 
    107 H107      -54.1117  -25.3517   12.7478 H         1 UNK         0.0843 
    108 H108      -55.6501  -24.0240   15.0365 H         1 UNK         0.0831 
    109 H109      -55.8188  -23.6421   13.3302 H         1 UNK         0.0831 
    110 H110      -54.2980  -23.3218   14.1486 H         1 UNK         0.0831 
    111 H111      -52.6935  -26.0303   14.2240 H         1 UNK         0.3133 
    112 H112      -52.0809  -25.8652   17.2442 H         1 UNK         0.0566 
    113 H113      -53.2486  -28.6986   17.2094 H         1 UNK         0.0814 
    114 H114      -53.5006  -27.4796   18.4483 H         1 UNK         0.0814 
    115 H115      -51.9048  -28.1704   18.2210 H         1 UNK         0.0814 
    116 H116      -50.5190  -26.5755   15.8940 H         1 UNK         0.3091 
    117 H117      -49.4848  -29.1316   14.6570 H         1 UNK         0.0702 
    118 H118      -49.3635  -29.0403   12.1604 H         1 UNK         0.0785 
    119 H119      -50.8778  -28.1401   12.1229 H         1 UNK         0.0785 
    120 H120      -50.8477  -29.8072   12.6955 H         1 UNK         0.0785 
    121 H121      -49.7188  -26.3549   13.5616 H         1 UNK         0.2998 
    122 H122      -47.0847  -25.2376   15.5642 H         1 UNK         0.0697 
    123 H123      -46.8648  -25.5756   12.5335 H         1 UNK         0.0825 
    124 H124      -45.6476  -26.0600   13.7047 H         1 UNK         0.0825 
    125 H125      -46.0183  -24.3555   13.4841 H         1 UNK         0.0825 
    126 H126      -48.5675  -24.0075   13.4340 H         1 UNK         0.3029 
    127 H127      -51.5864  -23.4848   15.1687 H         1 UNK         0.0897 
    128 H128      -49.4169  -21.3366   14.8639 H         1 UNK         0.0792 
    129 H129      -50.2245  -21.7581   16.3677 H         1 UNK         0.0792 
    130 H130      -51.1474  -21.0479   15.0555 H         1 UNK         0.0792 
    131 H131      -50.6727  -22.1729   12.8637 H         1 UNK         0.3086 
    132 H132      -51.2081  -24.7147   10.4548 H         1 UNK         0.0583 
    133 H133      -53.5022  -23.8839   11.1040 H         1 UNK         0.1020 
    134 H134      -52.8889  -22.2606   11.1657 H         1 UNK         0.1020 
    135 H135      -55.1326  -24.1330    9.4152 H         1 UNK         0.0694 
    136 H136      -54.9395  -23.8748    7.7062 H         1 UNK         0.0694 
    137 H137      -50.6134  -22.0411   10.0241 H         1 UNK         0.2989 
    138 H138      -48.6282  -21.4733    9.1765 H         1 UNK         0.1055 
    139 H139      -47.1028  -20.1186   10.6450 H         1 UNK         0.0806 
    140 H140      -47.1644  -21.3692   11.8853 H         1 UNK         0.0806 
    141 H141      -48.6123  -20.4581   11.4737 H         1 UNK         0.0806 
    142 H142      -46.5399  -23.3979    9.9086 H         1 UNK         0.3061 
    143 H143      -44.9790  -22.9628    6.8338 H         1 UNK         0.0734 
    144 H144      -43.5672  -21.9176    9.3481 H         1 UNK         0.0832 
    145 H145      -42.7748  -22.5058    7.8844 H         1 UNK         0.0832 
    146 H146      -43.7386  -21.0411    7.8349 H         1 UNK         0.0832 
    147 H147      -44.0209  -24.3422    9.1346 H         1 UNK         0.3156 
    148 H148      -44.0234  -26.6498    8.8448 H         1 UNK         0.0589 
    149 H149      -46.7292  -26.5172   10.2733 H         1 UNK         0.0808 
    150 H150      -45.1859  -25.9203   10.8650 H         1 UNK         0.0808 
    151 H151      -45.4439  -27.6480   10.6948 H         1 UNK         0.0808 
    152 H152      -46.4395  -28.2028    8.3778 H         1 UNK         0.3098 
    153 H153      -45.6202  -29.2260    5.1215 H         1 UNK         0.0720 
    154 H154      -43.8111  -30.5590    6.1988 H         1 UNK         0.0791 
    155 H155      -45.2455  -31.5403    5.9532 H         1 UNK         0.0791 
    156 H156      -44.8605  -30.9237    7.5612 H         1 UNK         0.0791 
    157 H157      -47.2278  -30.3114    7.3043 H         1 UNK         0.3028 
@<TRIPOS>BOND
     1    1    2 1    
     2    1   82 1    
     3    1   83 1    
     4    1   84 1    
     5    2    3 2    
     6    2    4 am   BACKBONE|DICT|INTERRES
     7    4    5 1    
     8    4   85 1    
     9    5    6 1    
    10    5   80 1    
    11    5   86 1    
    12    6    7 1    
    13    6   87 1    
    14    6   88 1    
    15    7    8 1    
    16    8    9 1    
    17    8   89 1    
    18    8   90 1    
    19    9   10 ar   
    20    9   14 ar   
    21   10   11 ar   
    22   10   91 1    
    23   11   12 ar   
    24   11   58 1    
    25   12   13 ar   
    26   12   92 1    
    27   13   14 ar   
    28   13   15 1    
    29   14   93 1    
    30   15   16 1    
    31   15   94 1    
    32   15   95 1    
    33   16   17 1    
    34   17   18 1    
    35   17   96 1    
    36   17   97 1    
    37   18   19 1    
    38   18   22 1    
    39   18   98 1    
    40   19   20 am   BACKBONE|DICT|INTERRES
    41   19   21 2    
    42   20   99 1    
    43   20  100 1    
    44   22   23 am   BACKBONE|DICT|INTERRES
    45   22  101 1    
    46   23   24 2    
    47   23   25 1    
    48   25   26 1    
    49   25   27 1    
    50   25  102 1    
    51   26  103 1    
    52   26  104 1    
    53   26  105 1    
    54   27   28 am   BACKBONE|DICT|INTERRES
    55   27  106 1    
    56   28   29 2    
    57   28   30 1    
    58   30   31 1    
    59   30   32 1    
    60   30  107 1    
    61   31  108 1    
    62   31  109 1    
    63   31  110 1    
    64   32   33 am   BACKBONE|DICT|INTERRES
    65   32  111 1    
    66   33   34 2    
    67   33   35 1    
    68   35   36 1    
    69   35   37 1    
    70   35  112 1    
    71   36  113 1    
    72   36  114 1    
    73   36  115 1    
    74   37   38 am   BACKBONE|DICT|INTERRES
    75   37  116 1    
    76   38   39 2    
    77   38   40 1    
    78   40   41 1    
    79   40   42 1    
    80   40  117 1    
    81   41  118 1    
    82   41  119 1    
    83   41  120 1    
    84   42   43 am   BACKBONE|DICT|INTERRES
    85   42  121 1    
    86   43   44 2    
    87   43   45 1    
    88   45   46 1    
    89   45   47 1    
    90   45  122 1    
    91   46  123 1    
    92   46  124 1    
    93   46  125 1    
    94   47   48 am   BACKBONE|DICT|INTERRES
    95   47  126 1    
    96   48   49 2    
    97   48   50 1    
    98   50   51 1    
    99   50   52 1    
   100   50  127 1    
   101   51  128 1    
   102   51  129 1    
   103   51  130 1    
   104   52   53 am   BACKBONE|DICT|INTERRES
   105   52  131 1    
   106   53   54 2    
   107   53   55 1    
   108   55   56 1    
   109   55   59 1    
   110   55  132 1    
   111   56   57 1    
   112   56  133 1    
   113   56  134 1    
   114   57   58 1    
   115   58  135 1    
   116   58  136 1    
   117   59   60 am   BACKBONE|DICT|INTERRES
   118   59  137 1    
   119   60   61 2    
   120   60   62 1    
   121   62   63 1    
   122   62   64 1    
   123   62  138 1    
   124   63  139 1    
   125   63  140 1    
   126   63  141 1    
   127   64   65 am   BACKBONE|DICT|INTERRES
   128   64  142 1    
   129   65   66 2    
   130   65   67 1    
   131   67   68 1    
   132   67   69 1    
   133   67  143 1    
   134   68  144 1    
   135   68  145 1    
   136   68  146 1    
   137   69   70 am   BACKBONE|DICT|INTERRES
   138   69  147 1    
   139   70   71 2    
   140   70   72 1    
   141   72   73 1    
   142   72   74 1    
   143   72  148 1    
   144   73  149 1    
   145   73  150 1    
   146   73  151 1    
   147   74   75 am   BACKBONE|DICT|INTERRES
   148   74  152 1    
   149   75   76 2    
   150   75   77 1    
   151   77   78 1    
   152   77   79 1    
   153   77  153 1    
   154   78  154 1    
   155   78  155 1    
   156   78  156 1    
   157   79   80 am   BACKBONE|DICT|INTERRES
   158   79  157 1    
   159   80   81 2    
@<TRIPOS>SUBSTRUCTURE
     1 UNK         1 GROUP             0       ****    0 ROOT    
