@<TRIPOS>MOLECULE
3R207
157   159    1
SMALL
USER_CHARGES


@<TRIPOS>ATOM
      1 CA        -50.8334  -20.8329    4.0858 C.3       0 UNK        -0.1975 
      2 C         -50.6540  -22.3021    4.4373 C.2       0 UNK         0.4852 
      3 O         -50.5077  -23.1319    3.5398 O.2       0 UNK        -0.5216 
      4 N         -50.6375  -22.6283    5.7376 N.am      1 UNK        -0.4461 
      5 CA        -50.5389  -23.9702    6.3385 C.3       1 UNK         0.0864 
      6 C6        -51.6938  -24.9160    5.9095 C.3       14 UNK        -0.0898 
      7 S7        -52.1826  -26.0757    7.2311 S.3       14 UNK        -0.2598 
      8 C8        -51.5990  -27.6582    6.5500 C.3       14 UNK         0.0286 
      9 C9        -51.9820  -28.8169    7.4590 C.ar      14 UNK        -0.0844 
     10 C10       -51.0694  -29.3161    8.3914 C.ar      14 UNK        -0.0881 
     11 C11       -51.4202  -30.3699    9.2419 C.ar      14 UNK        -0.0643 
     12 C12       -52.6910  -30.9434    9.1343 C.ar      14 UNK        -0.0930 
     13 C13       -53.6159  -30.4491    8.2089 C.ar      14 UNK        -0.0827 
     14 C14       -53.2546  -29.3879    7.3729 C.ar      14 UNK        -0.1249 
     15 C15       -55.0101  -31.0491    8.1134 C.3       14 UNK         0.0141 
     16 S16       -56.1100  -30.3781    9.4008 S.3       14 UNK        -0.2313 
     17 C17       -55.7902  -31.5143   10.7933 C.3       14 UNK        -0.0915 
     18 CA        -57.0246  -31.6165   11.7395 C.3       13 UNK         0.0968 
     19 C         -56.9989  -32.8237   12.7313 C.2       13 UNK         0.5732 
     20 N         -56.2681  -33.8930   12.4424 N.am      13 UNK        -0.7310 
     21 O         -57.6984  -32.8276   13.7435 O.2       13 UNK        -0.5035 
     22 N         -57.3272  -30.3318   12.3974 N.am      13 UNK        -0.4233 
     23 C         -56.6190  -29.7702   13.3868 C.2       13 UNK         0.4989 
     24 O         -55.5865  -30.2551   13.8586 O.2       13 UNK        -0.4996 
     25 CA        -57.1876  -28.4582   13.9624 C.3       12 UNK         0.0216 
     26 CB        -58.5332  -28.7038   14.6701 C.3       12 UNK        -0.1964 
     27 N         -56.2606  -27.8613   14.9260 N.am      12 UNK        -0.4276 
     28 C         -55.2027  -27.1074   14.6078 C.2       12 UNK         0.5020 
     29 O         -54.9555  -26.7060   13.4672 O.2       12 UNK        -0.5489 
     30 CA        -54.2435  -26.7983   15.7667 C.3       11 UNK         0.0294 
     31 CB        -53.2919  -27.9848   15.9988 C.3       11 UNK        -0.2019 
     32 N         -53.4382  -25.6133   15.4886 N.am      11 UNK        -0.4493 
     33 C         -53.7506  -24.3599   15.8357 C.2       11 UNK         0.4932 
     34 O         -54.7896  -24.0479   16.4211 O.2       11 UNK        -0.5029 
     35 CA        -52.6932  -23.2893   15.4928 C.3       10 UNK         0.0280 
     36 CB        -52.9796  -21.9155   16.1349 C.3       10 UNK        -0.1976 
     37 N         -51.3324  -23.7485   15.8021 N.am      10 UNK        -0.4242 
     38 C         -50.8429  -24.1148   16.9977 C.2       10 UNK         0.5072 
     39 O         -51.4468  -23.9775   18.0626 O.2       10 UNK        -0.5224 
     40 CA        -49.4576  -24.7896   17.0186 C.3       9 UNK         0.0343 
     41 CB        -49.6170  -26.3029   17.2416 C.3       9 UNK        -0.2003 
     42 N         -48.6747  -24.5728   15.7991 N.am      9 UNK        -0.4272 
     43 C         -48.0492  -23.4284   15.4886 C.2       9 UNK         0.4988 
     44 O         -48.0131  -22.4444   16.2281 O.2       9 UNK        -0.5108 
     45 CA        -47.3741  -23.3593   14.1067 C.3       8 UNK         0.0248 
     46 CB        -45.9904  -24.0273   14.1404 C.3       8 UNK        -0.2001 
     47 N         -48.1846  -23.9609   13.0441 N.am      8 UNK        -0.4140 
     48 C         -49.3951  -23.5257   12.6643 C.2       8 UNK         0.5028 
     49 O         -49.9509  -22.5343   13.1362 O.2       8 UNK        -0.5428 
     50 CA        -50.1361  -24.3684   11.6173 C.3       7 UNK         0.0264 
     51 CB        -49.6528  -24.0432   10.1961 C.3       7 UNK        -0.1988 
     52 N         -49.9911  -25.8019   11.8637 N.am      7 UNK        -0.4454 
     53 C         -50.5610  -26.4618   12.8823 C.2       7 UNK         0.5027 
     54 O         -51.2701  -25.9292   13.7345 O.2       7 UNK        -0.5083 
     55 CA        -50.2693  -27.9721   12.9703 C.3       6 UNK         0.0844 
     56 C56       -51.2018  -28.7273   11.9918 C.3       14 UNK        -0.0967 
     57 S57       -50.9725  -30.5387   11.9956 S.3       14 UNK        -0.2604 
     58 C58       -50.4290  -30.8751   10.2847 C.3       14 UNK         0.0134 
     59 N         -48.8470  -28.2612   12.7563 N.am      6 UNK        -0.4116 
     60 C         -47.8481  -27.8046   13.5275 C.2       5 UNK         0.5034 
     61 O         -48.0134  -27.1195   14.5360 O.2       5 UNK        -0.5045 
     62 CA        -46.4155  -28.1121   13.0597 C.3       5 UNK         0.0224 
     63 CB        -45.9707  -29.4960   13.5585 C.3       5 UNK        -0.1978 
     64 N         -46.2426  -28.0326   11.6041 N.am      5 UNK        -0.4737 
     65 C         -46.4950  -26.9471   10.8600 C.2       4 UNK         0.5027 
     66 O         -46.9226  -25.8861   11.3206 O.2       4 UNK        -0.5211 
     67 CA        -46.3116  -27.1172    9.3448 C.3       4 UNK         0.0297 
     68 CB        -47.4893  -27.9102    8.7591 C.3       4 UNK        -0.1993 
     69 N         -46.2321  -25.8363    8.6456 N.am      4 UNK        -0.4486 
     70 C         -45.1730  -25.0138    8.6550 C.2       3 UNK         0.4961 
     71 O         -44.1344  -25.2478    9.2766 O.2       3 UNK        -0.5105 
     72 CA        -45.2895  -23.7254    7.8071 C.3       3 UNK         0.0299 
     73 CB        -43.9179  -23.1332    7.4187 C.3       3 UNK        -0.1972 
     74 N         -46.1454  -23.8943    6.6238 N.am      3 UNK        -0.4305 
     75 C         -45.9876  -24.7797    5.6258 C.2       2 UNK         0.5006 
     76 O         -44.9702  -25.4574    5.4714 O.2       2 UNK        -0.5106 
     77 CA        -47.1689  -24.9703    4.6465 C.3       2 UNK         0.0296 
     78 CB        -47.3648  -26.4585    4.2856 C.3       2 UNK        -0.2002 
     79 N         -48.4566  -24.3967    5.0721 N.am      2 UNK        -0.4032 
     80 C         -49.1548  -24.6464    6.1908 C.2       1 UNK         0.5000 
     81 O         -48.7288  -25.3469    7.1104 O.2       1 UNK        -0.5238 
     82 H82       -50.9405  -20.2101    4.9738 H         1 UNK         0.0889 
     83 H83       -51.7233  -20.7017    3.4708 H         1 UNK         0.0889 
     84 H84       -49.9732  -20.4742    3.5213 H         1 UNK         0.0889 
     85 H85       -50.7281  -21.8804    6.4122 H         1 UNK         0.3028 
     86 H86       -50.6562  -23.7708    7.4032 H         1 UNK         0.0864 
     87 H87       -51.4538  -25.4524    4.9892 H         1 UNK         0.0720 
     88 H88       -52.5856  -24.3310    5.6789 H         1 UNK         0.0720 
     89 H89       -50.5163  -27.6174    6.4169 H         1 UNK         0.0814 
     90 H90       -52.0289  -27.8109    5.5588 H         1 UNK         0.0814 
     91 H91       -50.0889  -28.8723    8.4622 H         1 UNK         0.1469 
     92 H92       -52.9663  -31.7576    9.7902 H         1 UNK         0.1381 
     93 H93       -53.9678  -28.9963    6.6601 H         1 UNK         0.1206 
     94 H94       -55.4456  -30.8248    7.1384 H         1 UNK         0.0813 
     95 H95       -54.9610  -32.1371    8.1729 H         1 UNK         0.0813 
     96 H96       -54.9045  -31.1794   11.3357 H         1 UNK         0.0638 
     97 H97       -55.5453  -32.4882   10.3701 H         1 UNK         0.0638 
     98 H98       -57.8923  -31.8249   11.1127 H         1 UNK         0.0568 
     99 H99       -56.2786  -34.6758   13.0772 H         1 UNK         0.3450 
    100 H100      -55.7037  -33.9313   11.6092 H         1 UNK         0.3450 
    101 H101      -58.1747  -29.8788   12.0896 H         1 UNK         0.2987 
    102 H102      -57.3447  -27.7613   13.1361 H         1 UNK         0.0766 
    103 H103      -58.9271  -27.7838   15.1027 H         1 UNK         0.0798 
    104 H104      -58.4399  -29.4379   15.4719 H         1 UNK         0.0798 
    105 H105      -59.2870  -29.0763   13.9757 H         1 UNK         0.0798 
    106 H106      -56.3470  -28.1847   15.8788 H         1 UNK         0.3198 
    107 H107      -54.8273  -26.6341   16.6753 H         1 UNK         0.0843 
    108 H108      -52.7030  -28.2064   15.1082 H         1 UNK         0.0831 
    109 H109      -53.8448  -28.8902   16.2531 H         1 UNK         0.0831 
    110 H110      -52.6010  -27.7862   16.8183 H         1 UNK         0.0831 
    111 H111      -52.6102  -25.7571   14.9111 H         1 UNK         0.3133 
    112 H112      -52.7285  -23.1611   14.4099 H         1 UNK         0.0566 
    113 H113      -52.2185  -21.1850   15.8606 H         1 UNK         0.0814 
    114 H114      -53.9409  -21.5231   15.8013 H         1 UNK         0.0814 
    115 H115      -53.0135  -21.9734   17.2231 H         1 UNK         0.0814 
    116 H116      -50.7511  -23.9274   14.9936 H         1 UNK         0.3091 
    117 H117      -48.9035  -24.3759   17.8638 H         1 UNK         0.0702 
    118 H118      -48.6482  -26.7949   17.3308 H         1 UNK         0.0785 
    119 H119      -50.1567  -26.7745   16.4190 H         1 UNK         0.0785 
    120 H120      -50.1715  -26.5098   18.1580 H         1 UNK         0.0785 
    121 H121      -48.5900  -25.3662   15.1690 H         1 UNK         0.2998 
    122 H122      -47.2372  -22.3052   13.8565 H         1 UNK         0.0697 
    123 H123      -46.0596  -25.0852   14.3939 H         1 UNK         0.0825 
    124 H124      -45.3476  -23.5550   14.8844 H         1 UNK         0.0825 
    125 H125      -45.4868  -23.9472   13.1767 H         1 UNK         0.0825 
    126 H126      -47.7814  -24.7548   12.5498 H         1 UNK         0.3029 
    127 H127      -51.1987  -24.1226   11.6803 H         1 UNK         0.0897 
    128 H128      -50.1705  -24.6604    9.4628 H         1 UNK         0.0792 
    129 H129      -49.8481  -22.9997    9.9467 H         1 UNK         0.0792 
    130 H130      -48.5825  -24.2133   10.0753 H         1 UNK         0.0792 
    131 H131      -49.3609  -26.2998   11.2522 H         1 UNK         0.3086 
    132 H132      -50.5098  -28.2938   13.9857 H         1 UNK         0.0583 
    133 H133      -52.2463  -28.5364   12.2499 H         1 UNK         0.1020 
    134 H134      -51.0782  -28.3409   10.9799 H         1 UNK         0.1020 
    135 H135      -49.4442  -30.4314   10.1323 H         1 UNK         0.0694 
    136 H136      -50.3004  -31.9514   10.1621 H         1 UNK         0.0694 
    137 H137      -48.6161  -28.8368   11.9616 H         1 UNK         0.2989 
    138 H138      -45.7611  -27.3613   13.5072 H         1 UNK         0.1055 
    139 H139      -46.0745  -29.5713   14.6421 H         1 UNK         0.0806 
    140 H140      -44.9232  -29.6854   13.3230 H         1 UNK         0.0806 
    141 H141      -46.5651  -30.2976   13.1181 H         1 UNK         0.0806 
    142 H142      -45.8986  -28.8643   11.1448 H         1 UNK         0.3061 
    143 H143      -45.3858  -27.6677    9.1646 H         1 UNK         0.0734 
    144 H144      -47.3796  -28.0465    7.6828 H         1 UNK         0.0832 
    145 H145      -47.5649  -28.9029    9.2036 H         1 UNK         0.0832 
    146 H146      -48.4335  -27.3927    8.9330 H         1 UNK         0.0832 
    147 H147      -47.0588  -25.5644    8.1200 H         1 UNK         0.3156 
    148 H148      -45.7938  -22.9961    8.4427 H         1 UNK         0.0589 
    149 H149      -43.3213  -23.8379    6.8387 H         1 UNK         0.0808 
    150 H150      -44.0306  -22.2236    6.8289 H         1 UNK         0.0808 
    151 H151      -43.3393  -22.8728    8.3058 H         1 UNK         0.0808 
    152 H152      -47.0207  -23.3914    6.6485 H         1 UNK         0.3098 
    153 H153      -46.8895  -24.4403    3.7348 H         1 UNK         0.0720 
    154 H154      -48.1755  -26.5896    3.5688 H         1 UNK         0.0791 
    155 H155      -47.5968  -27.0581    5.1669 H         1 UNK         0.0791 
    156 H156      -46.4661  -26.8790    3.8327 H         1 UNK         0.0791 
    157 H157      -48.9323  -23.8243    4.3790 H         1 UNK         0.3028 
@<TRIPOS>BOND
     1    1    2 1    
     2    1   82 1    
     3    1   83 1    
     4    1   84 1    
     5    2    3 2    
     6    2    4 am   BACKBONE|DICT|INTERRES
     7    4    5 1    
     8    4   85 1    
     9    5    6 1    
    10    5   80 1    
    11    5   86 1    
    12    6    7 1    
    13    6   87 1    
    14    6   88 1    
    15    7    8 1    
    16    8    9 1    
    17    8   89 1    
    18    8   90 1    
    19    9   10 ar   
    20    9   14 ar   
    21   10   11 ar   
    22   10   91 1    
    23   11   12 ar   
    24   11   58 1    
    25   12   13 ar   
    26   12   92 1    
    27   13   14 ar   
    28   13   15 1    
    29   14   93 1    
    30   15   16 1    
    31   15   94 1    
    32   15   95 1    
    33   16   17 1    
    34   17   18 1    
    35   17   96 1    
    36   17   97 1    
    37   18   19 1    
    38   18   22 1    
    39   18   98 1    
    40   19   20 am   BACKBONE|DICT|INTERRES
    41   19   21 2    
    42   20   99 1    
    43   20  100 1    
    44   22   23 am   BACKBONE|DICT|INTERRES
    45   22  101 1    
    46   23   24 2    
    47   23   25 1    
    48   25   26 1    
    49   25   27 1    
    50   25  102 1    
    51   26  103 1    
    52   26  104 1    
    53   26  105 1    
    54   27   28 am   BACKBONE|DICT|INTERRES
    55   27  106 1    
    56   28   29 2    
    57   28   30 1    
    58   30   31 1    
    59   30   32 1    
    60   30  107 1    
    61   31  108 1    
    62   31  109 1    
    63   31  110 1    
    64   32   33 am   BACKBONE|DICT|INTERRES
    65   32  111 1    
    66   33   34 2    
    67   33   35 1    
    68   35   36 1    
    69   35   37 1    
    70   35  112 1    
    71   36  113 1    
    72   36  114 1    
    73   36  115 1    
    74   37   38 am   BACKBONE|DICT|INTERRES
    75   37  116 1    
    76   38   39 2    
    77   38   40 1    
    78   40   41 1    
    79   40   42 1    
    80   40  117 1    
    81   41  118 1    
    82   41  119 1    
    83   41  120 1    
    84   42   43 am   BACKBONE|DICT|INTERRES
    85   42  121 1    
    86   43   44 2    
    87   43   45 1    
    88   45   46 1    
    89   45   47 1    
    90   45  122 1    
    91   46  123 1    
    92   46  124 1    
    93   46  125 1    
    94   47   48 am   BACKBONE|DICT|INTERRES
    95   47  126 1    
    96   48   49 2    
    97   48   50 1    
    98   50   51 1    
    99   50   52 1    
   100   50  127 1    
   101   51  128 1    
   102   51  129 1    
   103   51  130 1    
   104   52   53 am   BACKBONE|DICT|INTERRES
   105   52  131 1    
   106   53   54 2    
   107   53   55 1    
   108   55   56 1    
   109   55   59 1    
   110   55  132 1    
   111   56   57 1    
   112   56  133 1    
   113   56  134 1    
   114   57   58 1    
   115   58  135 1    
   116   58  136 1    
   117   59   60 am   BACKBONE|DICT|INTERRES
   118   59  137 1    
   119   60   61 2    
   120   60   62 1    
   121   62   63 1    
   122   62   64 1    
   123   62  138 1    
   124   63  139 1    
   125   63  140 1    
   126   63  141 1    
   127   64   65 am   BACKBONE|DICT|INTERRES
   128   64  142 1    
   129   65   66 2    
   130   65   67 1    
   131   67   68 1    
   132   67   69 1    
   133   67  143 1    
   134   68  144 1    
   135   68  145 1    
   136   68  146 1    
   137   69   70 am   BACKBONE|DICT|INTERRES
   138   69  147 1    
   139   70   71 2    
   140   70   72 1    
   141   72   73 1    
   142   72   74 1    
   143   72  148 1    
   144   73  149 1    
   145   73  150 1    
   146   73  151 1    
   147   74   75 am   BACKBONE|DICT|INTERRES
   148   74  152 1    
   149   75   76 2    
   150   75   77 1    
   151   77   78 1    
   152   77   79 1    
   153   77  153 1    
   154   78  154 1    
   155   78  155 1    
   156   78  156 1    
   157   79   80 am   BACKBONE|DICT|INTERRES
   158   79  157 1    
   159   80   81 2    
@<TRIPOS>SUBSTRUCTURE
     1 UNK         1 GROUP             0       ****    0 ROOT    
