@<TRIPOS>MOLECULE
3R207
157   159    1
SMALL
USER_CHARGES


@<TRIPOS>ATOM
      1 CA        -44.6641  -29.5032    7.5115 C.3       0 UNK        -0.1975 
      2 C         -45.6870  -28.7621    6.6630 C.2       0 UNK         0.4852 
      3 O         -45.3222  -27.8344    5.9403 O.2       0 UNK        -0.5216 
      4 N         -46.9614  -29.1697    6.7427 N.am      1 UNK        -0.4461 
      5 CA        -48.0920  -28.5398    6.0526 C.3       1 UNK         0.0864 
      6 C6        -49.3595  -29.4250    6.1365 C.3       14 UNK        -0.0898 
      7 S7        -50.5576  -29.0196    4.8221 S.3       14 UNK        -0.2598 
      8 C8        -52.0972  -29.7210    5.4941 C.3       14 UNK         0.0286 
      9 C9        -52.5739  -29.0444    6.7760 C.ar      14 UNK        -0.0844 
     10 C10       -52.7627  -27.6595    6.8346 C.ar      14 UNK        -0.0881 
     11 C11       -53.2744  -27.0573    7.9894 C.ar      14 UNK        -0.0643 
     12 C12       -53.6095  -27.8573    9.0877 C.ar      14 UNK        -0.0930 
     13 C13       -53.4078  -29.2423    9.0515 C.ar      14 UNK        -0.0827 
     14 C14       -52.8873  -29.8239    7.8921 C.ar      14 UNK        -0.1249 
     15 C15       -53.8112  -30.1476   10.2118 C.3       14 UNK         0.0141 
     16 S16       -53.5319  -29.4341   11.8662 S.3       14 UNK        -0.2313 
     17 C17       -54.0905  -30.8333   12.8972 C.3       14 UNK        -0.0915 
     18 CA        -55.6258  -30.8118   13.1592 C.3       13 UNK         0.0968 
     19 C         -56.1618  -32.1422   13.7746 C.2       13 UNK         0.5732 
     20 N         -57.2343  -32.1211   14.5572 N.am      13 UNK        -0.7310 
     21 O         -55.6267  -33.2172   13.5122 O.2       13 UNK        -0.5035 
     22 N         -56.0654  -29.5844   13.8463 N.am      13 UNK        -0.4233 
     23 C         -55.7820  -29.2361   15.1074 C.2       13 UNK         0.4989 
     24 O         -55.1208  -29.9243   15.8869 O.2       13 UNK        -0.4996 
     25 CA        -56.3169  -27.8654   15.5486 C.3       12 UNK         0.0216 
     26 CB        -56.2773  -27.6682   17.0756 C.3       12 UNK        -0.1964 
     27 N         -55.5457  -26.8059   14.8984 N.am      12 UNK        -0.4276 
     28 C         -55.8034  -26.3143   13.6771 C.2       12 UNK         0.5020 
     29 O         -56.7387  -26.7212   12.9842 O.2       12 UNK        -0.5489 
     30 CA        -54.8730  -25.2243   13.1000 C.3       11 UNK         0.0294 
     31 CB        -55.6664  -24.0493   12.4937 C.3       11 UNK        -0.2019 
     32 N         -53.8364  -24.7369   14.0170 N.am      11 UNK        -0.4493 
     33 C         -53.9772  -24.0928   15.1854 C.2       11 UNK         0.4932 
     34 O         -55.0594  -23.7244   15.6436 O.2       11 UNK        -0.5029 
     35 CA        -52.6790  -23.8836   15.9967 C.3       10 UNK         0.0280 
     36 CB        -52.9452  -23.5564   17.4807 C.3       10 UNK        -0.1976 
     37 N         -51.7448  -25.0140   15.8779 N.am      10 UNK        -0.4242 
     38 C         -51.9996  -26.3064   16.1422 C.2       10 UNK         0.5072 
     39 O         -53.0646  -26.6979   16.6181 O.2       10 UNK        -0.5224 
     40 CA        -50.9377  -27.3565   15.7620 C.3       9 UNK         0.0343 
     41 CB        -51.4905  -28.2894   14.6717 C.3       9 UNK        -0.2003 
     42 N         -49.6822  -26.7762   15.2833 N.am      9 UNK        -0.4272 
     43 C         -48.7091  -26.2991   16.0704 C.2       9 UNK         0.4988 
     44 O         -48.7272  -26.3630   17.2999 O.2       9 UNK        -0.5108 
     45 CA        -47.5361  -25.5917   15.3667 C.3       8 UNK         0.0248 
     46 CB        -46.4816  -26.6121   14.9114 C.3       8 UNK        -0.2001 
     47 N         -47.9588  -24.7638   14.2295 N.am      8 UNK        -0.4140 
     48 C         -48.7912  -23.7150   14.3314 C.2       8 UNK         0.5028 
     49 O         -49.2654  -23.3196   15.3961 O.2       8 UNK        -0.5428 
     50 CA        -49.2095  -23.0112   13.0337 C.3       7 UNK         0.0264 
     51 CB        -48.1308  -22.0109   12.5893 C.3       7 UNK        -0.1988 
     52 N         -49.4994  -23.9465   11.9471 N.am      7 UNK        -0.4454 
     53 C         -50.5100  -24.8278   11.9357 C.2       7 UNK         0.5027 
     54 O         -51.3215  -24.9452   12.8535 O.2       7 UNK        -0.5083 
     55 CA        -50.5910  -25.7810   10.7231 C.3       6 UNK         0.0844 
     56 C56       -51.1034  -25.0652    9.4486 C.3       14 UNK        -0.0967 
     57 S57       -52.8956  -24.7292    9.5252 S.3       14 UNK        -0.2604 
     58 C58       -53.5130  -25.5502    8.0171 C.3       14 UNK         0.0134 
     59 N         -49.3150  -26.4586   10.4887 N.am      6 UNK        -0.4116 
     60 C         -48.6678  -27.2183   11.3838 C.2       5 UNK         0.5034 
     61 O         -49.0933  -27.4873   12.5066 O.2       5 UNK        -0.5045 
     62 CA        -47.2836  -27.7297   10.9690 C.3       5 UNK         0.0224 
     63 CB        -47.4030  -29.0746   10.2373 C.3       5 UNK        -0.1978 
     64 N         -46.5670  -26.7571   10.1382 N.am      5 UNK        -0.4737 
     65 C         -46.0338  -25.6258   10.6162 C.2       4 UNK         0.5027 
     66 O         -46.1018  -25.2886   11.7997 O.2       4 UNK        -0.5211 
     67 CA        -45.2931  -24.7242    9.6116 C.3       4 UNK         0.0297 
     68 CB        -44.1169  -25.4740    8.9614 C.3       4 UNK        -0.1993 
     69 N         -46.1125  -24.1047    8.5610 N.am      4 UNK        -0.4486 
     70 C         -47.2705  -23.4481    8.7240 C.2       3 UNK         0.4961 
     71 O         -47.9335  -23.4594    9.7554 O.2       3 UNK        -0.5105 
     72 CA        -47.7775  -22.5968    7.5460 C.3       3 UNK         0.0299 
     73 CB        -47.3399  -21.1362    7.7396 C.3       3 UNK        -0.1972 
     74 N         -47.2974  -23.0677    6.2448 N.am      3 UNK        -0.4305 
     75 C         -47.7834  -24.0840    5.5190 C.2       2 UNK         0.5006 
     76 O         -47.2557  -24.4199    4.4583 O.2       2 UNK        -0.5106 
     77 CA        -49.0563  -24.8260    5.9746 C.3       2 UNK         0.0296 
     78 CB        -50.2889  -24.3074    5.2172 C.3       2 UNK        -0.2002 
     79 N         -48.8926  -26.2500    5.7086 N.am      2 UNK        -0.4032 
     80 C         -48.3594  -27.1126    6.5792 C.2       1 UNK         0.5000 
     81 O         -48.0995  -26.8237    7.7509 O.2       1 UNK        -0.5238 
     82 H82       -45.0829  -30.4030    7.9615 H         1 UNK         0.0889 
     83 H83       -44.3017  -28.8579    8.3113 H         1 UNK         0.0889 
     84 H84       -43.8123  -29.7991    6.8997 H         1 UNK         0.0889 
     85 H85       -47.1972  -29.9343    7.3576 H         1 UNK         0.3028 
     86 H86       -47.7975  -28.4571    5.0036 H         1 UNK         0.0864 
     87 H87       -49.0963  -30.4765    6.0104 H         1 UNK         0.0720 
     88 H88       -49.8285  -29.3457    7.1196 H         1 UNK         0.0720 
     89 H89       -52.8804  -29.6263    4.7409 H         1 UNK         0.0814 
     90 H90       -51.9515  -30.7914    5.6486 H         1 UNK         0.0814 
     91 H91       -52.5287  -27.0549    5.9691 H         1 UNK         0.1469 
     92 H92       -54.0364  -27.3973    9.9680 H         1 UNK         0.1381 
     93 H93       -52.7563  -30.8967    7.8468 H         1 UNK         0.1206 
     94 H94       -53.2648  -31.0902   10.1514 H         1 UNK         0.0813 
     95 H95       -54.8681  -30.3923   10.1021 H         1 UNK         0.0813 
     96 H96       -53.5411  -30.8079   13.8391 H         1 UNK         0.0638 
     97 H97       -53.7884  -31.7586   12.4041 H         1 UNK         0.0638 
     98 H98       -56.1121  -30.7732   12.1845 H         1 UNK         0.0568 
     99 H99       -57.5814  -32.9859   14.9408 H         1 UNK         0.3450 
    100 H100      -57.6947  -31.2517   14.7721 H         1 UNK         0.3450 
    101 H101      -56.5797  -28.9199   13.2806 H         1 UNK         0.2987 
    102 H102      -57.3628  -27.7976   15.2411 H         1 UNK         0.0766 
    103 H103      -56.6573  -26.6863   17.3582 H         1 UNK         0.0798 
    104 H104      -55.2680  -27.7629   17.4762 H         1 UNK         0.0798 
    105 H105      -56.8949  -28.4133   17.5782 H         1 UNK         0.0798 
    106 H106      -54.7219  -26.4864   15.3989 H         1 UNK         0.3198 
    107 H107      -54.3316  -25.7069   12.2844 H         1 UNK         0.0843 
    108 H108      -55.0001  -23.3147   12.0414 H         1 UNK         0.0831 
    109 H109      -56.2737  -23.5400   13.2423 H         1 UNK         0.0831 
    110 H110      -56.3408  -24.3957   11.7096 H         1 UNK         0.0831 
    111 H111      -52.8811  -24.9365   13.7152 H         1 UNK         0.3133 
    112 H112      -52.1753  -23.0250   15.5507 H         1 UNK         0.0566 
    113 H113      -52.0135  -23.3963   18.0233 H         1 UNK         0.0814 
    114 H114      -53.5381  -22.6465   17.5811 H         1 UNK         0.0814 
    115 H115      -53.4913  -24.3577   17.9797 H         1 UNK         0.0814 
    116 H116      -50.8390  -24.7795   15.4888 H         1 UNK         0.3091 
    117 H117      -50.7361  -27.9542   16.6531 H         1 UNK         0.0702 
    118 H118      -52.4100  -28.7783   14.9972 H         1 UNK         0.0785 
    119 H119      -50.7780  -29.0749   14.4198 H         1 UNK         0.0785 
    120 H120      -51.7190  -27.7417   13.7561 H         1 UNK         0.0785 
    121 H121      -49.5559  -26.7457   14.2748 H         1 UNK         0.2998 
    122 H122      -47.0690  -24.9262   16.0955 H         1 UNK         0.0697 
    123 H123      -46.8903  -27.3189   14.1899 H         1 UNK         0.0825 
    124 H124      -46.1096  -27.1909   15.7578 H         1 UNK         0.0825 
    125 H125      -45.6234  -26.1209   14.4524 H         1 UNK         0.0825 
    126 H126      -47.5781  -25.0020   13.3192 H         1 UNK         0.3029 
    127 H127      -50.1256  -22.4540   13.2413 H         1 UNK         0.0897 
    128 H128      -48.4544  -21.4417   11.7176 H         1 UNK         0.0792 
    129 H129      -47.9102  -21.2943   13.3816 H         1 UNK         0.0792 
    130 H130      -47.1973  -22.5134   12.3311 H         1 UNK         0.0792 
    131 H131      -48.8770  -23.8974   11.1383 H         1 UNK         0.3086 
    132 H132      -51.3030  -26.5700   10.9772 H         1 UNK         0.0583 
    133 H133      -50.5715  -24.1288    9.2715 H         1 UNK         0.1020 
    134 H134      -50.9044  -25.6872    8.5745 H         1 UNK         0.1020 
    135 H135      -54.5855  -25.3686    7.9380 H         1 UNK         0.0694 
    136 H136      -53.0556  -25.0691    7.1515 H         1 UNK         0.0694 
    137 H137      -48.8737  -26.3217    9.5854 H         1 UNK         0.2989 
    138 H138      -46.7023  -27.8932   11.8786 H         1 UNK         0.1055 
    139 H139      -47.8642  -29.8240   10.8822 H         1 UNK         0.0806 
    140 H140      -46.4252  -29.4570    9.9472 H         1 UNK         0.0806 
    141 H141      -48.0224  -28.9954    9.3443 H         1 UNK         0.0806 
    142 H142      -46.6127  -26.8897    9.1333 H         1 UNK         0.3061 
    143 H143      -44.8724  -23.9017   10.1935 H         1 UNK         0.0734 
    144 H144      -43.4586  -24.7900    8.4256 H         1 UNK         0.0832 
    145 H145      -43.5089  -25.9804    9.7126 H         1 UNK         0.0832 
    146 H146      -44.4587  -26.2296    8.2534 H         1 UNK         0.0832 
    147 H147      -45.6848  -24.0552    7.6483 H         1 UNK         0.3156 
    148 H148      -48.8686  -22.6019    7.5609 H         1 UNK         0.0589 
    149 H149      -46.2539  -21.0326    7.7390 H         1 UNK         0.0808 
    150 H150      -47.7394  -20.4942    6.9543 H         1 UNK         0.0808 
    151 H151      -47.7027  -20.7436    8.6910 H         1 UNK         0.0808 
    152 H152      -46.4920  -22.5813    5.8778 H         1 UNK         0.3098 
    153 H153      -49.2372  -24.6959    7.0399 H         1 UNK         0.0720 
    154 H154      -51.1884  -24.8507    5.5060 H         1 UNK         0.0791 
    155 H155      -50.1722  -24.4043    4.1369 H         1 UNK         0.0791 
    156 H156      -50.4631  -23.2527    5.4339 H         1 UNK         0.0791 
    157 H157      -49.0609  -26.5531    4.7598 H         1 UNK         0.3028 
@<TRIPOS>BOND
     1    1    2 1    
     2    1   82 1    
     3    1   83 1    
     4    1   84 1    
     5    2    3 2    
     6    2    4 am   BACKBONE|DICT|INTERRES
     7    4    5 1    
     8    4   85 1    
     9    5    6 1    
    10    5   80 1    
    11    5   86 1    
    12    6    7 1    
    13    6   87 1    
    14    6   88 1    
    15    7    8 1    
    16    8    9 1    
    17    8   89 1    
    18    8   90 1    
    19    9   10 ar   
    20    9   14 ar   
    21   10   11 ar   
    22   10   91 1    
    23   11   12 ar   
    24   11   58 1    
    25   12   13 ar   
    26   12   92 1    
    27   13   14 ar   
    28   13   15 1    
    29   14   93 1    
    30   15   16 1    
    31   15   94 1    
    32   15   95 1    
    33   16   17 1    
    34   17   18 1    
    35   17   96 1    
    36   17   97 1    
    37   18   19 1    
    38   18   22 1    
    39   18   98 1    
    40   19   20 am   BACKBONE|DICT|INTERRES
    41   19   21 2    
    42   20   99 1    
    43   20  100 1    
    44   22   23 am   BACKBONE|DICT|INTERRES
    45   22  101 1    
    46   23   24 2    
    47   23   25 1    
    48   25   26 1    
    49   25   27 1    
    50   25  102 1    
    51   26  103 1    
    52   26  104 1    
    53   26  105 1    
    54   27   28 am   BACKBONE|DICT|INTERRES
    55   27  106 1    
    56   28   29 2    
    57   28   30 1    
    58   30   31 1    
    59   30   32 1    
    60   30  107 1    
    61   31  108 1    
    62   31  109 1    
    63   31  110 1    
    64   32   33 am   BACKBONE|DICT|INTERRES
    65   32  111 1    
    66   33   34 2    
    67   33   35 1    
    68   35   36 1    
    69   35   37 1    
    70   35  112 1    
    71   36  113 1    
    72   36  114 1    
    73   36  115 1    
    74   37   38 am   BACKBONE|DICT|INTERRES
    75   37  116 1    
    76   38   39 2    
    77   38   40 1    
    78   40   41 1    
    79   40   42 1    
    80   40  117 1    
    81   41  118 1    
    82   41  119 1    
    83   41  120 1    
    84   42   43 am   BACKBONE|DICT|INTERRES
    85   42  121 1    
    86   43   44 2    
    87   43   45 1    
    88   45   46 1    
    89   45   47 1    
    90   45  122 1    
    91   46  123 1    
    92   46  124 1    
    93   46  125 1    
    94   47   48 am   BACKBONE|DICT|INTERRES
    95   47  126 1    
    96   48   49 2    
    97   48   50 1    
    98   50   51 1    
    99   50   52 1    
   100   50  127 1    
   101   51  128 1    
   102   51  129 1    
   103   51  130 1    
   104   52   53 am   BACKBONE|DICT|INTERRES
   105   52  131 1    
   106   53   54 2    
   107   53   55 1    
   108   55   56 1    
   109   55   59 1    
   110   55  132 1    
   111   56   57 1    
   112   56  133 1    
   113   56  134 1    
   114   57   58 1    
   115   58  135 1    
   116   58  136 1    
   117   59   60 am   BACKBONE|DICT|INTERRES
   118   59  137 1    
   119   60   61 2    
   120   60   62 1    
   121   62   63 1    
   122   62   64 1    
   123   62  138 1    
   124   63  139 1    
   125   63  140 1    
   126   63  141 1    
   127   64   65 am   BACKBONE|DICT|INTERRES
   128   64  142 1    
   129   65   66 2    
   130   65   67 1    
   131   67   68 1    
   132   67   69 1    
   133   67  143 1    
   134   68  144 1    
   135   68  145 1    
   136   68  146 1    
   137   69   70 am   BACKBONE|DICT|INTERRES
   138   69  147 1    
   139   70   71 2    
   140   70   72 1    
   141   72   73 1    
   142   72   74 1    
   143   72  148 1    
   144   73  149 1    
   145   73  150 1    
   146   73  151 1    
   147   74   75 am   BACKBONE|DICT|INTERRES
   148   74  152 1    
   149   75   76 2    
   150   75   77 1    
   151   77   78 1    
   152   77   79 1    
   153   77  153 1    
   154   78  154 1    
   155   78  155 1    
   156   78  156 1    
   157   79   80 am   BACKBONE|DICT|INTERRES
   158   79  157 1    
   159   80   81 2    
@<TRIPOS>SUBSTRUCTURE
     1 UNK         1 GROUP             0       ****    0 ROOT    
