@<TRIPOS>MOLECULE
3R207
157   159    1
SMALL
USER_CHARGES


@<TRIPOS>ATOM
      1 CA        -45.5011  -27.5680    4.2520 C.3       0 UNK        -0.1975 
      2 C         -46.8712  -27.1996    3.7039 C.2       0 UNK         0.4852 
      3 O         -46.9638  -26.5977    2.6328 O.2       0 UNK        -0.5216 
      4 N         -47.9415  -27.5410    4.4324 N.am      1 UNK        -0.4461 
      5 CA        -49.3470  -27.3037    4.0784 C.3       1 UNK         0.0864 
      6 C6        -50.2843  -28.3418    4.7551 C.3       14 UNK        -0.0898 
      7 S7        -50.0852  -28.4946    6.5697 S.3       14 UNK        -0.2598 
      8 C8        -50.3872  -30.2740    6.8225 C.3       14 UNK         0.0286 
      9 C9        -51.2932  -30.5170    8.0204 C.ar      14 UNK        -0.0844 
     10 C10       -50.7616  -30.9271    9.2481 C.ar      14 UNK        -0.0881 
     11 C11       -51.6011  -31.1586   10.3454 C.ar      14 UNK        -0.0643 
     12 C12       -52.9804  -30.9811   10.2004 C.ar      14 UNK        -0.0930 
     13 C13       -53.5231  -30.5860    8.9746 C.ar      14 UNK        -0.0827 
     14 C14       -52.6754  -30.3524    7.8892 C.ar      14 UNK        -0.1249 
     15 C15       -55.0271  -30.4310    8.8249 C.3       14 UNK         0.0141 
     16 S16       -55.5497  -28.7359    9.2195 S.3       14 UNK        -0.2313 
     17 C17       -57.3162  -28.9978    9.6096 C.3       14 UNK        -0.0915 
     18 CA        -57.6180  -28.9880   11.1333 C.3       13 UNK         0.0968 
     19 C         -57.1394  -30.2953   11.8334 C.2       13 UNK         0.5732 
     20 N         -56.1481  -30.2628   12.7166 N.am      13 UNK        -0.7310 
     21 O         -57.6883  -31.3626   11.5698 O.2       13 UNK        -0.5035 
     22 N         -57.1493  -27.7427   11.7545 N.am      13 UNK        -0.4233 
     23 C         -57.5357  -27.2783   12.9462 C.2       13 UNK         0.4989 
     24 O         -58.4154  -27.7891   13.6428 O.2       13 UNK        -0.4996 
     25 CA        -56.7860  -26.0344   13.4517 C.3       12 UNK         0.0216 
     26 CB        -57.7646  -24.9216   13.8644 C.3       12 UNK        -0.1964 
     27 N         -55.8997  -26.3390   14.5767 N.am      12 UNK        -0.4276 
     28 C         -54.9151  -27.2479   14.5906 C.2       12 UNK         0.5020 
     29 O         -54.6292  -27.9718   13.6340 O.2       12 UNK        -0.5489 
     30 CA        -54.0818  -27.3079   15.8818 C.3       11 UNK         0.0294 
     31 CB        -53.1442  -28.5293   15.9281 C.3       11 UNK        -0.2019 
     32 N         -53.2858  -26.0873   16.0071 N.am      11 UNK        -0.4493 
     33 C         -53.7326  -24.9191   16.4880 C.2       11 UNK         0.4932 
     34 O         -54.8721  -24.7680   16.9344 O.2       11 UNK        -0.5029 
     35 CA        -52.7656  -23.7201   16.4195 C.3       10 UNK         0.0280 
     36 CB        -53.1613  -22.5677   17.3671 C.3       10 UNK        -0.1976 
     37 N         -51.3598  -24.0987   16.6003 N.am      10 UNK        -0.4242 
     38 C         -50.7917  -24.6446   17.6874 C.2       10 UNK         0.5072 
     39 O         -51.3926  -24.8523   18.7427 O.2       10 UNK        -0.5224 
     40 CA        -49.3083  -25.0567   17.5923 C.3       9 UNK         0.0343 
     41 CB        -49.1762  -26.5861   17.6933 C.3       9 UNK        -0.2003 
     42 N         -48.6424  -24.6082   16.3662 N.am      9 UNK        -0.4272 
     43 C         -48.2358  -23.3554   16.1181 C.2       9 UNK         0.4988 
     44 O         -48.3110  -22.4365   16.9341 O.2       9 UNK        -0.5108 
     45 CA        -47.6935  -23.0701   14.7042 C.3       8 UNK         0.0248 
     46 CB        -46.2039  -23.4346   14.6073 C.3       8 UNK        -0.2001 
     47 N         -48.4433  -23.7611   13.6480 N.am      8 UNK        -0.4140 
     48 C         -49.7451  -23.5641   13.3871 C.2       8 UNK         0.5028 
     49 O         -50.4496  -22.7523   13.9862 O.2       8 UNK        -0.5428 
     50 CA        -50.3887  -24.4640   12.3219 C.3       7 UNK         0.0264 
     51 CB        -50.1079  -23.9363   10.9052 C.3       7 UNK        -0.1988 
     52 N         -49.9437  -25.8531   12.4375 N.am      7 UNK        -0.4454 
     53 C         -50.2710  -26.6702   13.4505 C.2       7 UNK         0.5027 
     54 O         -50.9989  -26.3400   14.3865 O.2       7 UNK        -0.5083 
     55 CA        -49.6418  -28.0773   13.4318 C.3       6 UNK         0.0844 
     56 C56       -50.4103  -28.9972   12.4491 C.3       14 UNK        -0.0967 
     57 S57       -49.6449  -30.6462   12.2915 S.3       14 UNK        -0.2604 
     58 C58       -51.0410  -31.6432   11.6797 C.3       14 UNK         0.0134 
     59 N         -48.2084  -28.0195   13.1324 N.am      6 UNK        -0.4116 
     60 C         -47.2757  -27.3916   13.8616 C.2       5 UNK         0.5034 
     61 O         -47.5030  -26.8147   14.9227 O.2       5 UNK        -0.5045 
     62 CA        -45.8561  -27.3484   13.2682 C.3       5 UNK         0.0224 
     63 CB        -45.0414  -28.5663   13.7311 C.3       5 UNK        -0.1978 
     64 N         -45.8474  -27.2774   11.8016 N.am      5 UNK        -0.4737 
     65 C         -46.4205  -26.3000   11.0876 C.2       4 UNK         0.5027 
     66 O         -46.9761  -25.3170   11.5892 O.2       4 UNK        -0.5211 
     67 CA        -46.4442  -26.4947    9.5697 C.3       4 UNK         0.0297 
     68 CB        -47.4207  -27.6286    9.1862 C.3       4 UNK        -0.1993 
     69 N         -46.8582  -25.2360    8.9593 N.am      4 UNK        -0.4486 
     70 C         -46.8048  -24.9442    7.6592 C.2       3 UNK         0.4961 
     71 O         -46.3611  -25.7083    6.7976 O.2       3 UNK        -0.5105 
     72 CA        -47.3338  -23.5682    7.2431 C.3       3 UNK         0.0299 
     73 CB        -46.2401  -22.4907    7.3397 C.3       3 UNK        -0.1972 
     74 N         -47.7957  -23.6985    5.8693 N.am      3 UNK        -0.4305 
     75 C         -48.7419  -22.9737    5.2651 C.2       2 UNK         0.5006 
     76 O         -49.2794  -21.9855    5.7663 O.2       2 UNK        -0.5106 
     77 CA        -49.1759  -23.4484    3.8653 C.3       2 UNK         0.0296 
     78 CB        -48.3752  -22.7178    2.7752 C.3       2 UNK        -0.2002 
     79 N         -49.0272  -24.8975    3.6873 N.am      2 UNK        -0.4032 
     80 C         -49.7691  -25.8304    4.3020 C.2       1 UNK         0.5000 
     81 O         -50.7328  -25.5554    5.0198 O.2       1 UNK        -0.5238 
     82 H82       -45.5726  -28.0767    5.2134 H         1 UNK         0.0889 
     83 H83       -44.9011  -26.6692    4.3922 H         1 UNK         0.0889 
     84 H84       -44.9800  -28.2241    3.5556 H         1 UNK         0.0889 
     85 H85       -47.8051  -27.9809    5.3322 H         1 UNK         0.3028 
     86 H86       -49.4439  -27.4650    3.0022 H         1 UNK         0.0864 
     87 H87       -51.3315  -28.1259    4.5347 H         1 UNK         0.0720 
     88 H88       -50.0892  -29.3149    4.3024 H         1 UNK         0.0720 
     89 H89       -49.4310  -30.7839    6.9488 H         1 UNK         0.0814 
     90 H90       -50.8525  -30.7143    5.9396 H         1 UNK         0.0814 
     91 H91       -49.6945  -31.0686    9.3519 H         1 UNK         0.1469 
     92 H92       -53.6388  -31.1610   11.0398 H         1 UNK         0.1381 
     93 H93       -53.0908  -30.0406    6.9403 H         1 UNK         0.1206 
     94 H94       -55.5330  -31.1418    9.4797 H         1 UNK         0.0813 
     95 H95       -55.3377  -30.6771    7.8083 H         1 UNK         0.0813 
     96 H96       -57.8772  -28.1955    9.1282 H         1 UNK         0.0638 
     97 H97       -57.6723  -29.9184    9.1432 H         1 UNK         0.0638 
     98 H98       -58.7048  -28.9942   11.2360 H         1 UNK         0.0568 
     99 H99       -55.8636  -31.1179   13.1647 H         1 UNK         0.3450 
    100 H100      -55.6693  -29.3930   12.9381 H         1 UNK         0.3450 
    101 H101      -56.3812  -27.2921   11.2788 H         1 UNK         0.2987 
    102 H102      -56.1617  -25.6475   12.6436 H         1 UNK         0.0766 
    103 H103      -57.2355  -24.0102   14.1441 H         1 UNK         0.0798 
    104 H104      -58.3853  -25.2216   14.7099 H         1 UNK         0.0798 
    105 H105      -58.4349  -24.6668   13.0423 H         1 UNK         0.0798 
    106 H106      -56.0146  -25.7752   15.4114 H         1 UNK         0.3198 
    107 H107      -54.7708  -27.3838   16.7260 H         1 UNK         0.0843 
    108 H108      -52.4341  -28.5289   15.1012 H         1 UNK         0.0831 
    109 H109      -53.7132  -29.4577   15.8660 H         1 UNK         0.0831 
    110 H110      -52.5751  -28.5571   16.8573 H         1 UNK         0.0831 
    111 H111      -52.3682  -26.1111   15.5630 H         1 UNK         0.3133 
    112 H112      -52.8390  -23.3405   15.3995 H         1 UNK         0.0566 
    113 H113      -52.4661  -21.7321   17.2861 H         1 UNK         0.0814 
    114 H114      -54.1539  -22.1861   17.1249 H         1 UNK         0.0814 
    115 H115      -53.1834  -22.8876   18.4092 H         1 UNK         0.0814 
    116 H116      -50.7765  -23.9626   15.7831 H         1 UNK         0.3091 
    117 H117      -48.7930  -24.6122   18.4462 H         1 UNK         0.0702 
    118 H118      -48.1307  -26.8948   17.6916 H         1 UNK         0.0785 
    119 H119      -49.6744  -27.0872   16.8620 H         1 UNK         0.0785 
    120 H120      -49.6222  -26.9609   18.6155 H         1 UNK         0.0785 
    121 H121      -48.4606  -25.3250   15.6683 H         1 UNK         0.2998 
    122 H122      -47.7922  -21.9979   14.5228 H         1 UNK         0.0697 
    123 H123      -46.0311  -24.4871   14.8296 H         1 UNK         0.0825 
    124 H124      -45.6156  -22.8531   15.3183 H         1 UNK         0.0825 
    125 H125      -45.8066  -23.2310   13.6126 H         1 UNK         0.0825 
    126 H126      -47.9300  -24.4228   13.0721 H         1 UNK         0.3029 
    127 H127      -51.4694  -24.4450   12.4815 H         1 UNK         0.0897 
    128 H128      -49.0411  -23.8952   10.6881 H         1 UNK         0.0792 
    129 H129      -50.5004  -22.9256   10.7849 H         1 UNK         0.0792 
    130 H130      -50.5822  -24.5593   10.1465 H         1 UNK         0.0792 
    131 H131      -49.2833  -26.1753   11.7453 H         1 UNK         0.3086 
    132 H132      -49.7427  -28.4937   14.4364 H         1 UNK         0.0583 
    133 H133      -50.4593  -28.5566   11.4508 H         1 UNK         0.1020 
    134 H134      -51.4452  -29.1164   12.7782 H         1 UNK         0.1020 
    135 H135      -50.7077  -32.6751   11.5628 H         1 UNK         0.0694 
    136 H136      -51.8180  -31.6566   12.4459 H         1 UNK         0.0694 
    137 H137      -47.9138  -28.4951   12.2931 H         1 UNK         0.2989 
    138 H138      -45.3702  -26.4468   13.6459 H         1 UNK         0.1055 
    139 H139      -45.0175  -28.6272   14.8203 H         1 UNK         0.0806 
    140 H140      -44.0077  -28.5058   13.3902 H         1 UNK         0.0806 
    141 H141      -45.4639  -29.5018   13.3621 H         1 UNK         0.0806 
    142 H142      -45.4081  -28.0449   11.3124 H         1 UNK         0.3061 
    143 H143      -45.4344  -26.7392    9.2338 H         1 UNK         0.0734 
    144 H144      -47.4135  -27.8164    8.1128 H         1 UNK         0.0832 
    145 H145      -47.1542  -28.5697    9.6684 H         1 UNK         0.0832 
    146 H146      -48.4467  -27.3932    9.4716 H         1 UNK         0.0832 
    147 H147      -47.1777  -24.5485    9.6316 H         1 UNK         0.3156 
    148 H148      -48.1768  -23.3034    7.8853 H         1 UNK         0.0589 
    149 H149      -45.8782  -22.3909    8.3637 H         1 UNK         0.0808 
    150 H150      -45.3821  -22.7316    6.7107 H         1 UNK         0.0808 
    151 H151      -46.6163  -21.5146    7.0327 H         1 UNK         0.0808 
    152 H152      -47.4265  -24.5184    5.4030 H         1 UNK         0.3098 
    153 H153      -50.2316  -23.1970    3.7434 H         1 UNK         0.0720 
    154 H154      -48.7226  -22.9901    1.7783 H         1 UNK         0.0791 
    155 H155      -47.3102  -22.9466    2.8340 H         1 UNK         0.0791 
    156 H156      -48.4829  -21.6364    2.8707 H         1 UNK         0.0791 
    157 H157      -48.2505  -25.2242    3.1181 H         1 UNK         0.3028 
@<TRIPOS>BOND
     1    1    2 1    
     2    1   82 1    
     3    1   83 1    
     4    1   84 1    
     5    2    3 2    
     6    2    4 am   BACKBONE|DICT|INTERRES
     7    4    5 1    
     8    4   85 1    
     9    5    6 1    
    10    5   80 1    
    11    5   86 1    
    12    6    7 1    
    13    6   87 1    
    14    6   88 1    
    15    7    8 1    
    16    8    9 1    
    17    8   89 1    
    18    8   90 1    
    19    9   10 ar   
    20    9   14 ar   
    21   10   11 ar   
    22   10   91 1    
    23   11   12 ar   
    24   11   58 1    
    25   12   13 ar   
    26   12   92 1    
    27   13   14 ar   
    28   13   15 1    
    29   14   93 1    
    30   15   16 1    
    31   15   94 1    
    32   15   95 1    
    33   16   17 1    
    34   17   18 1    
    35   17   96 1    
    36   17   97 1    
    37   18   19 1    
    38   18   22 1    
    39   18   98 1    
    40   19   20 am   BACKBONE|DICT|INTERRES
    41   19   21 2    
    42   20   99 1    
    43   20  100 1    
    44   22   23 am   BACKBONE|DICT|INTERRES
    45   22  101 1    
    46   23   24 2    
    47   23   25 1    
    48   25   26 1    
    49   25   27 1    
    50   25  102 1    
    51   26  103 1    
    52   26  104 1    
    53   26  105 1    
    54   27   28 am   BACKBONE|DICT|INTERRES
    55   27  106 1    
    56   28   29 2    
    57   28   30 1    
    58   30   31 1    
    59   30   32 1    
    60   30  107 1    
    61   31  108 1    
    62   31  109 1    
    63   31  110 1    
    64   32   33 am   BACKBONE|DICT|INTERRES
    65   32  111 1    
    66   33   34 2    
    67   33   35 1    
    68   35   36 1    
    69   35   37 1    
    70   35  112 1    
    71   36  113 1    
    72   36  114 1    
    73   36  115 1    
    74   37   38 am   BACKBONE|DICT|INTERRES
    75   37  116 1    
    76   38   39 2    
    77   38   40 1    
    78   40   41 1    
    79   40   42 1    
    80   40  117 1    
    81   41  118 1    
    82   41  119 1    
    83   41  120 1    
    84   42   43 am   BACKBONE|DICT|INTERRES
    85   42  121 1    
    86   43   44 2    
    87   43   45 1    
    88   45   46 1    
    89   45   47 1    
    90   45  122 1    
    91   46  123 1    
    92   46  124 1    
    93   46  125 1    
    94   47   48 am   BACKBONE|DICT|INTERRES
    95   47  126 1    
    96   48   49 2    
    97   48   50 1    
    98   50   51 1    
    99   50   52 1    
   100   50  127 1    
   101   51  128 1    
   102   51  129 1    
   103   51  130 1    
   104   52   53 am   BACKBONE|DICT|INTERRES
   105   52  131 1    
   106   53   54 2    
   107   53   55 1    
   108   55   56 1    
   109   55   59 1    
   110   55  132 1    
   111   56   57 1    
   112   56  133 1    
   113   56  134 1    
   114   57   58 1    
   115   58  135 1    
   116   58  136 1    
   117   59   60 am   BACKBONE|DICT|INTERRES
   118   59  137 1    
   119   60   61 2    
   120   60   62 1    
   121   62   63 1    
   122   62   64 1    
   123   62  138 1    
   124   63  139 1    
   125   63  140 1    
   126   63  141 1    
   127   64   65 am   BACKBONE|DICT|INTERRES
   128   64  142 1    
   129   65   66 2    
   130   65   67 1    
   131   67   68 1    
   132   67   69 1    
   133   67  143 1    
   134   68  144 1    
   135   68  145 1    
   136   68  146 1    
   137   69   70 am   BACKBONE|DICT|INTERRES
   138   69  147 1    
   139   70   71 2    
   140   70   72 1    
   141   72   73 1    
   142   72   74 1    
   143   72  148 1    
   144   73  149 1    
   145   73  150 1    
   146   73  151 1    
   147   74   75 am   BACKBONE|DICT|INTERRES
   148   74  152 1    
   149   75   76 2    
   150   75   77 1    
   151   77   78 1    
   152   77   79 1    
   153   77  153 1    
   154   78  154 1    
   155   78  155 1    
   156   78  156 1    
   157   79   80 am   BACKBONE|DICT|INTERRES
   158   79  157 1    
   159   80   81 2    
@<TRIPOS>SUBSTRUCTURE
     1 UNK         1 GROUP             0       ****    0 ROOT    
