@<TRIPOS>MOLECULE
3R207
157   159    1
SMALL
USER_CHARGES


@<TRIPOS>ATOM
      1 CA        -52.5373  -24.8760    7.9404 C.3       0 UNK        -0.1975 
      2 C         -51.1803  -25.5606    7.8721 C.2       0 UNK         0.4852 
      3 O         -50.3810  -25.4522    8.8057 O.2       0 UNK        -0.5216 
      4 N         -50.9223  -26.2439    6.7477 N.am      1 UNK        -0.4461 
      5 CA        -49.6530  -26.8991    6.4140 C.3       1 UNK         0.0864 
      6 C6        -49.7684  -27.7303    5.1058 C.3       14 UNK        -0.0898 
      7 S7        -50.2282  -29.4801    5.3540 S.3       14 UNK        -0.2598 
      8 C8        -51.9402  -29.4220    6.0040 C.3       14 UNK         0.0286 
      9 C9        -52.0500  -29.2254    7.5183 C.ar      14 UNK        -0.0844 
     10 C10       -51.0124  -29.5843    8.3868 C.ar      14 UNK        -0.0881 
     11 C11       -51.1014  -29.3348    9.7579 C.ar      14 UNK        -0.0643 
     12 C12       -52.2718  -28.7766   10.2774 C.ar      14 UNK        -0.0930 
     13 C13       -53.3441  -28.4689    9.4358 C.ar      14 UNK        -0.0827 
     14 C14       -53.2219  -28.6832    8.0580 C.ar      14 UNK        -0.1249 
     15 C15       -54.6318  -27.8971   10.0123 C.3       14 UNK         0.0141 
     16 S16       -55.8826  -29.1953   10.2611 S.3       14 UNK        -0.2313 
     17 C17       -55.2924  -30.0075   11.7874 C.3       14 UNK        -0.0915 
     18 CA        -56.3718  -30.0207   12.9027 C.3       13 UNK         0.0968 
     19 C         -55.9369  -30.8880   14.1211 C.2       13 UNK         0.5732 
     20 N         -55.9942  -30.4028   15.3570 N.am      13 UNK        -0.7310 
     21 O         -55.5548  -32.0424   13.9448 O.2       13 UNK        -0.5035 
     22 N         -56.7840  -28.6592   13.2734 N.am      13 UNK        -0.4233 
     23 C         -58.0348  -28.2967   13.5873 C.2       13 UNK         0.4989 
     24 O         -59.0028  -29.0566   13.5156 O.2       13 UNK        -0.4996 
     25 CA        -58.2435  -26.8407   14.0629 C.3       12 UNK         0.0216 
     26 CB        -59.5000  -26.6791   14.9459 C.3       12 UNK        -0.1964 
     27 N         -57.0685  -26.2594   14.7286 N.am      12 UNK        -0.4276 
     28 C         -56.4408  -26.7403   15.8109 C.2       12 UNK         0.5020 
     29 O         -56.7982  -27.7419   16.4363 O.2       12 UNK        -0.5489 
     30 CA        -55.1549  -26.0111   16.2285 C.3       11 UNK         0.0294 
     31 CB        -55.3295  -25.3236   17.5918 C.3       11 UNK        -0.2019 
     32 N         -54.0177  -26.9299   16.2901 N.am      11 UNK        -0.4493 
     33 C         -53.5608  -27.6760   15.2760 C.2       11 UNK         0.4932 
     34 O         -54.0460  -27.6665   14.1414 O.2       11 UNK        -0.5029 
     35 CA        -52.3411  -28.5602   15.5911 C.3       10 UNK         0.0280 
     36 CB        -51.9518  -29.4720   14.4135 C.3       10 UNK        -0.1976 
     37 N         -51.1821  -27.7466   15.9633 N.am      10 UNK        -0.4242 
     38 C         -50.9580  -27.2079   17.1703 C.2       10 UNK         0.5072 
     39 O         -51.7184  -27.3457   18.1300 O.2       10 UNK        -0.5224 
     40 CA        -49.6946  -26.3482   17.3208 C.3       9 UNK         0.0343 
     41 CB        -48.4266  -27.2176   17.2699 C.3       9 UNK        -0.2003 
     42 N         -49.6412  -25.3409   16.2622 N.am      9 UNK        -0.4272 
     43 C         -50.0122  -24.0593   16.3998 C.2       9 UNK         0.4988 
     44 O         -50.3363  -23.5486   17.4726 O.2       9 UNK        -0.5108 
     45 CA        -50.0401  -23.1948   15.1224 C.3       8 UNK         0.0248 
     46 CB        -48.7036  -22.4577   14.9422 C.3       8 UNK        -0.2001 
     47 N         -50.3348  -23.9697   13.9137 N.am      8 UNK        -0.4140 
     48 C         -51.4968  -24.6049   13.6918 C.2       8 UNK         0.5028 
     49 O         -52.4937  -24.4507   14.3964 O.2       8 UNK        -0.5428 
     50 CA        -51.5634  -25.6047   12.5198 C.3       7 UNK         0.0264 
     51 CB        -52.4285  -25.0407   11.3890 C.3       7 UNK        -0.1988 
     52 N         -50.2594  -26.0175   11.9847 N.am      7 UNK        -0.4454 
     53 C         -49.3143  -26.6577   12.6922 C.2       7 UNK         0.5027 
     54 O         -49.4877  -27.0402   13.8503 O.2       7 UNK        -0.5083 
     55 CA        -47.9208  -26.8462   12.0597 C.3       6 UNK         0.0844 
     56 C56       -47.6429  -28.3229   11.6838 C.3       14 UNK        -0.0967 
     57 S57       -48.4079  -28.8255   10.1062 S.3       14 UNK        -0.2604 
     58 C58       -49.9268  -29.6627   10.6678 C.3       14 UNK         0.0134 
     59 N         -47.6309  -25.9285   10.9555 N.am      6 UNK        -0.4116 
     60 C         -47.5597  -24.5926   11.0285 C.2       5 UNK         0.5034 
     61 O         -47.8144  -23.9507   12.0498 O.2       5 UNK        -0.5045 
     62 CA        -47.1409  -23.8703    9.7330 C.3       5 UNK         0.0224 
     63 CB        -46.6281  -22.4355    9.9741 C.3       5 UNK        -0.1978 
     64 N         -46.1843  -24.6552    8.9384 N.am      5 UNK        -0.4737 
     65 C         -44.9429  -25.0371    9.2814 C.2       4 UNK         0.5027 
     66 O         -44.3762  -24.6911   10.3176 O.2       4 UNK        -0.5211 
     67 CA        -44.2161  -25.9940    8.3211 C.3       4 UNK         0.0297 
     68 CB        -44.4921  -27.4512    8.7295 C.3       4 UNK        -0.1993 
     69 N         -44.6465  -25.7999    6.9350 N.am      4 UNK        -0.4486 
     70 C         -43.9009  -25.2706    5.9557 C.2       3 UNK         0.4961 
     71 O         -42.7148  -24.9637    6.0808 O.2       3 UNK        -0.5105 
     72 CA        -44.6004  -25.0265    4.6023 C.3       3 UNK         0.0299 
     73 CB        -44.4536  -26.2565    3.6923 C.3       3 UNK        -0.1972 
     74 N         -46.0216  -24.6907    4.7383 N.am      3 UNK        -0.4305 
     75 C         -46.4888  -23.5923    5.3488 C.2       2 UNK         0.5006 
     76 O         -45.7674  -22.6738    5.7388 O.2       2 UNK        -0.5106 
     77 CA        -48.0068  -23.4925    5.5985 C.3       2 UNK         0.0296 
     78 CB        -48.6493  -22.5382    4.5782 C.3       2 UNK        -0.2002 
     79 N         -48.7772  -24.7457    5.6235 N.am      2 UNK        -0.4032 
     80 C         -48.5166  -25.8605    6.3269 C.2       1 UNK         0.5000 
     81 O         -47.4610  -26.0691    6.9251 O.2       1 UNK        -0.5238 
     82 H82       -52.9008  -24.6133    6.9472 H         1 UNK         0.0889 
     83 H83       -52.4726  -23.9576    8.5227 H         1 UNK         0.0889 
     84 H84       -53.2704  -25.5322    8.4062 H         1 UNK         0.0889 
     85 H85       -51.6443  -26.3093    6.0457 H         1 UNK         0.3028 
     86 H86       -49.3938  -27.5636    7.2407 H         1 UNK         0.0864 
     87 H87       -50.4654  -27.2726    4.4016 H         1 UNK         0.0720 
     88 H88       -48.8117  -27.7631    4.5799 H         1 UNK         0.0720 
     89 H89       -52.4306  -30.3632    5.7530 H         1 UNK         0.0814 
     90 H90       -52.4913  -28.6402    5.4795 H         1 UNK         0.0814 
     91 H91       -50.1058  -30.0280    8.0015 H         1 UNK         0.1469 
     92 H92       -52.3533  -28.5849   11.3373 H         1 UNK         0.1381 
     93 H93       -54.0453  -28.4276    7.4050 H         1 UNK         0.1206 
     94 H94       -54.4455  -27.3825   10.9565 H         1 UNK         0.0813 
     95 H95       -55.0359  -27.1471    9.3311 H         1 UNK         0.0813 
     96 H96       -54.3878  -29.5180   12.1481 H         1 UNK         0.0638 
     97 H97       -55.0003  -31.0239   11.5181 H         1 UNK         0.0638 
     98 H98       -57.2370  -30.5414   12.4887 H         1 UNK         0.0568 
     99 H99       -55.7211  -30.9955   16.1236 H         1 UNK         0.3450 
    100 H100      -56.3262  -29.4626   15.5455 H         1 UNK         0.3450 
    101 H101      -56.0234  -28.0054   13.4173 H         1 UNK         0.2987 
    102 H102      -58.4010  -26.2537   13.1568 H         1 UNK         0.0766 
    103 H103      -59.6383  -25.6428   15.2539 H         1 UNK         0.0798 
    104 H104      -59.4423  -27.2917   15.8463 H         1 UNK         0.0798 
    105 H105      -60.4006  -26.9770   14.4074 H         1 UNK         0.0798 
    106 H106      -56.6719  -25.4477   14.2739 H         1 UNK         0.3198 
    107 H107      -54.9160  -25.2472   15.4856 H         1 UNK         0.0843 
    108 H108      -55.5367  -26.0452   18.3834 H         1 UNK         0.0831 
    109 H109      -56.1602  -24.6171   17.5687 H         1 UNK         0.0831 
    110 H110      -54.4362  -24.7645   17.8713 H         1 UNK         0.0831 
    111 H111      -53.5303  -27.0032   17.1763 H         1 UNK         0.3133 
    112 H112      -52.6116  -29.2027   16.4316 H         1 UNK         0.0566 
    113 H113      -51.6508  -28.8919   13.5425 H         1 UNK         0.0814 
    114 H114      -51.1242  -30.1302   14.6782 H         1 UNK         0.0814 
    115 H115      -52.7876  -30.1060   14.1152 H         1 UNK         0.0814 
    116 H116      -50.5208  -27.5480   15.2144 H         1 UNK         0.3091 
    117 H117      -49.7306  -25.8658   18.3000 H         1 UNK         0.0702 
    118 H118      -47.5320  -26.6174   17.4368 H         1 UNK         0.0785 
    119 H119      -48.3130  -27.7235   16.3103 H         1 UNK         0.0785 
    120 H120      -48.4499  -27.9860   18.0439 H         1 UNK         0.0785 
    121 H121      -49.4263  -25.6847   15.3330 H         1 UNK         0.2998 
    122 H122      -50.8294  -22.4499   15.2438 H         1 UNK         0.0697 
    123 H123      -47.8741  -23.1531   14.8066 H         1 UNK         0.0825 
    124 H124      -48.4758  -21.8427   15.8139 H         1 UNK         0.0825 
    125 H125      -48.7284  -21.7961   14.0760 H         1 UNK         0.0825 
    126 H126      -49.5695  -24.1022   13.2610 H         1 UNK         0.3029 
    127 H127      -52.0525  -26.5018   12.8996 H         1 UNK         0.0897 
    128 H128      -53.4167  -24.7546   11.7520 H         1 UNK         0.0792 
    129 H129      -52.5743  -25.7891   10.6137 H         1 UNK         0.0792 
    130 H130      -51.9730  -24.1597   10.9360 H         1 UNK         0.0792 
    131 H131      -50.0624  -25.7669   11.0214 H         1 UNK         0.3086 
    132 H132      -47.2145  -26.5882   12.8518 H         1 UNK         0.0583 
    133 H133      -46.5662  -28.4619   11.5742 H         1 UNK         0.1020 
    134 H134      -47.9353  -29.0038   12.4861 H         1 UNK         0.1020 
    135 H135      -49.7615  -30.7408   10.6750 H         1 UNK         0.0694 
    136 H136      -50.1535  -29.3765   11.6948 H         1 UNK         0.0694 
    137 H137      -47.4610  -26.3662   10.0613 H         1 UNK         0.2989 
    138 H138      -48.0487  -23.7981    9.1314 H         1 UNK         0.1055 
    139 H139      -47.3990  -21.8187   10.4376 H         1 UNK         0.0806 
    140 H140      -46.3468  -21.9536    9.0376 H         1 UNK         0.0806 
    141 H141      -45.7611  -22.4194   10.6349 H         1 UNK         0.0806 
    142 H142      -46.5789  -25.0701    8.0965 H         1 UNK         0.3061 
    143 H143      -43.1445  -25.8075    8.4187 H         1 UNK         0.0734 
    144 H144      -43.9350  -28.1486    8.1038 H         1 UNK         0.0832 
    145 H145      -44.1918  -27.6319    9.7626 H         1 UNK         0.0832 
    146 H146      -45.5509  -27.7021    8.6484 H         1 UNK         0.0832 
    147 H147      -45.6237  -26.0044    6.7390 H         1 UNK         0.3156 
    148 H148      -44.1024  -24.1828    4.1198 H         1 UNK         0.0589 
    149 H149      -44.9509  -27.1321    4.1116 H         1 UNK         0.0808 
    150 H150      -44.8729  -26.0718    2.7031 H         1 UNK         0.0808 
    151 H151      -43.4027  -26.5145    3.5534 H         1 UNK         0.0808 
    152 H152      -46.6866  -25.3892    4.4406 H         1 UNK         0.3098 
    153 H153      -48.1209  -23.0468    6.5887 H         1 UNK         0.0720 
    154 H154      -49.6891  -22.3270    4.8291 H         1 UNK         0.0791 
    155 H155      -48.6229  -22.9515    3.5691 H         1 UNK         0.0791 
    156 H156      -48.1270  -21.5805    4.5515 H         1 UNK         0.0791 
    157 H157      -49.6763  -24.7025    5.1665 H         1 UNK         0.3028 
@<TRIPOS>BOND
     1    1    2 1    
     2    1   82 1    
     3    1   83 1    
     4    1   84 1    
     5    2    3 2    
     6    2    4 am   BACKBONE|DICT|INTERRES
     7    4    5 1    
     8    4   85 1    
     9    5    6 1    
    10    5   80 1    
    11    5   86 1    
    12    6    7 1    
    13    6   87 1    
    14    6   88 1    
    15    7    8 1    
    16    8    9 1    
    17    8   89 1    
    18    8   90 1    
    19    9   10 ar   
    20    9   14 ar   
    21   10   11 ar   
    22   10   91 1    
    23   11   12 ar   
    24   11   58 1    
    25   12   13 ar   
    26   12   92 1    
    27   13   14 ar   
    28   13   15 1    
    29   14   93 1    
    30   15   16 1    
    31   15   94 1    
    32   15   95 1    
    33   16   17 1    
    34   17   18 1    
    35   17   96 1    
    36   17   97 1    
    37   18   19 1    
    38   18   22 1    
    39   18   98 1    
    40   19   20 am   BACKBONE|DICT|INTERRES
    41   19   21 2    
    42   20   99 1    
    43   20  100 1    
    44   22   23 am   BACKBONE|DICT|INTERRES
    45   22  101 1    
    46   23   24 2    
    47   23   25 1    
    48   25   26 1    
    49   25   27 1    
    50   25  102 1    
    51   26  103 1    
    52   26  104 1    
    53   26  105 1    
    54   27   28 am   BACKBONE|DICT|INTERRES
    55   27  106 1    
    56   28   29 2    
    57   28   30 1    
    58   30   31 1    
    59   30   32 1    
    60   30  107 1    
    61   31  108 1    
    62   31  109 1    
    63   31  110 1    
    64   32   33 am   BACKBONE|DICT|INTERRES
    65   32  111 1    
    66   33   34 2    
    67   33   35 1    
    68   35   36 1    
    69   35   37 1    
    70   35  112 1    
    71   36  113 1    
    72   36  114 1    
    73   36  115 1    
    74   37   38 am   BACKBONE|DICT|INTERRES
    75   37  116 1    
    76   38   39 2    
    77   38   40 1    
    78   40   41 1    
    79   40   42 1    
    80   40  117 1    
    81   41  118 1    
    82   41  119 1    
    83   41  120 1    
    84   42   43 am   BACKBONE|DICT|INTERRES
    85   42  121 1    
    86   43   44 2    
    87   43   45 1    
    88   45   46 1    
    89   45   47 1    
    90   45  122 1    
    91   46  123 1    
    92   46  124 1    
    93   46  125 1    
    94   47   48 am   BACKBONE|DICT|INTERRES
    95   47  126 1    
    96   48   49 2    
    97   48   50 1    
    98   50   51 1    
    99   50   52 1    
   100   50  127 1    
   101   51  128 1    
   102   51  129 1    
   103   51  130 1    
   104   52   53 am   BACKBONE|DICT|INTERRES
   105   52  131 1    
   106   53   54 2    
   107   53   55 1    
   108   55   56 1    
   109   55   59 1    
   110   55  132 1    
   111   56   57 1    
   112   56  133 1    
   113   56  134 1    
   114   57   58 1    
   115   58  135 1    
   116   58  136 1    
   117   59   60 am   BACKBONE|DICT|INTERRES
   118   59  137 1    
   119   60   61 2    
   120   60   62 1    
   121   62   63 1    
   122   62   64 1    
   123   62  138 1    
   124   63  139 1    
   125   63  140 1    
   126   63  141 1    
   127   64   65 am   BACKBONE|DICT|INTERRES
   128   64  142 1    
   129   65   66 2    
   130   65   67 1    
   131   67   68 1    
   132   67   69 1    
   133   67  143 1    
   134   68  144 1    
   135   68  145 1    
   136   68  146 1    
   137   69   70 am   BACKBONE|DICT|INTERRES
   138   69  147 1    
   139   70   71 2    
   140   70   72 1    
   141   72   73 1    
   142   72   74 1    
   143   72  148 1    
   144   73  149 1    
   145   73  150 1    
   146   73  151 1    
   147   74   75 am   BACKBONE|DICT|INTERRES
   148   74  152 1    
   149   75   76 2    
   150   75   77 1    
   151   77   78 1    
   152   77   79 1    
   153   77  153 1    
   154   78  154 1    
   155   78  155 1    
   156   78  156 1    
   157   79   80 am   BACKBONE|DICT|INTERRES
   158   79  157 1    
   159   80   81 2    
@<TRIPOS>SUBSTRUCTURE
     1 UNK         1 GROUP             0       ****    0 ROOT    
