@<TRIPOS>MOLECULE
3R207
157   159    1
SMALL
USER_CHARGES


@<TRIPOS>ATOM
      1 CA        -50.1590  -27.2953    2.2406 C.3       0 UNK        -0.1975 
      2 C         -49.6677  -26.4802    3.4264 C.2       0 UNK         0.4852 
      3 O         -48.7856  -26.9343    4.1559 O.2       0 UNK        -0.5216 
      4 N         -50.2156  -25.2685    3.6142 N.am      1 UNK        -0.4461 
      5 CA        -49.9639  -24.3374    4.7325 C.3       1 UNK         0.0864 
      6 C6        -50.4114  -24.9181    6.1053 C.3       14 UNK        -0.0898 
      7 S7        -52.2183  -25.1219    6.2381 S.3       14 UNK        -0.2598 
      8 C8        -52.4483  -26.9024    5.9318 C.3       14 UNK         0.0286 
      9 C9        -52.2594  -27.7773    7.1669 C.ar      14 UNK        -0.0844 
     10 C10       -51.2321  -28.7262    7.2120 C.ar      14 UNK        -0.0881 
     11 C11       -51.1658  -29.6586    8.2546 C.ar      14 UNK        -0.0643 
     12 C12       -52.1178  -29.6061    9.2812 C.ar      14 UNK        -0.0930 
     13 C13       -53.1382  -28.6483    9.2597 C.ar      14 UNK        -0.0827 
     14 C14       -53.1964  -27.7332    8.2037 C.ar      14 UNK        -0.1249 
     15 C15       -54.2466  -28.6643   10.3067 C.3       14 UNK         0.0141 
     16 S16       -53.9088  -27.5762   11.7265 S.3       14 UNK        -0.2313 
     17 C17       -53.1021  -28.7340   12.8824 C.3       14 UNK        -0.0915 
     18 CA        -54.1059  -29.4350   13.8312 C.3       13 UNK         0.0968 
     19 C         -53.3816  -30.4585   14.7423 C.2       13 UNK         0.5732 
     20 N         -53.4255  -31.7388   14.3990 N.am      13 UNK        -0.7310 
     21 O         -52.7479  -30.0992   15.7325 O.2       13 UNK        -0.5035 
     22 N         -54.8726  -28.4731   14.6331 N.am      13 UNK        -0.4233 
     23 C         -56.1013  -28.7106   15.1099 C.2       13 UNK         0.4989 
     24 O         -56.7311  -29.7469   14.8862 O.2       13 UNK        -0.4996 
     25 CA        -56.7394  -27.5954   15.9614 C.3       12 UNK         0.0216 
     26 CB        -58.0489  -28.0280   16.6561 C.3       12 UNK        -0.1964 
     27 N         -55.8005  -27.0104   16.9229 N.am      12 UNK        -0.4276 
     28 C         -55.1674  -27.6281   17.9339 C.2       12 UNK         0.5020 
     29 O         -55.3682  -28.8005   18.2545 O.2       12 UNK        -0.5489 
     30 CA        -54.1221  -26.8129   18.7209 C.3       11 UNK         0.0294 
     31 CB        -52.7560  -27.5217   18.7005 C.3       11 UNK        -0.2019 
     32 N         -53.9565  -25.4621   18.1781 N.am      11 UNK        -0.4493 
     33 C         -54.5467  -24.3586   18.6588 C.2       11 UNK         0.4932 
     34 O         -55.2418  -24.3425   19.6746 O.2       11 UNK        -0.5029 
     35 CA        -54.3488  -23.0493   17.8684 C.3       10 UNK         0.0280 
     36 CB        -53.2253  -22.2104   18.4985 C.3       10 UNK        -0.1976 
     37 N         -54.0579  -23.2505   16.4449 N.am      10 UNK        -0.4242 
     38 C         -54.8968  -23.8000   15.5541 C.2       10 UNK         0.5072 
     39 O         -56.0394  -24.1671   15.8266 O.2       10 UNK        -0.5224 
     40 CA        -54.3391  -24.0594   14.1429 C.3       9 UNK         0.0343 
     41 CB        -54.5641  -22.8409   13.2351 C.3       9 UNK        -0.2003 
     42 N         -52.9182  -24.4246   14.1286 N.am      9 UNK        -0.4272 
     43 C         -52.3823  -25.4703   14.7711 C.2       9 UNK         0.4988 
     44 O         -53.0413  -26.2484   15.4638 O.2       9 UNK        -0.5108 
     45 CA        -50.8681  -25.6802   14.5940 C.3       8 UNK         0.0248 
     46 CB        -50.2947  -26.6872   15.6076 C.3       8 UNK        -0.2001 
     47 N         -50.5721  -26.1519   13.2444 N.am      8 UNK        -0.4140 
     48 C         -50.6093  -25.4231   12.1248 C.2       8 UNK         0.5028 
     49 O         -50.7910  -24.2028   12.1219 O.2       8 UNK        -0.5428 
     50 CA        -50.4584  -26.1938   10.7979 C.3       7 UNK         0.0264 
     51 CB        -50.4345  -25.2680    9.5762 C.3       7 UNK        -0.1988 
     52 N         -49.2905  -27.0731   10.7316 N.am      7 UNK        -0.4454 
     53 C         -49.1328  -28.2332   11.3839 C.2       7 UNK         0.5027 
     54 O         -49.9189  -28.6618   12.2292 O.2       7 UNK        -0.5083 
     55 CA        -47.8690  -29.0409   11.0447 C.3       6 UNK         0.0844 
     56 C56       -48.0045  -29.7714    9.6866 C.3       14 UNK        -0.0967 
     57 S57       -49.2358  -31.1149    9.7223 S.3       14 UNK        -0.2604 
     58 C58       -50.1560  -30.8035    8.1793 C.3       14 UNK         0.0134 
     59 N         -46.6981  -28.1650   11.0700 N.am      6 UNK        -0.4116 
     60 C         -46.0464  -27.7892   12.1794 C.2       5 UNK         0.5034 
     61 O         -46.2976  -28.2229   13.3040 O.2       5 UNK        -0.5045 
     62 CA        -44.9187  -26.7534   12.0123 C.3       5 UNK         0.0224 
     63 CB        -43.5571  -27.4564   11.8902 C.3       5 UNK        -0.1978 
     64 N         -45.1125  -25.8738   10.8559 N.am      5 UNK        -0.4737 
     65 C         -46.0375  -24.9060   10.7847 C.2       4 UNK         0.5027 
     66 O         -46.7699  -24.5917   11.7217 O.2       4 UNK        -0.5211 
     67 CA        -46.1917  -24.1890    9.4306 C.3       4 UNK         0.0297 
     68 CB        -45.3461  -22.9065    9.3999 C.3       4 UNK        -0.1993 
     69 N         -45.8537  -25.0190    8.2680 N.am      4 UNK        -0.4486 
     70 C         -46.4569  -26.1653    7.9286 C.2       3 UNK         0.4961 
     71 O         -47.3522  -26.6812    8.5994 O.2       3 UNK        -0.5105 
     72 CA        -45.9697  -26.8393    6.6311 C.3       3 UNK         0.0299 
     73 CB        -46.5920  -28.2328    6.4252 C.3       3 UNK        -0.1972 
     74 N         -46.2716  -26.0082    5.4656 N.am      3 UNK        -0.4305 
     75 C         -45.5991  -24.9032    5.1030 C.2       2 UNK         0.5006 
     76 O         -44.5718  -24.5200    5.6655 O.2       2 UNK        -0.5106 
     77 CA        -46.1899  -24.0549    3.9589 C.3       2 UNK         0.0296 
     78 CB        -45.5521  -24.4411    2.6150 C.3       2 UNK        -0.2002 
     79 N         -47.6451  -24.1873    3.8624 N.am      2 UNK        -0.4032 
     80 C         -48.5116  -23.8009    4.8108 C.2       1 UNK         0.5000 
     81 O         -48.1909  -23.0624    5.7442 O.2       1 UNK        -0.5238 
     82 H82       -50.9294  -26.7714    1.6754 H         1 UNK         0.0889 
     83 H83       -50.5754  -28.2412    2.5858 H         1 UNK         0.0889 
     84 H84       -49.3311  -27.5135    1.5667 H         1 UNK         0.0889 
     85 H85       -50.9161  -24.9504    2.9580 H         1 UNK         0.3028 
     86 H86       -50.5746  -23.4560    4.5303 H         1 UNK         0.0864 
     87 H87       -49.9098  -25.8632    6.3208 H         1 UNK         0.0720 
     88 H88       -50.1317  -24.2419    6.9146 H         1 UNK         0.0720 
     89 H89       -51.7943  -27.2270    5.1243 H         1 UNK         0.0814 
     90 H90       -53.4637  -27.0512    5.5620 H         1 UNK         0.0814 
     91 H91       -50.5252  -28.7844    6.3951 H         1 UNK         0.1469 
     92 H92       -52.0906  -30.3434   10.0714 H         1 UNK         0.1381 
     93 H93       -54.0054  -27.0167    8.1592 H         1 UNK         0.1206 
     94 H94       -54.4285  -29.6831   10.6517 H         1 UNK         0.0813 
     95 H95       -55.1817  -28.3407    9.8471 H         1 UNK         0.0813 
     96 H96       -52.5368  -29.4692   12.3078 H         1 UNK         0.0638 
     97 H97       -52.3672  -28.1801   13.4644 H         1 UNK         0.0638 
     98 H98       -54.8071  -29.9849   13.2001 H         1 UNK         0.0568 
     99 H99       -52.9461  -32.4138   14.9737 H         1 UNK         0.3450 
    100 H100      -53.9361  -32.0459   13.5862 H         1 UNK         0.3450 
    101 H101      -54.3718  -27.6380   14.9191 H         1 UNK         0.2987 
    102 H102      -56.9914  -26.7957   15.2633 H         1 UNK         0.0766 
    103 H103      -57.8917  -28.8671   17.3345 H         1 UNK         0.0798 
    104 H104      -58.4821  -27.2088   17.2300 H         1 UNK         0.0798 
    105 H105      -58.7949  -28.3390   15.9238 H         1 UNK         0.0798 
    106 H106      -55.5818  -26.0347   16.7585 H         1 UNK         0.3198 
    107 H107      -54.4628  -26.7612   19.7571 H         1 UNK         0.0843 
    108 H108      -52.8154  -28.4967   19.1858 H         1 UNK         0.0831 
    109 H109      -51.9970  -26.9437   19.2277 H         1 UNK         0.0831 
    110 H110      -52.4055  -27.6919   17.6817 H         1 UNK         0.0831 
    111 H111      -53.4366  -25.4067   17.3090 H         1 UNK         0.3133 
    112 H112      -55.2793  -22.4821   17.9389 H         1 UNK         0.0566 
    113 H113      -53.1280  -21.2421   18.0072 H         1 UNK         0.0814 
    114 H114      -53.4279  -22.0165   19.5529 H         1 UNK         0.0814 
    115 H115      -52.2609  -22.7168   18.4407 H         1 UNK         0.0814 
    116 H116      -53.1377  -22.9836   16.1259 H         1 UNK         0.3091 
    117 H117      -54.8924  -24.9031   13.7246 H         1 UNK         0.0702 
    118 H118      -54.2595  -23.0507   12.2094 H         1 UNK         0.0785 
    119 H119      -54.0048  -21.9703   13.5801 H         1 UNK         0.0785 
    120 H120      -55.6188  -22.5632   13.2083 H         1 UNK         0.0785 
    121 H121      -52.3084  -23.8963   13.5121 H         1 UNK         0.2998 
    122 H122      -50.3717  -24.7203   14.7502 H         1 UNK         0.0697 
    123 H123      -50.7474  -27.6744   15.4995 H         1 UNK         0.0825 
    124 H124      -50.4744  -26.3557   16.6310 H         1 UNK         0.0825 
    125 H125      -49.2169  -26.7999   15.4880 H         1 UNK         0.0825 
    126 H126      -50.4245  -27.1525   13.1283 H         1 UNK         0.3029 
    127 H127      -51.3413  -26.8259   10.7016 H         1 UNK         0.0897 
    128 H128      -50.3885  -25.8604    8.6646 H         1 UNK         0.0792 
    129 H129      -51.3373  -24.6584    9.5215 H         1 UNK         0.0792 
    130 H130      -49.5760  -24.5963    9.5914 H         1 UNK         0.0792 
    131 H131      -48.5845  -26.8167   10.0461 H         1 UNK         0.3086 
    132 H132      -47.7410  -29.8002   11.8196 H         1 UNK         0.0583 
    133 H133      -48.2530  -29.0705    8.8886 H         1 UNK         0.1020 
    134 H134      -47.0476  -30.2158    9.4087 H         1 UNK         0.1020 
    135 H135      -49.4413  -30.6418    7.3705 H         1 UNK         0.0694 
    136 H136      -50.7004  -31.7127    7.9214 H         1 UNK         0.0694 
    137 H137      -46.4734  -27.7021   10.1987 H         1 UNK         0.2989 
    138 H138      -44.9075  -26.1368   12.9143 H         1 UNK         0.1055 
    139 H139      -42.7404  -26.7355   11.8464 H         1 UNK         0.0806 
    140 H140      -43.5020  -28.0827   10.9988 H         1 UNK         0.0806 
    141 H141      -43.3720  -28.0997   12.7518 H         1 UNK         0.0806 
    142 H142      -44.5393  -26.0464   10.0423 H         1 UNK         0.3061 
    143 H143      -47.2415  -23.9062    9.3317 H         1 UNK         0.0734 
    144 H144      -45.5951  -22.2548   10.2387 H         1 UNK         0.0832 
    145 H145      -44.2791  -23.1243    9.4611 H         1 UNK         0.0832 
    146 H146      -45.5222  -22.3375    8.4866 H         1 UNK         0.0832 
    147 H147      -45.1567  -24.6554    7.6254 H         1 UNK         0.3156 
    148 H148      -44.8876  -26.9645    6.7062 H         1 UNK         0.0589 
    149 H149      -47.6812  -28.1876    6.3799 H         1 UNK         0.0808 
    150 H150      -46.2399  -28.6922    5.5015 H         1 UNK         0.0808 
    151 H151      -46.3239  -28.9037    7.2415 H         1 UNK         0.0808 
    152 H152      -47.1223  -26.2501    4.9633 H         1 UNK         0.3098 
    153 H153      -45.9564  -23.0083    4.1658 H         1 UNK         0.0720 
    154 H154      -45.9146  -23.8061    1.8063 H         1 UNK         0.0791 
    155 H155      -45.7633  -25.4780    2.3498 H         1 UNK         0.0791 
    156 H156      -44.4676  -24.3284    2.6523 H         1 UNK         0.0791 
    157 H157      -47.9980  -24.7857    3.1299 H         1 UNK         0.3028 
@<TRIPOS>BOND
     1    1    2 1    
     2    1   82 1    
     3    1   83 1    
     4    1   84 1    
     5    2    3 2    
     6    2    4 am   BACKBONE|DICT|INTERRES
     7    4    5 1    
     8    4   85 1    
     9    5    6 1    
    10    5   80 1    
    11    5   86 1    
    12    6    7 1    
    13    6   87 1    
    14    6   88 1    
    15    7    8 1    
    16    8    9 1    
    17    8   89 1    
    18    8   90 1    
    19    9   10 ar   
    20    9   14 ar   
    21   10   11 ar   
    22   10   91 1    
    23   11   12 ar   
    24   11   58 1    
    25   12   13 ar   
    26   12   92 1    
    27   13   14 ar   
    28   13   15 1    
    29   14   93 1    
    30   15   16 1    
    31   15   94 1    
    32   15   95 1    
    33   16   17 1    
    34   17   18 1    
    35   17   96 1    
    36   17   97 1    
    37   18   19 1    
    38   18   22 1    
    39   18   98 1    
    40   19   20 am   BACKBONE|DICT|INTERRES
    41   19   21 2    
    42   20   99 1    
    43   20  100 1    
    44   22   23 am   BACKBONE|DICT|INTERRES
    45   22  101 1    
    46   23   24 2    
    47   23   25 1    
    48   25   26 1    
    49   25   27 1    
    50   25  102 1    
    51   26  103 1    
    52   26  104 1    
    53   26  105 1    
    54   27   28 am   BACKBONE|DICT|INTERRES
    55   27  106 1    
    56   28   29 2    
    57   28   30 1    
    58   30   31 1    
    59   30   32 1    
    60   30  107 1    
    61   31  108 1    
    62   31  109 1    
    63   31  110 1    
    64   32   33 am   BACKBONE|DICT|INTERRES
    65   32  111 1    
    66   33   34 2    
    67   33   35 1    
    68   35   36 1    
    69   35   37 1    
    70   35  112 1    
    71   36  113 1    
    72   36  114 1    
    73   36  115 1    
    74   37   38 am   BACKBONE|DICT|INTERRES
    75   37  116 1    
    76   38   39 2    
    77   38   40 1    
    78   40   41 1    
    79   40   42 1    
    80   40  117 1    
    81   41  118 1    
    82   41  119 1    
    83   41  120 1    
    84   42   43 am   BACKBONE|DICT|INTERRES
    85   42  121 1    
    86   43   44 2    
    87   43   45 1    
    88   45   46 1    
    89   45   47 1    
    90   45  122 1    
    91   46  123 1    
    92   46  124 1    
    93   46  125 1    
    94   47   48 am   BACKBONE|DICT|INTERRES
    95   47  126 1    
    96   48   49 2    
    97   48   50 1    
    98   50   51 1    
    99   50   52 1    
   100   50  127 1    
   101   51  128 1    
   102   51  129 1    
   103   51  130 1    
   104   52   53 am   BACKBONE|DICT|INTERRES
   105   52  131 1    
   106   53   54 2    
   107   53   55 1    
   108   55   56 1    
   109   55   59 1    
   110   55  132 1    
   111   56   57 1    
   112   56  133 1    
   113   56  134 1    
   114   57   58 1    
   115   58  135 1    
   116   58  136 1    
   117   59   60 am   BACKBONE|DICT|INTERRES
   118   59  137 1    
   119   60   61 2    
   120   60   62 1    
   121   62   63 1    
   122   62   64 1    
   123   62  138 1    
   124   63  139 1    
   125   63  140 1    
   126   63  141 1    
   127   64   65 am   BACKBONE|DICT|INTERRES
   128   64  142 1    
   129   65   66 2    
   130   65   67 1    
   131   67   68 1    
   132   67   69 1    
   133   67  143 1    
   134   68  144 1    
   135   68  145 1    
   136   68  146 1    
   137   69   70 am   BACKBONE|DICT|INTERRES
   138   69  147 1    
   139   70   71 2    
   140   70   72 1    
   141   72   73 1    
   142   72   74 1    
   143   72  148 1    
   144   73  149 1    
   145   73  150 1    
   146   73  151 1    
   147   74   75 am   BACKBONE|DICT|INTERRES
   148   74  152 1    
   149   75   76 2    
   150   75   77 1    
   151   77   78 1    
   152   77   79 1    
   153   77  153 1    
   154   78  154 1    
   155   78  155 1    
   156   78  156 1    
   157   79   80 am   BACKBONE|DICT|INTERRES
   158   79  157 1    
   159   80   81 2    
@<TRIPOS>SUBSTRUCTURE
     1 UNK         1 GROUP             0       ****    0 ROOT    
