@<TRIPOS>MOLECULE
3R207
157   159    1
SMALL
USER_CHARGES


@<TRIPOS>ATOM
      1 CA        -49.0517  -27.8874    0.8544 C.3       0 UNK        -0.1975 
      2 C         -50.3233  -28.2249    1.6184 C.2       0 UNK         0.4852 
      3 O         -51.3895  -27.7012    1.2937 O.2       0 UNK        -0.5216 
      4 N         -50.2188  -29.0959    2.6312 N.am      1 UNK        -0.4461 
      5 CA        -51.3286  -29.5257    3.4926 C.3       1 UNK         0.0864 
      6 C6        -50.9774  -30.8228    4.2662 C.3       14 UNK        -0.0898 
      7 S7        -49.4882  -30.6906    5.3253 S.3       14 UNK        -0.2598 
      8 C8        -49.9066  -31.8296    6.6892 C.3       14 UNK         0.0286 
      9 C9        -50.4778  -31.1345    7.9237 C.ar      14 UNK        -0.0844 
     10 C10       -49.9771  -31.4579    9.1909 C.ar      14 UNK        -0.0881 
     11 C11       -50.5090  -30.8668   10.3413 C.ar      14 UNK        -0.0643 
     12 C12       -51.5606  -29.9560   10.2185 C.ar      14 UNK        -0.0930 
     13 C13       -52.0386  -29.5862    8.9611 C.ar      14 UNK        -0.0827 
     14 C14       -51.5097  -30.1938    7.8196 C.ar      14 UNK        -0.1249 
     15 C15       -53.1012  -28.5053    8.8490 C.3       14 UNK         0.0141 
     16 S16       -52.4096  -26.8914    9.3306 S.3       14 UNK        -0.2313 
     17 C17       -53.8147  -25.7734    9.0282 C.3       14 UNK        -0.0915 
     18 CA        -54.4249  -25.2413   10.3506 C.3       13 UNK         0.0968 
     19 C         -55.4043  -24.0607   10.0874 C.2       13 UNK         0.5732 
     20 N         -56.6830  -24.1614   10.4318 N.am      13 UNK        -0.7310 
     21 O         -54.9920  -23.0258    9.5693 O.2       13 UNK        -0.5035 
     22 N         -54.9923  -26.3317   11.1611 N.am      13 UNK        -0.4233 
     23 C         -55.1099  -26.3051   12.4934 C.2       13 UNK         0.4989 
     24 O         -54.7382  -25.3605   13.1932 O.2       13 UNK        -0.4996 
     25 CA        -55.7821  -27.5152   13.1737 C.3       12 UNK         0.0216 
     26 CB        -56.0618  -28.7174   12.2396 C.3       12 UNK        -0.1964 
     27 N         -55.0292  -27.9171   14.3657 N.am      12 UNK        -0.4276 
     28 C         -53.7898  -28.4256   14.4035 C.2       12 UNK         0.5020 
     29 O         -53.1484  -28.7730   13.4111 O.2       12 UNK        -0.5489 
     30 CA        -53.1470  -28.4890   15.7972 C.3       11 UNK         0.0294 
     31 CB        -51.8734  -29.3544   15.8330 C.3       11 UNK        -0.2019 
     32 N         -52.8103  -27.1289   16.2098 N.am      11 UNK        -0.4493 
     33 C         -53.6388  -26.2785   16.8295 C.2       11 UNK         0.4932 
     34 O         -54.7733  -26.5928   17.1955 O.2       11 UNK        -0.5029 
     35 CA        -53.1375  -24.8341   17.0342 C.3       10 UNK         0.0280 
     36 CB        -53.8124  -24.1248   18.2274 C.3       10 UNK        -0.1976 
     37 N         -51.6751  -24.7278   17.1040 N.am      10 UNK        -0.4242 
     38 C         -50.8563  -25.2393   18.0377 C.2       10 UNK         0.5072 
     39 O         -51.2514  -25.8221   19.0486 O.2       10 UNK        -0.5224 
     40 CA        -49.3354  -25.1119   17.8082 C.3       9 UNK         0.0343 
     41 CB        -48.6963  -26.5023   17.6476 C.3       9 UNK        -0.2003 
     42 N         -48.9796  -24.2933   16.6457 N.am      9 UNK        -0.4272 
     43 C         -48.9964  -22.9535   16.6178 C.2       9 UNK         0.4988 
     44 O         -49.2442  -22.2518   17.5987 O.2       9 UNK        -0.5108 
     45 CA        -48.7228  -22.2809   15.2604 C.3       8 UNK         0.0248 
     46 CB        -47.2130  -22.0769   15.0584 C.3       8 UNK        -0.2001 
     47 N         -49.2798  -23.0186   14.1203 N.am      8 UNK        -0.4140 
     48 C         -50.5874  -23.2471   13.9217 C.2       8 UNK         0.5028 
     49 O         -51.4731  -22.8223   14.6634 O.2       8 UNK        -0.5428 
     50 CA        -50.9725  -24.1560   12.7405 C.3       7 UNK         0.0264 
     51 CB        -50.9370  -23.3868   11.4108 C.3       7 UNK        -0.1988 
     52 N         -50.1309  -25.3508   12.6433 N.am      7 UNK        -0.4454 
     53 C         -50.0229  -26.2821   13.6034 C.2       7 UNK         0.5027 
     54 O         -50.6321  -26.2404   14.6713 O.2       7 UNK        -0.5083 
     55 CA        -49.0339  -27.4331   13.3529 C.3       6 UNK         0.0844 
     56 C56       -49.6686  -28.4825   12.4177 C.3       14 UNK        -0.0967 
     57 S57       -48.6562  -29.9844   12.2095 S.3       14 UNK        -0.2604 
     58 C58       -49.9354  -31.1882   11.7149 C.3       14 UNK         0.0134 
     59 N         -47.7562  -26.9221   12.8557 N.am      6 UNK        -0.4116 
     60 C         -46.9070  -26.1756   13.5754 C.2       5 UNK         0.5034 
     61 O         -47.0821  -25.8765   14.7566 O.2       5 UNK        -0.5045 
     62 CA        -45.6745  -25.6325   12.8345 C.3       5 UNK         0.0224 
     63 CB        -44.5720  -26.7005   12.7554 C.3       5 UNK        -0.1978 
     64 N         -45.9935  -25.1508   11.4872 N.am      5 UNK        -0.4737 
     65 C         -46.7940  -24.1066   11.2301 C.2       4 UNK         0.5027 
     66 O         -47.3187  -23.4161   12.1014 O.2       4 UNK        -0.5211 
     67 CA        -47.0943  -23.8056    9.7537 C.3       4 UNK         0.0297 
     68 CB        -46.0088  -22.8952    9.1587 C.3       4 UNK        -0.1993 
     69 N         -47.2432  -25.0044    8.9228 N.am      4 UNK        -0.4486 
     70 C         -48.1603  -25.9624    9.1127 C.2       3 UNK         0.4961 
     71 O         -48.9506  -25.9836   10.0586 O.2       3 UNK        -0.5105 
     72 CA        -48.1829  -27.0958    8.0753 C.3       3 UNK         0.0299 
     73 CB        -47.9702  -28.4623    8.7428 C.3       3 UNK        -0.1972 
     74 N         -49.4415  -27.1136    7.3317 N.am      3 UNK        -0.4305 
     75 C         -49.8337  -26.1642    6.4718 C.2       2 UNK         0.5006 
     76 O         -49.1526  -25.1811    6.1743 O.2       2 UNK        -0.5106 
     77 CA        -51.1680  -26.4122    5.7607 C.3       2 UNK         0.0296 
     78 CB        -51.7277  -25.1628    5.0533 C.3       2 UNK        -0.2002 
     79 N         -50.9449  -27.4776    4.7926 N.am      2 UNK        -0.4032 
     80 C         -51.8306  -28.4172    4.4443 C.2       1 UNK         0.5000 
     81 O         -52.9932  -28.4496    4.8521 O.2       1 UNK        -0.5238 
     82 H82       -48.8475  -26.8190    0.9193 H         1 UNK         0.0889 
     83 H83       -49.1655  -28.1495   -0.1972 H         1 UNK         0.0889 
     84 H84       -48.1864  -28.4225    1.2452 H         1 UNK         0.0889 
     85 H85       -49.3205  -29.5048    2.8504 H         1 UNK         0.3028 
     86 H86       -52.1697  -29.7614    2.8365 H         1 UNK         0.0864 
     87 H87       -50.8034  -31.6313    3.5544 H         1 UNK         0.0720 
     88 H88       -51.8320  -31.1461    4.8632 H         1 UNK         0.0720 
     89 H89       -48.9948  -32.3673    6.9533 H         1 UNK         0.0814 
     90 H90       -50.6106  -32.5883    6.3452 H         1 UNK         0.0814 
     91 H91       -49.1684  -32.1695    9.2865 H         1 UNK         0.1469 
     92 H92       -51.9822  -29.4929   11.1000 H         1 UNK         0.1381 
     93 H93       -51.9002  -29.9271    6.8504 H         1 UNK         0.1206 
     94 H94       -53.9445  -28.7527    9.4944 H         1 UNK         0.0813 
     95 H95       -53.4869  -28.4470    7.8296 H         1 UNK         0.0813 
     96 H96       -54.5724  -26.2739    8.4229 H         1 UNK         0.0638 
     97 H97       -53.4344  -24.9507    8.4196 H         1 UNK         0.0638 
     98 H98       -53.6059  -24.8019   10.9227 H         1 UNK         0.0568 
     99 H99       -57.3012  -23.3846   10.2587 H         1 UNK         0.3450 
    100 H100      -57.0358  -25.0010   10.8605 H         1 UNK         0.3450 
    101 H101      -55.3271  -27.1375   10.6568 H         1 UNK         0.2987 
    102 H102      -56.7458  -27.1547   13.5364 H         1 UNK         0.0766 
    103 H103      -55.1551  -29.0954   11.7658 H         1 UNK         0.0798 
    104 H104      -56.5096  -29.5434   12.7922 H         1 UNK         0.0798 
    105 H105      -56.7643  -28.4509   11.4491 H         1 UNK         0.0798 
    106 H106      -55.4124  -27.5970   15.2477 H         1 UNK         0.3198 
    107 H107      -53.8700  -28.9254   16.4900 H         1 UNK         0.0843 
    108 H108      -51.0901  -28.9534   15.1907 H         1 UNK         0.0831 
    109 H109      -52.0831  -30.3705   15.4966 H         1 UNK         0.0831 
    110 H110      -51.4710  -29.4217   16.8437 H         1 UNK         0.0831 
    111 H111      -51.9406  -26.7567   15.8296 H         1 UNK         0.3133 
    112 H112      -53.4256  -24.2947   16.1307 H         1 UNK         0.0566 
    113 H113      -53.4431  -23.1059   18.3433 H         1 UNK         0.0814 
    114 H114      -54.8918  -24.0624   18.0845 H         1 UNK         0.0814 
    115 H115      -53.6412  -24.6542   19.1650 H         1 UNK         0.0814 
    116 H116      -51.2480  -24.2782   16.3022 H         1 UNK         0.3091 
    117 H117      -48.9127  -24.6472   18.7014 H         1 UNK         0.0702 
    118 H118      -47.6145  -26.4307   17.5332 H         1 UNK         0.0785 
    119 H119      -49.0897  -27.0291   16.7778 H         1 UNK         0.0785 
    120 H120      -48.8883  -27.1269   18.5209 H         1 UNK         0.0785 
    121 H121      -48.7216  -24.7955   15.8039 H         1 UNK         0.2998 
    122 H122      -49.1993  -21.2986   15.2791 H         1 UNK         0.0697 
    123 H123      -46.6842  -23.0282   14.9875 H         1 UNK         0.0825 
    124 H124      -46.7775  -21.5205   15.8895 H         1 UNK         0.0825 
    125 H125      -47.0080  -21.5127   14.1484 H         1 UNK         0.0825 
    126 H126      -48.6121  -23.3541   13.4275 H         1 UNK         0.3029 
    127 H127      -51.9963  -24.4979   12.9089 H         1 UNK         0.0897 
    128 H128      -51.2207  -24.0258   10.5738 H         1 UNK         0.0792 
    129 H129      -51.6318  -22.5462   11.4296 H         1 UNK         0.0792 
    130 H130      -49.9449  -22.9867   11.2027 H         1 UNK         0.0792 
    131 H131      -49.6230  -25.4868   11.7712 H         1 UNK         0.3086 
    132 H132      -48.8434  -27.9137   14.3151 H         1 UNK         0.0583 
    133 H133      -50.6344  -28.7867   12.8214 H         1 UNK         0.1020 
    134 H134      -49.8726  -28.0534   11.4353 H         1 UNK         0.1020 
    135 H135      -49.4963  -32.1869   11.7122 H         1 UNK         0.0694 
    136 H136      -50.7311  -31.2075   12.4617 H         1 UNK         0.0694 
    137 H137      -47.5588  -27.0829   11.8794 H         1 UNK         0.2989 
    138 H138      -45.2932  -24.7869   13.4116 H         1 UNK         0.1055 
    139 H139      -44.3084  -27.0616   13.7507 H         1 UNK         0.0806 
    140 H140      -43.6625  -26.2993   12.3078 H         1 UNK         0.0806 
    141 H141      -44.8835  -27.5649   12.1675 H         1 UNK         0.0806 
    142 H142      -45.6034  -25.6597   10.7072 H         1 UNK         0.3061 
    143 H143      -48.0437  -23.2679    9.7172 H         1 UNK         0.0734 
    144 H144      -46.2605  -22.5871    8.1437 H         1 UNK         0.0832 
    145 H145      -45.8957  -21.9862    9.7515 H         1 UNK         0.0832 
    146 H146      -45.0361  -23.3881    9.1304 H         1 UNK         0.0832 
    147 H147      -46.6507  -25.0638    8.1069 H         1 UNK         0.3156 
    148 H148      -47.3709  -26.9430    7.3612 H         1 UNK         0.0589 
    149 H149      -48.7914  -28.7081    9.4150 H         1 UNK         0.0808 
    150 H150      -47.0505  -28.4796    9.3286 H         1 UNK         0.0808 
    151 H151      -47.9003  -29.2594    8.0021 H         1 UNK         0.0808 
    152 H152      -50.0710  -27.8771    7.5377 H         1 UNK         0.3098 
    153 H153      -51.8919  -26.7388    6.5080 H         1 UNK         0.0720 
    154 H154      -51.8646  -24.3444    5.7613 H         1 UNK         0.0791 
    155 H155      -52.6984  -25.3675    4.6014 H         1 UNK         0.0791 
    156 H156      -51.0606  -24.8101    4.2658 H         1 UNK         0.0791 
    157 H157      -50.0053  -27.5509    4.4273 H         1 UNK         0.3028 
@<TRIPOS>BOND
     1    1    2 1    
     2    1   82 1    
     3    1   83 1    
     4    1   84 1    
     5    2    3 2    
     6    2    4 am   BACKBONE|DICT|INTERRES
     7    4    5 1    
     8    4   85 1    
     9    5    6 1    
    10    5   80 1    
    11    5   86 1    
    12    6    7 1    
    13    6   87 1    
    14    6   88 1    
    15    7    8 1    
    16    8    9 1    
    17    8   89 1    
    18    8   90 1    
    19    9   10 ar   
    20    9   14 ar   
    21   10   11 ar   
    22   10   91 1    
    23   11   12 ar   
    24   11   58 1    
    25   12   13 ar   
    26   12   92 1    
    27   13   14 ar   
    28   13   15 1    
    29   14   93 1    
    30   15   16 1    
    31   15   94 1    
    32   15   95 1    
    33   16   17 1    
    34   17   18 1    
    35   17   96 1    
    36   17   97 1    
    37   18   19 1    
    38   18   22 1    
    39   18   98 1    
    40   19   20 am   BACKBONE|DICT|INTERRES
    41   19   21 2    
    42   20   99 1    
    43   20  100 1    
    44   22   23 am   BACKBONE|DICT|INTERRES
    45   22  101 1    
    46   23   24 2    
    47   23   25 1    
    48   25   26 1    
    49   25   27 1    
    50   25  102 1    
    51   26  103 1    
    52   26  104 1    
    53   26  105 1    
    54   27   28 am   BACKBONE|DICT|INTERRES
    55   27  106 1    
    56   28   29 2    
    57   28   30 1    
    58   30   31 1    
    59   30   32 1    
    60   30  107 1    
    61   31  108 1    
    62   31  109 1    
    63   31  110 1    
    64   32   33 am   BACKBONE|DICT|INTERRES
    65   32  111 1    
    66   33   34 2    
    67   33   35 1    
    68   35   36 1    
    69   35   37 1    
    70   35  112 1    
    71   36  113 1    
    72   36  114 1    
    73   36  115 1    
    74   37   38 am   BACKBONE|DICT|INTERRES
    75   37  116 1    
    76   38   39 2    
    77   38   40 1    
    78   40   41 1    
    79   40   42 1    
    80   40  117 1    
    81   41  118 1    
    82   41  119 1    
    83   41  120 1    
    84   42   43 am   BACKBONE|DICT|INTERRES
    85   42  121 1    
    86   43   44 2    
    87   43   45 1    
    88   45   46 1    
    89   45   47 1    
    90   45  122 1    
    91   46  123 1    
    92   46  124 1    
    93   46  125 1    
    94   47   48 am   BACKBONE|DICT|INTERRES
    95   47  126 1    
    96   48   49 2    
    97   48   50 1    
    98   50   51 1    
    99   50   52 1    
   100   50  127 1    
   101   51  128 1    
   102   51  129 1    
   103   51  130 1    
   104   52   53 am   BACKBONE|DICT|INTERRES
   105   52  131 1    
   106   53   54 2    
   107   53   55 1    
   108   55   56 1    
   109   55   59 1    
   110   55  132 1    
   111   56   57 1    
   112   56  133 1    
   113   56  134 1    
   114   57   58 1    
   115   58  135 1    
   116   58  136 1    
   117   59   60 am   BACKBONE|DICT|INTERRES
   118   59  137 1    
   119   60   61 2    
   120   60   62 1    
   121   62   63 1    
   122   62   64 1    
   123   62  138 1    
   124   63  139 1    
   125   63  140 1    
   126   63  141 1    
   127   64   65 am   BACKBONE|DICT|INTERRES
   128   64  142 1    
   129   65   66 2    
   130   65   67 1    
   131   67   68 1    
   132   67   69 1    
   133   67  143 1    
   134   68  144 1    
   135   68  145 1    
   136   68  146 1    
   137   69   70 am   BACKBONE|DICT|INTERRES
   138   69  147 1    
   139   70   71 2    
   140   70   72 1    
   141   72   73 1    
   142   72   74 1    
   143   72  148 1    
   144   73  149 1    
   145   73  150 1    
   146   73  151 1    
   147   74   75 am   BACKBONE|DICT|INTERRES
   148   74  152 1    
   149   75   76 2    
   150   75   77 1    
   151   77   78 1    
   152   77   79 1    
   153   77  153 1    
   154   78  154 1    
   155   78  155 1    
   156   78  156 1    
   157   79   80 am   BACKBONE|DICT|INTERRES
   158   79  157 1    
   159   80   81 2    
@<TRIPOS>SUBSTRUCTURE
     1 UNK         1 GROUP             0       ****    0 ROOT    
