@<TRIPOS>MOLECULE
3R207
157   159    1
SMALL
USER_CHARGES


@<TRIPOS>ATOM
      1 CA        -47.1740  -31.5509    6.9473 C.3       0 UNK        -0.1975 
      2 C         -47.2471  -30.6874    5.6967 C.2       0 UNK         0.4852 
      3 O         -46.4568  -30.8779    4.7721 O.2       0 UNK        -0.5216 
      4 N         -48.1870  -29.7333    5.6652 N.am      1 UNK        -0.4461 
      5 CA        -48.4028  -28.7906    4.5583 C.3       1 UNK         0.0864 
      6 C6        -49.8148  -28.1535    4.6147 C.3       14 UNK        -0.0898 
      7 S7        -50.2494  -27.4137    6.2324 S.3       14 UNK        -0.2598 
      8 C8        -51.7029  -28.4272    6.6634 C.3       14 UNK         0.0286 
      9 C9        -52.4358  -27.9238    7.8997 C.ar      14 UNK        -0.0844 
     10 C10       -52.9425  -26.6217    7.9341 C.ar      14 UNK        -0.0881 
     11 C11       -53.6782  -26.1719    9.0341 C.ar      14 UNK        -0.0643 
     12 C12       -53.9287  -27.0438   10.0975 C.ar      14 UNK        -0.0930 
     13 C13       -53.4200  -28.3450   10.0806 C.ar      14 UNK        -0.0827 
     14 C14       -52.6675  -28.7774    8.9832 C.ar      14 UNK        -0.1249 
     15 C15       -53.6983  -29.2911   11.2371 C.3       14 UNK         0.0141 
     16 S16       -55.1894  -30.2795   10.9119 S.3       14 UNK        -0.2313 
     17 C17       -55.1090  -31.4994   12.2644 C.3       14 UNK        -0.0915 
     18 CA        -56.3464  -31.4488   13.2126 C.3       13 UNK         0.0968 
     19 C         -56.3763  -32.6030   14.2638 C.2       13 UNK         0.5732 
     20 N         -55.9112  -33.7972   13.9198 N.am      13 UNK        -0.7310 
     21 O         -56.8704  -32.4471   15.3799 O.2       13 UNK        -0.5035 
     22 N         -56.5736  -30.1239   13.8183 N.am      13 UNK        -0.4233 
     23 C         -55.7473  -29.4941   14.6622 C.2       13 UNK         0.4989 
     24 O         -54.6157  -29.8867   14.9494 O.2       13 UNK        -0.4996 
     25 CA        -56.2905  -28.2203   15.3200 C.3       12 UNK         0.0216 
     26 CB        -56.2543  -28.3335   16.8540 C.3       12 UNK        -0.1964 
     27 N         -55.4935  -27.0677   14.9061 N.am      12 UNK        -0.4276 
     28 C         -55.8603  -26.2002   13.9519 C.2       12 UNK         0.5020 
     29 O         -56.8936  -26.3303   13.2929 O.2       12 UNK        -0.5489 
     30 CA        -54.9449  -24.9913   13.6552 C.3       11 UNK         0.0294 
     31 CB        -55.7478  -23.6912   13.4435 C.3       11 UNK        -0.2019 
     32 N         -53.8579  -24.7768   14.6147 N.am      11 UNK        -0.4493 
     33 C         -53.9334  -24.4990   15.9246 C.2       11 UNK         0.4932 
     34 O         -54.9885  -24.3056   16.5301 O.2       11 UNK        -0.5029 
     35 CA        -52.5877  -24.4854   16.6832 C.3       10 UNK         0.0280 
     36 CB        -52.7584  -24.6218   18.2106 C.3       10 UNK        -0.1976 
     37 N         -51.6407  -25.4905   16.1763 N.am      10 UNK        -0.4242 
     38 C         -51.8494  -26.8138   16.0683 C.2       10 UNK         0.5072 
     39 O         -52.8695  -27.3696   16.4756 O.2       10 UNK        -0.5224 
     40 CA        -50.7941  -27.6632   15.3325 C.3       9 UNK         0.0343 
     41 CB        -51.4051  -28.2815   14.0631 C.3       9 UNK        -0.2003 
     42 N         -49.5931  -26.9163   14.9535 N.am      9 UNK        -0.4272 
     43 C         -48.5838  -26.6156   15.7819 C.2       9 UNK         0.4988 
     44 O         -48.5253  -26.9867   16.9544 O.2       9 UNK        -0.5108 
     45 CA        -47.4669  -25.7188   15.2169 C.3       8 UNK         0.0248 
     46 CB        -46.4331  -26.5601   14.4524 C.3       8 UNK        -0.2001 
     47 N         -47.9664  -24.6453   14.3506 N.am      8 UNK        -0.4140 
     48 C         -48.8081  -23.6763   14.7408 C.2       8 UNK         0.5028 
     49 O         -49.2427  -23.5642   15.8870 O.2       8 UNK        -0.5428 
     50 CA        -49.2993  -22.7029   13.6581 C.3       7 UNK         0.0264 
     51 CB        -48.2439  -21.6263   13.3572 C.3       7 UNK        -0.1988 
     52 N         -49.6818  -23.3880   12.4220 N.am      7 UNK        -0.4454 
     53 C         -50.7001  -24.2558   12.3200 C.2       7 UNK         0.5027 
     54 O         -51.4316  -24.5683   13.2593 O.2       7 UNK        -0.5083 
     55 CA        -50.9032  -24.9225   10.9466 C.3       6 UNK         0.0844 
     56 C56       -51.6019  -23.9661    9.9453 C.3       14 UNK        -0.0967 
     57 S57       -53.3720  -23.7300   10.3351 S.3       14 UNK        -0.2604 
     58 C58       -54.2008  -24.7429    9.0676 C.3       14 UNK         0.0134 
     59 N         -49.6376  -25.4455   10.4269 N.am      6 UNK        -0.4116 
     60 C         -48.9320  -26.4339   11.0024 C.2       5 UNK         0.5034 
     61 O         -49.3023  -27.0498   11.9999 O.2       5 UNK        -0.5045 
     62 CA        -47.5488  -26.7571   10.4085 C.3       5 UNK         0.0224 
     63 CB        -47.6718  -27.8192    9.3036 C.3       5 UNK        -0.1978 
     64 N         -46.8597  -25.5793    9.8787 N.am      5 UNK        -0.4737 
     65 C         -46.5495  -24.4773   10.5781 C.2       4 UNK         0.5027 
     66 O         -46.6934  -24.3803   11.7959 O.2       4 UNK        -0.5211 
     67 CA        -46.0655  -23.2569    9.7719 C.3       4 UNK         0.0297 
     68 CB        -44.5358  -23.1405    9.8449 C.3       4 UNK        -0.1993 
     69 N         -46.4823  -23.2945    8.3648 N.am      4 UNK        -0.4486 
     70 C         -47.7471  -23.3089    7.9221 C.2       3 UNK         0.4961 
     71 O         -48.7260  -23.1834    8.6574 O.2       3 UNK        -0.5105 
     72 CA        -47.9596  -23.6358    6.4344 C.3       3 UNK         0.0299 
     73 CB        -47.6395  -22.4292    5.5309 C.3       3 UNK        -0.1972 
     74 N         -47.2547  -24.8591    6.0140 N.am      3 UNK        -0.4305 
     75 C         -45.9335  -25.0712    5.8903 C.2       2 UNK         0.5006 
     76 O         -45.0879  -24.1935    6.0693 O.2       2 UNK        -0.5106 
     77 CA        -45.4545  -26.5068    5.5950 C.3       2 UNK         0.0296 
     78 CB        -44.4526  -26.9749    6.6666 C.3       2 UNK        -0.2002 
     79 N         -46.5394  -27.4890    5.5151 N.am      2 UNK        -0.4032 
     80 C         -47.3052  -27.7099    4.4377 C.2       1 UNK         0.5000 
     81 O         -47.1839  -27.0881    3.3809 O.2       1 UNK        -0.5238 
     82 H82       -47.9217  -31.2638    7.6866 H         1 UNK         0.0889 
     83 H83       -46.1905  -31.4614    7.4079 H         1 UNK         0.0889 
     84 H84       -47.3360  -32.5973    6.6900 H         1 UNK         0.0889 
     85 H85       -48.8169  -29.6250    6.4477 H         1 UNK         0.3028 
     86 H86       -48.3484  -29.3656    3.6309 H         1 UNK         0.0864 
     87 H87       -49.9313  -27.3896    3.8431 H         1 UNK         0.0720 
     88 H88       -50.5498  -28.9192    4.3623 H         1 UNK         0.0720 
     89 H89       -51.3860  -29.4628    6.7961 H         1 UNK         0.0814 
     90 H90       -52.4044  -28.4232    5.8278 H         1 UNK         0.0814 
     91 H91       -52.7640  -25.9596    7.0977 H         1 UNK         0.1469 
     92 H92       -54.5175  -26.7074   10.9385 H         1 UNK         0.1381 
     93 H93       -52.2899  -29.7906    8.9626 H         1 UNK         0.1206 
     94 H94       -52.8421  -29.9506   11.3874 H         1 UNK         0.0813 
     95 H95       -53.8294  -28.7344   12.1665 H         1 UNK         0.0813 
     96 H96       -54.1838  -31.3753   12.8288 H         1 UNK         0.0638 
     97 H97       -55.0342  -32.4752   11.7831 H         1 UNK         0.0638 
     98 H98       -57.2289  -31.6261   12.5973 H         1 UNK         0.0568 
     99 H99       -55.9501  -34.5473   14.5920 H         1 UNK         0.3450 
    100 H100      -55.5245  -33.9643   13.0046 H         1 UNK         0.3450 
    101 H101      -57.4863  -29.7266   13.6512 H         1 UNK         0.2987 
    102 H102      -57.3347  -28.0835   15.0302 H         1 UNK         0.0766 
    103 H103      -56.6591  -27.4382   17.3262 H         1 UNK         0.0798 
    104 H104      -55.2395  -28.4767   17.2276 H         1 UNK         0.0798 
    105 H105      -56.8495  -29.1812   17.1959 H         1 UNK         0.0798 
    106 H106      -54.6019  -26.9529   15.3789 H         1 UNK         0.3198 
    107 H107      -54.4488  -25.2234   12.7134 H         1 UNK         0.0843 
    108 H108      -56.3184  -23.4184   14.3315 H         1 UNK         0.0831 
    109 H109      -56.4561  -23.7971   12.6211 H         1 UNK         0.0831 
    110 H110      -55.0911  -22.8577   13.1940 H         1 UNK         0.0831 
    111 H111      -52.9217  -24.8514   14.2138 H         1 UNK         0.3133 
    112 H112      -52.1343  -23.5135   16.4835 H         1 UNK         0.0566 
    113 H113      -51.7953  -24.5955   18.7201 H         1 UNK         0.0814 
    114 H114      -53.3590  -23.8047   18.6119 H         1 UNK         0.0814 
    115 H115      -53.2560  -25.5540   18.4802 H         1 UNK         0.0814 
    116 H116      -50.7763  -25.1140   15.8044 H         1 UNK         0.3091 
    117 H117      -50.5063  -28.4758   16.0025 H         1 UNK         0.0702 
    118 H118      -52.2671  -28.9029   14.3048 H         1 UNK         0.0785 
    119 H119      -50.6873  -28.9179   13.5454 H         1 UNK         0.0785 
    120 H120      -51.7394  -27.5149   13.3625 H         1 UNK         0.0785 
    121 H121      -49.5350  -26.6272   13.9819 H         1 UNK         0.2998 
    122 H122      -46.9632  -25.2458   16.0623 H         1 UNK         0.0697 
    123 H123      -46.8828  -27.0730   13.6024 H         1 UNK         0.0825 
    124 H124      -45.9963  -27.3224   15.0989 H         1 UNK         0.0825 
    125 H125      -45.6157  -25.9435   14.0780 H         1 UNK         0.0825 
    126 H126      -47.6198  -24.6279   13.3929 H         1 UNK         0.3029 
    127 H127      -50.1900  -22.2036   14.0463 H         1 UNK         0.0897 
    128 H128      -48.6168  -20.8944   12.6406 H         1 UNK         0.0792 
    129 H129      -47.9759  -21.0824   14.2641 H         1 UNK         0.0792 
    130 H130      -47.3261  -22.0540   12.9531 H         1 UNK         0.0792 
    131 H131      -49.1055  -23.2200   11.6098 H         1 UNK         0.3086 
    132 H132      -51.5511  -25.7881   11.0988 H         1 UNK         0.0583 
    133 H133      -51.1154  -22.9890    9.9245 H         1 UNK         0.1020 
    134 H134      -51.5105  -24.3514    8.9291 H         1 UNK         0.1020 
    135 H135      -55.2726  -24.7557    9.2707 H         1 UNK         0.0694 
    136 H136      -54.0784  -24.2612    8.0962 H         1 UNK         0.0694 
    137 H137      -49.2359  -24.9430    9.6446 H         1 UNK         0.2989 
    138 H138      -46.9347  -27.1665   11.2127 H         1 UNK         0.1055 
    139 H139      -46.6922  -28.1550    8.9643 H         1 UNK         0.0806 
    140 H140      -48.2213  -27.4416    8.4415 H         1 UNK         0.0806 
    141 H141      -48.2037  -28.6998    9.6674 H         1 UNK         0.0806 
    142 H142      -46.6941  -25.5575    8.8847 H         1 UNK         0.3061 
    143 H143      -46.5051  -22.3676   10.2282 H         1 UNK         0.0734 
    144 H144      -44.1823  -22.2371    9.3477 H         1 UNK         0.0832 
    145 H145      -44.1972  -23.0923   10.8810 H         1 UNK         0.0832 
    146 H146      -44.0428  -23.9951    9.3794 H         1 UNK         0.0832 
    147 H147      -45.7539  -23.4369    7.6680 H         1 UNK         0.3156 
    148 H148      -49.0214  -23.8568    6.3114 H         1 UNK         0.0589 
    149 H149      -46.6025  -22.1055    5.6210 H         1 UNK         0.0808 
    150 H150      -47.8282  -22.6598    4.4825 H         1 UNK         0.0808 
    151 H151      -48.2656  -21.5751    5.7924 H         1 UNK         0.0808 
    152 H152      -47.8568  -25.6546    5.8533 H         1 UNK         0.3098 
    153 H153      -44.9345  -26.4790    4.6350 H         1 UNK         0.0720 
    154 H154      -44.0856  -27.9795    6.4546 H         1 UNK         0.0791 
    155 H155      -44.8947  -26.9819    7.6633 H         1 UNK         0.0791 
    156 H156      -43.5812  -26.3195    6.7033 H         1 UNK         0.0791 
    157 H157      -46.7043  -28.0565    6.3328 H         1 UNK         0.3028 
@<TRIPOS>BOND
     1    1    2 1    
     2    1   82 1    
     3    1   83 1    
     4    1   84 1    
     5    2    3 2    
     6    2    4 am   BACKBONE|DICT|INTERRES
     7    4    5 1    
     8    4   85 1    
     9    5    6 1    
    10    5   80 1    
    11    5   86 1    
    12    6    7 1    
    13    6   87 1    
    14    6   88 1    
    15    7    8 1    
    16    8    9 1    
    17    8   89 1    
    18    8   90 1    
    19    9   10 ar   
    20    9   14 ar   
    21   10   11 ar   
    22   10   91 1    
    23   11   12 ar   
    24   11   58 1    
    25   12   13 ar   
    26   12   92 1    
    27   13   14 ar   
    28   13   15 1    
    29   14   93 1    
    30   15   16 1    
    31   15   94 1    
    32   15   95 1    
    33   16   17 1    
    34   17   18 1    
    35   17   96 1    
    36   17   97 1    
    37   18   19 1    
    38   18   22 1    
    39   18   98 1    
    40   19   20 am   BACKBONE|DICT|INTERRES
    41   19   21 2    
    42   20   99 1    
    43   20  100 1    
    44   22   23 am   BACKBONE|DICT|INTERRES
    45   22  101 1    
    46   23   24 2    
    47   23   25 1    
    48   25   26 1    
    49   25   27 1    
    50   25  102 1    
    51   26  103 1    
    52   26  104 1    
    53   26  105 1    
    54   27   28 am   BACKBONE|DICT|INTERRES
    55   27  106 1    
    56   28   29 2    
    57   28   30 1    
    58   30   31 1    
    59   30   32 1    
    60   30  107 1    
    61   31  108 1    
    62   31  109 1    
    63   31  110 1    
    64   32   33 am   BACKBONE|DICT|INTERRES
    65   32  111 1    
    66   33   34 2    
    67   33   35 1    
    68   35   36 1    
    69   35   37 1    
    70   35  112 1    
    71   36  113 1    
    72   36  114 1    
    73   36  115 1    
    74   37   38 am   BACKBONE|DICT|INTERRES
    75   37  116 1    
    76   38   39 2    
    77   38   40 1    
    78   40   41 1    
    79   40   42 1    
    80   40  117 1    
    81   41  118 1    
    82   41  119 1    
    83   41  120 1    
    84   42   43 am   BACKBONE|DICT|INTERRES
    85   42  121 1    
    86   43   44 2    
    87   43   45 1    
    88   45   46 1    
    89   45   47 1    
    90   45  122 1    
    91   46  123 1    
    92   46  124 1    
    93   46  125 1    
    94   47   48 am   BACKBONE|DICT|INTERRES
    95   47  126 1    
    96   48   49 2    
    97   48   50 1    
    98   50   51 1    
    99   50   52 1    
   100   50  127 1    
   101   51  128 1    
   102   51  129 1    
   103   51  130 1    
   104   52   53 am   BACKBONE|DICT|INTERRES
   105   52  131 1    
   106   53   54 2    
   107   53   55 1    
   108   55   56 1    
   109   55   59 1    
   110   55  132 1    
   111   56   57 1    
   112   56  133 1    
   113   56  134 1    
   114   57   58 1    
   115   58  135 1    
   116   58  136 1    
   117   59   60 am   BACKBONE|DICT|INTERRES
   118   59  137 1    
   119   60   61 2    
   120   60   62 1    
   121   62   63 1    
   122   62   64 1    
   123   62  138 1    
   124   63  139 1    
   125   63  140 1    
   126   63  141 1    
   127   64   65 am   BACKBONE|DICT|INTERRES
   128   64  142 1    
   129   65   66 2    
   130   65   67 1    
   131   67   68 1    
   132   67   69 1    
   133   67  143 1    
   134   68  144 1    
   135   68  145 1    
   136   68  146 1    
   137   69   70 am   BACKBONE|DICT|INTERRES
   138   69  147 1    
   139   70   71 2    
   140   70   72 1    
   141   72   73 1    
   142   72   74 1    
   143   72  148 1    
   144   73  149 1    
   145   73  150 1    
   146   73  151 1    
   147   74   75 am   BACKBONE|DICT|INTERRES
   148   74  152 1    
   149   75   76 2    
   150   75   77 1    
   151   77   78 1    
   152   77   79 1    
   153   77  153 1    
   154   78  154 1    
   155   78  155 1    
   156   78  156 1    
   157   79   80 am   BACKBONE|DICT|INTERRES
   158   79  157 1    
   159   80   81 2    
@<TRIPOS>SUBSTRUCTURE
     1 UNK         1 GROUP             0       ****    0 ROOT    
