@<TRIPOS>MOLECULE
3R207
157   159    1
SMALL
USER_CHARGES


@<TRIPOS>ATOM
      1 CA        -46.9647  -31.9249    3.2418 C.3       0 UNK        -0.1975 
      2 C         -47.5671  -30.5753    3.6037 C.2       0 UNK         0.4852 
      3 O         -47.6355  -29.6872    2.7525 O.2       0 UNK        -0.5216 
      4 N         -48.0104  -30.4145    4.8574 N.am      1 UNK        -0.4461 
      5 CA        -48.5596  -29.1696    5.3952 C.3       1 UNK         0.0864 
      6 C6        -49.4074  -29.4385    6.6666 C.3       14 UNK        -0.0898 
      7 S7        -50.2148  -27.9507    7.3563 S.3       14 UNK        -0.2598 
      8 C8        -51.8545  -28.0164    6.5659 C.3       14 UNK         0.0286 
      9 C9        -52.8463  -27.0982    7.2677 C.ar      14 UNK        -0.0844 
     10 C10       -52.6349  -25.7162    7.2955 C.ar      14 UNK        -0.0881 
     11 C11       -53.5221  -24.8738    7.9736 C.ar      14 UNK        -0.0643 
     12 C12       -54.6465  -25.4190    8.5980 C.ar      14 UNK        -0.0930 
     13 C13       -54.8795  -26.7960    8.5619 C.ar      14 UNK        -0.0827 
     14 C14       -53.9770  -27.6304    7.8949 C.ar      14 UNK        -0.1249 
     15 C15       -56.1054  -27.3763    9.2500 C.3       14 UNK         0.0141 
     16 S16       -55.7356  -27.8725   10.9605 S.3       14 UNK        -0.2313 
     17 C17       -54.8139  -29.4209   10.6771 C.3       14 UNK        -0.0915 
     18 CA        -54.8387  -30.3510   11.9143 C.3       13 UNK         0.0968 
     19 C         -54.2761  -31.7600   11.5729 C.2       13 UNK         0.5732 
     20 N         -55.0645  -32.5910   10.9044 N.am      13 UNK        -0.7310 
     21 O         -53.1341  -32.1000   11.8767 O.2       13 UNK        -0.5035 
     22 N         -54.1756  -29.7148   13.0595 N.am      13 UNK        -0.4233 
     23 C         -54.2230  -30.1633   14.3199 C.2       13 UNK         0.4989 
     24 O         -54.8422  -31.1681   14.6738 O.2       13 UNK        -0.4996 
     25 CA        -53.4722  -29.3370   15.3774 C.3       12 UNK         0.0216 
     26 CB        -52.0286  -29.8429   15.5236 C.3       12 UNK        -0.1964 
     27 N         -53.4589  -27.9019   15.0836 N.am      12 UNK        -0.4276 
     28 C         -54.5372  -27.1069   15.0805 C.2       12 UNK         0.5020 
     29 O         -55.6706  -27.4803   15.3908 O.2       12 UNK        -0.5489 
     30 CA        -54.2788  -25.6467   14.6718 C.3       11 UNK         0.0294 
     31 CB        -55.5595  -24.7888   14.5989 C.3       11 UNK        -0.2019 
     32 N         -53.2596  -25.0190   15.5218 N.am      11 UNK        -0.4493 
     33 C         -53.3218  -24.7879   16.8430 C.2       11 UNK         0.4932 
     34 O         -54.3072  -25.0329   17.5408 O.2       11 UNK        -0.5029 
     35 CA        -52.0668  -24.1607   17.4880 C.3       10 UNK         0.0280 
     36 CB        -52.0668  -24.2589   19.0287 C.3       10 UNK        -0.1976 
     37 N         -50.8051  -24.6707   16.9359 N.am      10 UNK        -0.4242 
     38 C         -50.3758  -25.9444   16.9296 C.2       10 UNK         0.5072 
     39 O         -50.9996  -26.8749   17.4403 O.2       10 UNK        -0.5224 
     40 CA        -49.0355  -26.2380   16.2279 C.3       9 UNK         0.0343 
     41 CB        -49.0705  -27.5769   15.4705 C.3       9 UNK        -0.2003 
     42 N         -48.6860  -25.1744   15.2857 N.am      9 UNK        -0.4272 
     43 C         -47.6033  -24.3884   15.3595 C.2       9 UNK         0.4988 
     44 O         -46.7123  -24.5227   16.1989 O.2       9 UNK        -0.5108 
     45 CA        -47.5004  -23.2328   14.3419 C.3       8 UNK         0.0248 
     46 CB        -46.6463  -23.6660   13.1390 C.3       8 UNK        -0.2001 
     47 N         -48.7947  -22.7393   13.8565 N.am      8 UNK        -0.4140 
     48 C         -49.7839  -22.2515   14.6215 C.2       8 UNK         0.5028 
     49 O         -49.6906  -22.0902   15.8381 O.2       8 UNK        -0.5428 
     50 CA        -51.1390  -21.9807   13.9383 C.3       7 UNK         0.0264 
     51 CB        -51.2526  -20.5008   13.5415 C.3       7 UNK        -0.1988 
     52 N         -51.4142  -22.8182   12.7631 N.am      7 UNK        -0.4454 
     53 C         -51.3702  -24.1579   12.7134 C.2       7 UNK         0.5027 
     54 O         -51.1014  -24.8500   13.6995 O.2       7 UNK        -0.5083 
     55 CA        -51.6484  -24.8226   11.3461 C.3       6 UNK         0.0844 
     56 C56       -51.3996  -23.8739   10.1389 C.3       14 UNK        -0.0967 
     57 S57       -52.8471  -22.8344    9.7450 S.3       14 UNK        -0.2604 
     58 C58       -53.2556  -23.3767    8.0512 C.3       14 UNK         0.0134 
     59 N         -50.8619  -26.0482   11.2110 N.am      6 UNK        -0.4116 
     60 C         -51.1773  -27.2578   11.6960 C.2       5 UNK         0.5034 
     61 O         -52.2073  -27.5051   12.3271 O.2       5 UNK        -0.5045 
     62 CA        -50.1804  -28.4009   11.4258 C.3       5 UNK         0.0224 
     63 CB        -50.8676  -29.5568   10.6827 C.3       5 UNK        -0.1978 
     64 N         -49.0136  -27.9662   10.6494 N.am      5 UNK        -0.4737 
     65 C         -47.8542  -27.5625   11.1855 C.2       4 UNK         0.5027 
     66 O         -47.6235  -27.5546   12.3926 O.2       4 UNK        -0.5211 
     67 CA        -46.7729  -27.0592   10.2153 C.3       4 UNK         0.0297 
     68 CB        -45.8745  -28.2227    9.7697 C.3       4 UNK        -0.1993 
     69 N         -47.3065  -26.3625    9.0386 N.am      4 UNK        -0.4486 
     70 C         -47.9764  -25.1998    9.0915 C.2       3 UNK         0.4961 
     71 O         -48.2843  -24.6563   10.1528 O.2       3 UNK        -0.5105 
     72 CA        -48.4293  -24.5400    7.7713 C.3       3 UNK         0.0299 
     73 CB        -48.2124  -23.0125    7.7812 C.3       3 UNK        -0.1972 
     74 N         -47.8837  -25.1472    6.5537 N.am      3 UNK        -0.4305 
     75 C         -46.6089  -25.1873    6.1351 C.2       2 UNK         0.5006 
     76 O         -45.6731  -24.6319    6.7119 O.2       2 UNK        -0.5106 
     77 CA        -46.3498  -26.0316    4.8667 C.3       2 UNK         0.0296 
     78 CB        -44.8790  -26.4840    4.7402 C.3       2 UNK        -0.2002 
     79 N         -47.2624  -27.1821    4.7528 N.am      2 UNK        -0.4032 
     80 C         -47.4147  -28.1695    5.6501 C.2       1 UNK         0.5000 
     81 O         -46.7281  -28.2844    6.6670 O.2       1 UNK        -0.5238 
     82 H82       -47.5225  -32.3768    2.4220 H         1 UNK         0.0889 
     83 H83       -46.9788  -32.6171    4.0836 H         1 UNK         0.0889 
     84 H84       -45.9304  -31.7999    2.9225 H         1 UNK         0.0889 
     85 H85       -47.9021  -31.1682    5.5214 H         1 UNK         0.3028 
     86 H86       -49.2308  -28.7446    4.6453 H         1 UNK         0.0864 
     87 H87       -50.1713  -30.1869    6.4512 H         1 UNK         0.0720 
     88 H88       -48.7875  -29.8737    7.4530 H         1 UNK         0.0720 
     89 H89       -52.2211  -29.0439    6.5756 H         1 UNK         0.0814 
     90 H90       -51.7654  -27.7272    5.5179 H         1 UNK         0.0814 
     91 H91       -51.7629  -25.3021    6.8088 H         1 UNK         0.1469 
     92 H92       -55.3311  -24.7697    9.1265 H         1 UNK         0.1381 
     93 H93       -54.1523  -28.6970    7.8730 H         1 UNK         0.1206 
     94 H94       -56.4945  -28.2259    8.6870 H         1 UNK         0.0813 
     95 H95       -56.9064  -26.6357    9.2675 H         1 UNK         0.0813 
     96 H96       -55.2518  -29.9260    9.8145 H         1 UNK         0.0638 
     97 H97       -53.7892  -29.1689   10.4020 H         1 UNK         0.0638 
     98 H98       -55.8818  -30.4966   12.2025 H         1 UNK         0.0568 
     99 H99       -56.0015  -32.3271   10.6428 H         1 UNK         0.3450 
    100 H100      -54.7166  -33.5059   10.6640 H         1 UNK         0.3450 
    101 H101      -53.6223  -28.8903   12.8513 H         1 UNK         0.2987 
    102 H102      -53.9841  -29.4778   16.3317 H         1 UNK         0.0766 
    103 H103      -51.5209  -29.3477   16.3508 H         1 UNK         0.0798 
    104 H104      -51.4465  -29.6746   14.6165 H         1 UNK         0.0798 
    105 H105      -52.0086  -30.9139   15.7300 H         1 UNK         0.0798 
    106 H106      -52.5782  -27.5070   14.7841 H         1 UNK         0.3198 
    107 H107      -53.8633  -25.6861   13.6638 H         1 UNK         0.0843 
    108 H108      -56.0678  -24.7292   15.5615 H         1 UNK         0.0831 
    109 H109      -56.2673  -25.2134   13.8859 H         1 UNK         0.0831 
    110 H110      -55.3382  -23.7732   14.2711 H         1 UNK         0.0831 
    111 H111      -52.3770  -24.8344   15.0504 H         1 UNK         0.3133 
    112 H112      -52.0979  -23.1011   17.2307 H         1 UNK         0.0566 
    113 H113      -51.1828  -23.7863   19.4565 H         1 UNK         0.0814 
    114 H114      -52.9374  -23.7575   19.4534 H         1 UNK         0.0814 
    115 H115      -52.0915  -25.2950   19.3681 H         1 UNK         0.0814 
    116 H116      -50.2088  -23.9655   16.5146 H         1 UNK         0.3091 
    117 H117      -48.2847  -26.3127   17.0167 H         1 UNK         0.0702 
    118 H118      -49.2807  -28.4084   16.1435 H         1 UNK         0.0785 
    119 H119      -49.8329  -27.5763   14.6909 H         1 UNK         0.0785 
    120 H120      -48.1099  -27.7855   15.0003 H         1 UNK         0.0785 
    121 H121      -49.3804  -24.9903   14.5664 H         1 UNK         0.2998 
    122 H122      -47.0001  -22.4002   14.8404 H         1 UNK         0.0697 
    123 H123      -47.0979  -24.5051   12.6075 H         1 UNK         0.0825 
    124 H124      -45.6531  -23.9834   13.4596 H         1 UNK         0.0825 
    125 H125      -46.5113  -22.8512   12.4274 H         1 UNK         0.0825 
    126 H126      -48.9688  -22.8421   12.8674 H         1 UNK         0.3029 
    127 H127      -51.9165  -22.1962   14.6740 H         1 UNK         0.0897 
    128 H128      -50.5249  -20.2307   12.7752 H         1 UNK         0.0792 
    129 H129      -51.0778  -19.8512   14.4007 H         1 UNK         0.0792 
    130 H130      -52.2465  -20.2665   13.1594 H         1 UNK         0.0792 
    131 H131      -51.6812  -22.3307   11.9173 H         1 UNK         0.3086 
    132 H132      -52.7014  -25.1130   11.3449 H         1 UNK         0.0583 
    133 H133      -50.5222  -23.2404   10.2811 H         1 UNK         0.1020 
    134 H134      -51.1628  -24.4667    9.2582 H         1 UNK         0.1020 
    135 H135      -54.1392  -22.8358    7.7094 H         1 UNK         0.0694 
    136 H136      -52.4427  -23.0908    7.3817 H         1 UNK         0.0694 
    137 H137      -49.9504  -25.9363   10.7872 H         1 UNK         0.2989 
    138 H138      -49.8539  -28.7758   12.3983 H         1 UNK         0.1055 
    139 H139      -51.6466  -29.9974   11.3033 H         1 UNK         0.0806 
    140 H140      -50.1639  -30.3527   10.4390 H         1 UNK         0.0806 
    141 H141      -51.3383  -29.2251    9.7571 H         1 UNK         0.0806 
    142 H142      -49.1201  -27.9388    9.6432 H         1 UNK         0.3061 
    143 H143      -46.1527  -26.3450   10.7614 H         1 UNK         0.0734 
    144 H144      -45.0774  -27.8811    9.1091 H         1 UNK         0.0832 
    145 H145      -45.4023  -28.7011   10.6289 H         1 UNK         0.0832 
    146 H146      -46.4416  -28.9905    9.2418 H         1 UNK         0.0832 
    147 H147      -47.1096  -26.7839    8.1370 H         1 UNK         0.3156 
    148 H148      -49.5029  -24.7132    7.7109 H         1 UNK         0.0589 
    149 H149      -47.1605  -22.7535    7.9041 H         1 UNK         0.0808 
    150 H150      -48.5658  -22.5549    6.8574 H         1 UNK         0.0808 
    151 H151      -48.7568  -22.5422    8.6007 H         1 UNK         0.0808 
    152 H152      -48.5588  -25.6495    5.9947 H         1 UNK         0.3098 
    153 H153      -46.5685  -25.3795    4.0198 H         1 UNK         0.0720 
    154 H154      -44.7225  -27.0750    3.8378 H         1 UNK         0.0791 
    155 H155      -44.5647  -27.0858    5.5937 H         1 UNK         0.0791 
    156 H156      -44.2086  -25.6255    4.6844 H         1 UNK         0.0791 
    157 H157      -47.8431  -27.2005    3.9245 H         1 UNK         0.3028 
@<TRIPOS>BOND
     1    1    2 1    
     2    1   82 1    
     3    1   83 1    
     4    1   84 1    
     5    2    3 2    
     6    2    4 am   BACKBONE|DICT|INTERRES
     7    4    5 1    
     8    4   85 1    
     9    5    6 1    
    10    5   80 1    
    11    5   86 1    
    12    6    7 1    
    13    6   87 1    
    14    6   88 1    
    15    7    8 1    
    16    8    9 1    
    17    8   89 1    
    18    8   90 1    
    19    9   10 ar   
    20    9   14 ar   
    21   10   11 ar   
    22   10   91 1    
    23   11   12 ar   
    24   11   58 1    
    25   12   13 ar   
    26   12   92 1    
    27   13   14 ar   
    28   13   15 1    
    29   14   93 1    
    30   15   16 1    
    31   15   94 1    
    32   15   95 1    
    33   16   17 1    
    34   17   18 1    
    35   17   96 1    
    36   17   97 1    
    37   18   19 1    
    38   18   22 1    
    39   18   98 1    
    40   19   20 am   BACKBONE|DICT|INTERRES
    41   19   21 2    
    42   20   99 1    
    43   20  100 1    
    44   22   23 am   BACKBONE|DICT|INTERRES
    45   22  101 1    
    46   23   24 2    
    47   23   25 1    
    48   25   26 1    
    49   25   27 1    
    50   25  102 1    
    51   26  103 1    
    52   26  104 1    
    53   26  105 1    
    54   27   28 am   BACKBONE|DICT|INTERRES
    55   27  106 1    
    56   28   29 2    
    57   28   30 1    
    58   30   31 1    
    59   30   32 1    
    60   30  107 1    
    61   31  108 1    
    62   31  109 1    
    63   31  110 1    
    64   32   33 am   BACKBONE|DICT|INTERRES
    65   32  111 1    
    66   33   34 2    
    67   33   35 1    
    68   35   36 1    
    69   35   37 1    
    70   35  112 1    
    71   36  113 1    
    72   36  114 1    
    73   36  115 1    
    74   37   38 am   BACKBONE|DICT|INTERRES
    75   37  116 1    
    76   38   39 2    
    77   38   40 1    
    78   40   41 1    
    79   40   42 1    
    80   40  117 1    
    81   41  118 1    
    82   41  119 1    
    83   41  120 1    
    84   42   43 am   BACKBONE|DICT|INTERRES
    85   42  121 1    
    86   43   44 2    
    87   43   45 1    
    88   45   46 1    
    89   45   47 1    
    90   45  122 1    
    91   46  123 1    
    92   46  124 1    
    93   46  125 1    
    94   47   48 am   BACKBONE|DICT|INTERRES
    95   47  126 1    
    96   48   49 2    
    97   48   50 1    
    98   50   51 1    
    99   50   52 1    
   100   50  127 1    
   101   51  128 1    
   102   51  129 1    
   103   51  130 1    
   104   52   53 am   BACKBONE|DICT|INTERRES
   105   52  131 1    
   106   53   54 2    
   107   53   55 1    
   108   55   56 1    
   109   55   59 1    
   110   55  132 1    
   111   56   57 1    
   112   56  133 1    
   113   56  134 1    
   114   57   58 1    
   115   58  135 1    
   116   58  136 1    
   117   59   60 am   BACKBONE|DICT|INTERRES
   118   59  137 1    
   119   60   61 2    
   120   60   62 1    
   121   62   63 1    
   122   62   64 1    
   123   62  138 1    
   124   63  139 1    
   125   63  140 1    
   126   63  141 1    
   127   64   65 am   BACKBONE|DICT|INTERRES
   128   64  142 1    
   129   65   66 2    
   130   65   67 1    
   131   67   68 1    
   132   67   69 1    
   133   67  143 1    
   134   68  144 1    
   135   68  145 1    
   136   68  146 1    
   137   69   70 am   BACKBONE|DICT|INTERRES
   138   69  147 1    
   139   70   71 2    
   140   70   72 1    
   141   72   73 1    
   142   72   74 1    
   143   72  148 1    
   144   73  149 1    
   145   73  150 1    
   146   73  151 1    
   147   74   75 am   BACKBONE|DICT|INTERRES
   148   74  152 1    
   149   75   76 2    
   150   75   77 1    
   151   77   78 1    
   152   77   79 1    
   153   77  153 1    
   154   78  154 1    
   155   78  155 1    
   156   78  156 1    
   157   79   80 am   BACKBONE|DICT|INTERRES
   158   79  157 1    
   159   80   81 2    
@<TRIPOS>SUBSTRUCTURE
     1 UNK         1 GROUP             0       ****    0 ROOT    
