@<TRIPOS>MOLECULE
3R207
157   159    1
SMALL
USER_CHARGES


@<TRIPOS>ATOM
      1 CA        -48.6322  -28.5682    8.8133 C.3       0 UNK        -0.1975 
      2 C         -48.5406  -28.2776    7.3312 C.2       0 UNK         0.4852 
      3 O         -47.6286  -27.5785    6.8875 O.2       0 UNK        -0.5216 
      4 N         -49.4887  -28.8293    6.5720 N.am      1 UNK        -0.4461 
      5 CA        -49.5597  -28.7848    5.1125 C.3       1 UNK         0.0864 
      6 C6        -50.6919  -29.6942    4.5780 C.3       14 UNK        -0.0898 
      7 S7        -50.5767  -31.3935    5.2440 S.3       14 UNK        -0.2598 
      8 C8        -52.0949  -31.5295    6.2436 C.3       14 UNK         0.0286 
      9 C9        -52.0816  -30.6786    7.5112 C.ar      14 UNK        -0.0844 
     10 C10       -51.5099  -31.1700    8.6938 C.ar      14 UNK        -0.0881 
     11 C11       -51.6270  -30.4533    9.8923 C.ar      14 UNK        -0.0643 
     12 C12       -52.3280  -29.2485    9.8912 C.ar      14 UNK        -0.0930 
     13 C13       -52.8237  -28.6996    8.7085 C.ar      14 UNK        -0.0827 
     14 C14       -52.7120  -29.4282    7.5216 C.ar      14 UNK        -0.1249 
     15 C15       -53.5087  -27.3387    8.7348 C.3       14 UNK         0.0141 
     16 S16       -52.5310  -26.1098    9.6695 S.3       14 UNK        -0.2313 
     17 C17       -53.8243  -25.0616   10.4113 C.3       14 UNK        -0.0915 
     18 CA        -54.0625  -25.3813   11.9199 C.3       13 UNK         0.0968 
     19 C         -54.8768  -24.2751   12.6603 C.2       13 UNK         0.5732 
     20 N         -55.7229  -24.6005   13.6327 N.am      13 UNK        -0.7310 
     21 O         -54.7171  -23.0908   12.3756 O.2       13 UNK        -0.5035 
     22 N         -54.5469  -26.7494   12.1733 N.am      13 UNK        -0.4233 
     23 C         -55.7072  -27.2740   11.7499 C.2       13 UNK         0.4989 
     24 O         -56.4782  -26.7118   10.9720 O.2       13 UNK        -0.4996 
     25 CA        -56.1005  -28.6564   12.3082 C.3       12 UNK         0.0216 
     26 CB        -55.7601  -29.7709   11.3052 C.3       12 UNK        -0.1964 
     27 N         -55.4956  -28.9687   13.6077 N.am      12 UNK        -0.4276 
     28 C         -55.7170  -28.2833   14.7378 C.2       12 UNK         0.5020 
     29 O         -56.5035  -27.3357   14.8122 O.2       12 UNK        -0.5489 
     30 CA        -54.9039  -28.6839   15.9859 C.3       11 UNK         0.0294 
     31 CB        -53.7796  -29.7115   15.7125 C.3       11 UNK        -0.2019 
     32 N         -54.3572  -27.5021   16.6631 N.am      11 UNK        -0.4493 
     33 C         -53.5473  -26.5739   16.1314 C.2       11 UNK         0.4932 
     34 O         -53.1235  -26.6140   14.9749 O.2       11 UNK        -0.5029 
     35 CA        -53.1569  -25.3838   17.0287 C.3       10 UNK         0.0280 
     36 CB        -54.1303  -25.1240   18.2011 C.3       10 UNK        -0.1976 
     37 N         -51.7732  -25.4923   17.5008 N.am      10 UNK        -0.4242 
     38 C         -51.2374  -26.4670   18.2559 C.2       10 UNK         0.5072 
     39 O         -51.8930  -27.3870   18.7481 O.2       10 UNK        -0.5224 
     40 CA        -49.7168  -26.4131   18.5128 C.3       9 UNK         0.0343 
     41 CB        -49.0867  -27.8183   18.5064 C.3       9 UNK        -0.2003 
     42 N         -49.0413  -25.5959   17.5055 N.am      9 UNK        -0.4272 
     43 C         -48.3439  -24.4750   17.7372 C.2       9 UNK         0.4988 
     44 O         -48.1000  -24.0397   18.8630 O.2       9 UNK        -0.5108 
     45 CA        -47.8510  -23.6824   16.5072 C.3       8 UNK         0.0248 
     46 CB        -46.3773  -24.0075   16.2154 C.3       8 UNK        -0.2001 
     47 N         -48.6413  -23.9165   15.2937 N.am      8 UNK        -0.4140 
     48 C         -49.9530  -23.6640   15.1675 C.2       8 UNK         0.5028 
     49 O         -50.6231  -23.1001   16.0329 O.2       8 UNK        -0.5428 
     50 CA        -50.6637  -24.2036   13.9145 C.3       7 UNK         0.0264 
     51 CB        -50.9024  -23.0741   12.9008 C.3       7 UNK        -0.1988 
     52 N         -49.9835  -25.3303   13.2601 N.am      7 UNK        -0.4454 
     53 C         -49.7132  -26.5150   13.8414 C.2       7 UNK         0.5027 
     54 O         -49.9364  -26.7541   15.0278 O.2       7 UNK        -0.5083 
     55 CA        -49.0618  -27.6218   12.9829 C.3       6 UNK         0.0844 
     56 C56       -50.1655  -28.5707   12.4569 C.3       14 UNK        -0.0967 
     57 S57       -49.5206  -30.1108   11.7150 S.3       14 UNK        -0.2604 
     58 C58       -51.0443  -30.9848   11.1997 C.3       14 UNK         0.0134 
     59 N         -48.2343  -27.0840   11.8974 N.am      6 UNK        -0.4116 
     60 C         -47.1527  -26.3066   12.0497 C.2       5 UNK         0.5034 
     61 O         -46.6689  -26.0141   13.1437 O.2       5 UNK        -0.5045 
     62 CA        -46.5313  -25.7103   10.7709 C.3       5 UNK         0.0224 
     63 CB        -45.3142  -26.5344   10.3211 C.3       5 UNK        -0.1978 
     64 N         -47.4543  -25.5469    9.6370 N.am      5 UNK        -0.4737 
     65 C         -48.5790  -24.8139    9.6459 C.2       4 UNK         0.5027 
     66 O         -49.0338  -24.2970   10.6650 O.2       4 UNK        -0.5211 
     67 CA        -49.3256  -24.6535    8.3059 C.3       4 UNK         0.0297 
     68 CB        -50.2227  -23.3986    8.2698 C.3       4 UNK        -0.1993 
     69 N         -48.4405  -24.7039    7.1367 N.am      4 UNK        -0.4486 
     70 C         -47.4360  -23.8699    6.8257 C.2       3 UNK         0.4961 
     71 O         -47.1345  -22.8727    7.4817 O.2       3 UNK        -0.5105 
     72 CA        -46.6025  -24.2214    5.5799 C.3       3 UNK         0.0299 
     73 CB        -45.2983  -24.9234    5.9938 C.3       3 UNK        -0.1972 
     74 N         -47.3239  -25.0708    4.6275 N.am      3 UNK        -0.4305 
     75 C         -48.2662  -24.6300    3.7800 C.2       2 UNK         0.5006 
     76 O         -48.5870  -23.4459    3.6714 O.2       2 UNK        -0.5106 
     77 CA        -48.9763  -25.6800    2.9030 C.3       2 UNK         0.0296 
     78 CB        -48.3144  -25.7583    1.5173 C.3       2 UNK        -0.2002 
     79 N         -49.0146  -27.0204    3.4983 N.am      2 UNK        -0.4032 
     80 C         -49.7109  -27.3399    4.5981 C.2       1 UNK         0.5000 
     81 O         -50.4340  -26.5460    5.2055 O.2       1 UNK        -0.5238 
     82 H82       -48.9076  -29.6107    8.9666 H         1 UNK         0.0889 
     83 H83       -49.3902  -27.9384    9.2773 H         1 UNK         0.0889 
     84 H84       -47.6729  -28.4081    9.3008 H         1 UNK         0.0889 
     85 H85       -50.2280  -29.3616    7.0127 H         1 UNK         0.3028 
     86 H86       -48.6090  -29.1771    4.7447 H         1 UNK         0.0864 
     87 H87       -51.6716  -29.2731    4.8071 H         1 UNK         0.0720 
     88 H88       -50.6411  -29.7584    3.4895 H         1 UNK         0.0720 
     89 H89       -52.2317  -32.5765    6.5183 H         1 UNK         0.0814 
     90 H90       -52.9564  -31.2741    5.6243 H         1 UNK         0.0814 
     91 H91       -51.0076  -32.1280    8.6880 H         1 UNK         0.1469 
     92 H92       -52.4923  -28.7210   10.8170 H         1 UNK         0.1381 
     93 H93       -53.1457  -29.0346    6.6127 H         1 UNK         0.1206 
     94 H94       -54.4965  -27.4596    9.1761 H         1 UNK         0.0813 
     95 H95       -53.6639  -26.9613    7.7231 H         1 UNK         0.0813 
     96 H96       -54.7464  -25.1325    9.8340 H         1 UNK         0.0638 
     97 H97       -53.4809  -24.0328   10.2917 H         1 UNK         0.0638 
     98 H98       -53.0864  -25.3463   12.4031 H         1 UNK         0.0568 
     99 H99       -55.8710  -25.5659   13.9026 H         1 UNK         0.3450 
    100 H100      -56.2312  -23.8679   14.1005 H         1 UNK         0.3450 
    101 H101      -54.0192  -27.2563   12.8705 H         1 UNK         0.2987 
    102 H102      -57.1840  -28.6448   12.4445 H         1 UNK         0.0766 
    103 H103      -56.1582  -29.5449   10.3148 H         1 UNK         0.0798 
    104 H104      -56.1889  -30.7245   11.6135 H         1 UNK         0.0798 
    105 H105      -54.6848  -29.9082   11.2000 H         1 UNK         0.0798 
    106 H106      -54.8377  -29.7341   13.6340 H         1 UNK         0.3198 
    107 H107      -55.6132  -29.1396   16.6785 H         1 UNK         0.0843 
    108 H108      -53.0532  -29.3461   14.9853 H         1 UNK         0.0831 
    109 H109      -54.1810  -30.6566   15.3448 H         1 UNK         0.0831 
    110 H110      -53.2328  -29.9388   16.6280 H         1 UNK         0.0831 
    111 H111      -54.6547  -27.3665   17.6187 H         1 UNK         0.3133 
    112 H112      -53.1879  -24.5027   16.3858 H         1 UNK         0.0566 
    113 H113      -53.8776  -24.1969   18.7156 H         1 UNK         0.0814 
    114 H114      -54.1185  -25.9218   18.9440 H         1 UNK         0.0814 
    115 H115      -55.1554  -25.0193   17.8426 H         1 UNK         0.0814 
    116 H116      -51.1521  -24.7730   17.1469 H         1 UNK         0.3091 
    117 H117      -49.5843  -25.9816   19.5067 H         1 UNK         0.0702 
    118 H118      -48.0130  -27.7713   18.6885 H         1 UNK         0.0785 
    119 H119      -49.2437  -28.3216   17.5513 H         1 UNK         0.0785 
    120 H120      -49.5180  -28.4487   19.2851 H         1 UNK         0.0785 
    121 H121      -49.2096  -25.8854   16.5438 H         1 UNK         0.2998 
    122 H122      -47.9287  -22.6210   16.7512 H         1 UNK         0.0697 
    123 H123      -46.2432  -25.0534   15.9354 H         1 UNK         0.0825 
    124 H124      -45.7544  -23.8211   17.0914 H         1 UNK         0.0825 
    125 H125      -45.9869  -23.3917   15.4049 H         1 UNK         0.0825 
    126 H126      -48.1760  -24.4001   14.5371 H         1 UNK         0.3029 
    127 H127      -51.6379  -24.5689   14.2417 H         1 UNK         0.0897 
    128 H128      -49.9644  -22.6319   12.5630 H         1 UNK         0.0792 
    129 H129      -51.5000  -22.2750   13.3415 H         1 UNK         0.0792 
    130 H130      -51.4392  -23.4312   12.0217 H         1 UNK         0.0792 
    131 H131      -49.7061  -25.1742   12.2940 H         1 UNK         0.3086 
    132 H132      -48.4037  -28.1902   13.6435 H         1 UNK         0.0583 
    133 H133      -50.8518  -28.8548   13.2584 H         1 UNK         0.1020 
    134 H134      -50.7518  -28.0263   11.7208 H         1 UNK         0.1020 
    135 H135      -50.8108  -32.0453   11.0953 H         1 UNK         0.0694 
    136 H136      -51.7906  -30.9182   11.9928 H         1 UNK         0.0694 
    137 H137      -48.5525  -27.2698   10.9602 H         1 UNK         0.2989 
    138 H138      -46.1811  -24.7104   11.0368 H         1 UNK         0.1055 
    139 H139      -44.8025  -26.0619    9.4823 H         1 UNK         0.0806 
    140 H140      -45.5922  -27.5441   10.0191 H         1 UNK         0.0806 
    141 H141      -44.5868  -26.6270   11.1291 H         1 UNK         0.0806 
    142 H142      -47.1627  -25.9428    8.7528 H         1 UNK         0.3061 
    143 H143      -49.9775  -25.5232    8.2186 H         1 UNK         0.0734 
    144 H144      -49.6462  -22.4836    8.4075 H         1 UNK         0.0832 
    145 H145      -50.7580  -23.3224    7.3235 H         1 UNK         0.0832 
    146 H146      -50.9717  -23.4308    9.0620 H         1 UNK         0.0832 
    147 H147      -48.5712  -25.5098    6.5371 H         1 UNK         0.3156 
    148 H148      -46.3400  -23.2847    5.0832 H         1 UNK         0.0589 
    149 H149      -45.4894  -25.8763    6.4891 H         1 UNK         0.0808 
    150 H150      -44.7258  -24.3059    6.6875 H         1 UNK         0.0808 
    151 H151      -44.6599  -25.1153    5.1313 H         1 UNK         0.0808 
    152 H152      -47.1248  -26.0609    4.6623 H         1 UNK         0.3098 
    153 H153      -50.0073  -25.3453    2.7682 H         1 UNK         0.0720 
    154 H154      -48.2984  -24.7789    1.0369 H         1 UNK         0.0791 
    155 H155      -48.8579  -26.4321    0.8545 H         1 UNK         0.0791 
    156 H156      -47.2826  -26.1065    1.5803 H         1 UNK         0.0791 
    157 H157      -48.4525  -27.7299    3.0494 H         1 UNK         0.3028 
@<TRIPOS>BOND
     1    1    2 1    
     2    1   82 1    
     3    1   83 1    
     4    1   84 1    
     5    2    3 2    
     6    2    4 am   BACKBONE|DICT|INTERRES
     7    4    5 1    
     8    4   85 1    
     9    5    6 1    
    10    5   80 1    
    11    5   86 1    
    12    6    7 1    
    13    6   87 1    
    14    6   88 1    
    15    7    8 1    
    16    8    9 1    
    17    8   89 1    
    18    8   90 1    
    19    9   10 ar   
    20    9   14 ar   
    21   10   11 ar   
    22   10   91 1    
    23   11   12 ar   
    24   11   58 1    
    25   12   13 ar   
    26   12   92 1    
    27   13   14 ar   
    28   13   15 1    
    29   14   93 1    
    30   15   16 1    
    31   15   94 1    
    32   15   95 1    
    33   16   17 1    
    34   17   18 1    
    35   17   96 1    
    36   17   97 1    
    37   18   19 1    
    38   18   22 1    
    39   18   98 1    
    40   19   20 am   BACKBONE|DICT|INTERRES
    41   19   21 2    
    42   20   99 1    
    43   20  100 1    
    44   22   23 am   BACKBONE|DICT|INTERRES
    45   22  101 1    
    46   23   24 2    
    47   23   25 1    
    48   25   26 1    
    49   25   27 1    
    50   25  102 1    
    51   26  103 1    
    52   26  104 1    
    53   26  105 1    
    54   27   28 am   BACKBONE|DICT|INTERRES
    55   27  106 1    
    56   28   29 2    
    57   28   30 1    
    58   30   31 1    
    59   30   32 1    
    60   30  107 1    
    61   31  108 1    
    62   31  109 1    
    63   31  110 1    
    64   32   33 am   BACKBONE|DICT|INTERRES
    65   32  111 1    
    66   33   34 2    
    67   33   35 1    
    68   35   36 1    
    69   35   37 1    
    70   35  112 1    
    71   36  113 1    
    72   36  114 1    
    73   36  115 1    
    74   37   38 am   BACKBONE|DICT|INTERRES
    75   37  116 1    
    76   38   39 2    
    77   38   40 1    
    78   40   41 1    
    79   40   42 1    
    80   40  117 1    
    81   41  118 1    
    82   41  119 1    
    83   41  120 1    
    84   42   43 am   BACKBONE|DICT|INTERRES
    85   42  121 1    
    86   43   44 2    
    87   43   45 1    
    88   45   46 1    
    89   45   47 1    
    90   45  122 1    
    91   46  123 1    
    92   46  124 1    
    93   46  125 1    
    94   47   48 am   BACKBONE|DICT|INTERRES
    95   47  126 1    
    96   48   49 2    
    97   48   50 1    
    98   50   51 1    
    99   50   52 1    
   100   50  127 1    
   101   51  128 1    
   102   51  129 1    
   103   51  130 1    
   104   52   53 am   BACKBONE|DICT|INTERRES
   105   52  131 1    
   106   53   54 2    
   107   53   55 1    
   108   55   56 1    
   109   55   59 1    
   110   55  132 1    
   111   56   57 1    
   112   56  133 1    
   113   56  134 1    
   114   57   58 1    
   115   58  135 1    
   116   58  136 1    
   117   59   60 am   BACKBONE|DICT|INTERRES
   118   59  137 1    
   119   60   61 2    
   120   60   62 1    
   121   62   63 1    
   122   62   64 1    
   123   62  138 1    
   124   63  139 1    
   125   63  140 1    
   126   63  141 1    
   127   64   65 am   BACKBONE|DICT|INTERRES
   128   64  142 1    
   129   65   66 2    
   130   65   67 1    
   131   67   68 1    
   132   67   69 1    
   133   67  143 1    
   134   68  144 1    
   135   68  145 1    
   136   68  146 1    
   137   69   70 am   BACKBONE|DICT|INTERRES
   138   69  147 1    
   139   70   71 2    
   140   70   72 1    
   141   72   73 1    
   142   72   74 1    
   143   72  148 1    
   144   73  149 1    
   145   73  150 1    
   146   73  151 1    
   147   74   75 am   BACKBONE|DICT|INTERRES
   148   74  152 1    
   149   75   76 2    
   150   75   77 1    
   151   77   78 1    
   152   77   79 1    
   153   77  153 1    
   154   78  154 1    
   155   78  155 1    
   156   78  156 1    
   157   79   80 am   BACKBONE|DICT|INTERRES
   158   79  157 1    
   159   80   81 2    
@<TRIPOS>SUBSTRUCTURE
     1 UNK         1 GROUP             0       ****    0 ROOT    
