@<TRIPOS>MOLECULE
3R207
157   159    1
SMALL
USER_CHARGES


@<TRIPOS>ATOM
      1 CA        -45.9914  -29.3498   11.1113 C.3       0 UNK        -0.1975 
      2 C         -46.7454  -28.5108   10.0916 C.2       0 UNK         0.4852 
      3 O         -47.7089  -27.8388   10.4541 O.2       0 UNK        -0.5216 
      4 N         -46.3137  -28.5501    8.8210 N.am      1 UNK        -0.4461 
      5 CA        -46.8888  -27.8085    7.6871 C.3       1 UNK         0.0864 
      6 C6        -48.3181  -28.2785    7.3089 C.3       14 UNK        -0.0898 
      7 S7        -48.3859  -30.0156    6.7562 S.3       14 UNK        -0.2598 
      8 C8        -49.0566  -30.8693    8.2297 C.3       14 UNK         0.0286 
      9 C9        -50.5124  -30.5716    8.6049 C.ar      14 UNK        -0.0844 
     10 C10       -51.3186  -29.6635    7.9065 C.ar      14 UNK        -0.0881 
     11 C11       -52.6286  -29.4088    8.3172 C.ar      14 UNK        -0.0643 
     12 C12       -53.1560  -30.1052    9.4076 C.ar      14 UNK        -0.0930 
     13 C13       -52.3762  -31.0297   10.1134 C.ar      14 UNK        -0.0827 
     14 C14       -51.0558  -31.2437    9.7049 C.ar      14 UNK        -0.1249 
     15 C15       -52.9089  -31.8513   11.2918 C.3       14 UNK         0.0141 
     16 S16       -54.6015  -31.4609   11.8636 S.3       14 UNK        -0.2313 
     17 C17       -54.3495  -30.0142   12.9517 C.3       14 UNK        -0.0915 
     18 CA        -55.0573  -28.7122   12.4814 C.3       13 UNK         0.0968 
     19 C         -56.6139  -28.7789   12.5978 C.2       13 UNK         0.5732 
     20 N         -57.2750  -27.9312   13.3792 N.am      13 UNK        -0.7310 
     21 O         -57.2483  -29.6009   11.9444 O.2       13 UNK        -0.5035 
     22 N         -54.4536  -27.5530   13.1505 N.am      13 UNK        -0.4233 
     23 C         -54.5405  -26.2828   12.7376 C.2       13 UNK         0.4989 
     24 O         -55.0749  -25.9363   11.6829 O.2       13 UNK        -0.4996 
     25 CA        -53.9565  -25.2334   13.7051 C.3       12 UNK         0.0216 
     26 CB        -54.3047  -23.7833   13.3086 C.3       12 UNK        -0.1964 
     27 N         -54.3194  -25.5010   15.1054 N.am      12 UNK        -0.4276 
     28 C         -55.5590  -25.5827   15.6193 C.2       12 UNK         0.5020 
     29 O         -56.5802  -25.4326   14.9479 O.2       12 UNK        -0.5489 
     30 CA        -55.7146  -25.9460   17.1113 C.3       11 UNK         0.0294 
     31 CB        -56.5116  -27.2545   17.2643 C.3       11 UNK        -0.2019 
     32 N         -54.4444  -26.0915   17.8239 N.am      11 UNK        -0.4493 
     33 C         -53.6547  -25.0865   18.2257 C.2       11 UNK         0.4932 
     34 O         -53.9535  -23.8971   18.1207 O.2       11 UNK        -0.5029 
     35 CA        -52.2820  -25.4750   18.8112 C.3       10 UNK         0.0280 
     36 CB        -52.3206  -25.4150   20.3469 C.3       10 UNK        -0.1976 
     37 N         -51.7914  -26.7967   18.3898 N.am      10 UNK        -0.4242 
     38 C         -51.5483  -27.1643   17.1240 C.2       10 UNK         0.5072 
     39 O         -51.7424  -26.4353   16.1454 O.2       10 UNK        -0.5224 
     40 CA        -51.0714  -28.6048   16.9091 C.3       9 UNK         0.0343 
     41 CB        -52.2535  -29.5911   16.9552 C.3       9 UNK        -0.2003 
     42 N         -50.4362  -28.6656   15.6008 N.am      9 UNK        -0.4272 
     43 C         -49.4430  -29.4800   15.2285 C.2       9 UNK         0.4988 
     44 O         -48.9744  -30.3652   15.9452 O.2       9 UNK        -0.5108 
     45 CA        -48.8731  -29.2704   13.8137 C.3       8 UNK         0.0248 
     46 CB        -49.4547  -30.3090   12.8422 C.3       8 UNK        -0.2001 
     47 N         -49.1592  -27.9345   13.2902 N.am      8 UNK        -0.4140 
     48 C         -48.5520  -26.7987   13.6534 C.2       8 UNK         0.5028 
     49 O         -47.6044  -26.7629   14.4411 O.2       8 UNK        -0.5428 
     50 CA        -49.1130  -25.4847   13.0604 C.3       7 UNK         0.0264 
     51 CB        -48.1064  -24.3228   13.1507 C.3       7 UNK        -0.1988 
     52 N         -49.5743  -25.5985   11.6715 N.am      7 UNK        -0.4454 
     53 C         -50.6992  -26.1985   11.2555 C.2       7 UNK         0.5027 
     54 O         -51.4533  -26.7986   12.0221 O.2       7 UNK        -0.5083 
     55 CA        -51.0014  -26.1617    9.7420 C.3       6 UNK         0.0844 
     56 C56       -52.5003  -26.4142    9.4094 C.3       14 UNK        -0.0967 
     57 S57       -52.7511  -26.7028    7.6218 S.3       14 UNK        -0.2604 
     58 C58       -53.4785  -28.3771    7.5856 C.3       14 UNK         0.0134 
     59 N         -50.4529  -24.9614    9.0942 N.am      6 UNK        -0.4116 
     60 C         -50.8686  -23.6975    9.2824 C.2       5 UNK         0.5034 
     61 O         -51.7517  -23.3733   10.0769 O.2       5 UNK        -0.5045 
     62 CA        -50.1857  -22.5958    8.4534 C.3       5 UNK         0.0224 
     63 CB        -49.1846  -21.8154    9.3190 C.3       5 UNK        -0.1978 
     64 N         -49.5091  -23.1272    7.2667 N.am      5 UNK        -0.4737 
     65 C         -50.1366  -23.4434    6.1250 C.2       4 UNK         0.5027 
     66 O         -51.3252  -23.1954    5.9183 O.2       4 UNK        -0.5211 
     67 CA        -49.3189  -24.1930    5.0534 C.3       4 UNK         0.0297 
     68 CB        -49.8514  -23.9689    3.6216 C.3       4 UNK        -0.1993 
     69 N         -47.8732  -23.9520    5.1325 N.am      4 UNK        -0.4486 
     70 C         -47.2137  -22.8072    4.9008 C.2       3 UNK         0.4961 
     71 O         -47.7498  -21.7599    4.5349 O.2       3 UNK        -0.5105 
     72 CA        -45.6875  -22.8621    5.1279 C.3       3 UNK         0.0299 
     73 CB        -45.0290  -21.4655    5.1527 C.3       3 UNK        -0.1972 
     74 N         -45.3181  -23.6428    6.3192 N.am      3 UNK        -0.4305 
     75 C         -45.6767  -23.3863    7.5872 C.2       2 UNK         0.5006 
     76 O         -46.3414  -22.4081    7.9276 O.2       2 UNK        -0.5106 
     77 CA        -45.2531  -24.4336    8.6358 C.3       2 UNK         0.0296 
     78 CB        -45.8020  -24.1326   10.0465 C.3       2 UNK        -0.2002 
     79 N         -45.5980  -25.8088    8.2512 N.am      2 UNK        -0.4032 
     80 C         -46.8130  -26.2834    7.9276 C.2       1 UNK         0.5000 
     81 O         -47.8286  -25.5856    7.8414 O.2       1 UNK        -0.5238 
     82 H82       -45.0463  -29.7204   10.7153 H         1 UNK         0.0889 
     83 H83       -46.5948  -30.2048   11.4132 H         1 UNK         0.0889 
     84 H84       -45.7776  -28.7544   11.9985 H         1 UNK         0.0889 
     85 H85       -45.5226  -29.1363    8.5927 H         1 UNK         0.3028 
     86 H86       -46.2440  -28.0044    6.8290 H         1 UNK         0.0864 
     87 H87       -48.9942  -28.1386    8.1486 H         1 UNK         0.0720 
     88 H88       -48.7184  -27.6722    6.4947 H         1 UNK         0.0720 
     89 H89       -48.4207  -30.6450    9.0847 H         1 UNK         0.0814 
     90 H90       -48.9632  -31.9417    8.0577 H         1 UNK         0.0814 
     91 H91       -50.9381  -29.1280    7.0497 H         1 UNK         0.1469 
     92 H92       -54.1811  -29.9235    9.6907 H         1 UNK         0.1381 
     93 H93       -50.4447  -31.9547   10.2446 H         1 UNK         0.1206 
     94 H94       -52.9031  -32.9000   10.9915 H         1 UNK         0.0813 
     95 H95       -52.2222  -31.7794   12.1355 H         1 UNK         0.0813 
     96 H96       -53.2757  -29.8376   13.0270 H         1 UNK         0.0638 
     97 H97       -54.6744  -30.2805   13.9581 H         1 UNK         0.0638 
     98 H98       -54.8483  -28.5889   11.4194 H         1 UNK         0.0568 
     99 H99       -58.2782  -27.9969   13.4192 H         1 UNK         0.3450 
    100 H100      -56.8077  -27.1808   13.8711 H         1 UNK         0.3450 
    101 H101      -53.9994  -27.7360   14.0314 H         1 UNK         0.2987 
    102 H102      -52.8719  -25.3324   13.6517 H         1 UNK         0.0766 
    103 H103      -53.9223  -23.5514   12.3133 H         1 UNK         0.0798 
    104 H104      -53.8625  -23.0665   14.0004 H         1 UNK         0.0798 
    105 H105      -55.3819  -23.6147   13.2916 H         1 UNK         0.0798 
    106 H106      -53.5302  -25.6886   15.7181 H         1 UNK         0.3198 
    107 H107      -56.2843  -25.1402   17.5799 H         1 UNK         0.0843 
    108 H108      -56.0046  -28.0962   16.7896 H         1 UNK         0.0831 
    109 H109      -57.4980  -27.1700   16.8050 H         1 UNK         0.0831 
    110 H110      -56.6701  -27.5037   18.3137 H         1 UNK         0.0831 
    111 H111      -54.1170  -27.0344   17.9732 H         1 UNK         0.3133 
    112 H112      -51.5619  -24.7333   18.4592 H         1 UNK         0.0566 
    113 H113      -51.3341  -25.5891   20.7773 H         1 UNK         0.0814 
    114 H114      -53.0059  -26.1545   20.7637 H         1 UNK         0.0814 
    115 H115      -52.6520  -24.4340   20.6916 H         1 UNK         0.0814 
    116 H116      -51.6158  -27.4651   19.1273 H         1 UNK         0.3091 
    117 H117      -50.3426  -28.8542   17.6841 H         1 UNK         0.0702 
    118 H118      -51.9200  -30.6147   16.7813 H         1 UNK         0.0785 
    119 H119      -53.0067  -29.3551   16.2014 H         1 UNK         0.0785 
    120 H120      -52.7453  -29.5754   17.9285 H         1 UNK         0.0785 
    121 H121      -50.7231  -27.9240   14.9737 H         1 UNK         0.2998 
    122 H122      -47.7903  -29.4023   13.8618 H         1 UNK         0.0697 
    123 H123      -50.5382  -30.2172   12.7649 H         1 UNK         0.0825 
    124 H124      -49.2318  -31.3248   13.1715 H         1 UNK         0.0825 
    125 H125      -49.0416  -30.1916   11.8405 H         1 UNK         0.0825 
    126 H126      -49.9479  -27.8478   12.6573 H         1 UNK         0.3029 
    127 H127      -49.9769  -25.2191   13.6744 H         1 UNK         0.0897 
    128 H128      -47.1839  -24.5510   12.6162 H         1 UNK         0.0792 
    129 H129      -47.8384  -24.1166   14.1878 H         1 UNK         0.0792 
    130 H130      -48.5187  -23.4019   12.7371 H         1 UNK         0.0792 
    131 H131      -48.9588  -25.2253   10.9638 H         1 UNK         0.3086 
    132 H132      -50.4398  -27.0015    9.3379 H         1 UNK         0.0583 
    133 H133      -52.8842  -27.2694    9.9671 H         1 UNK         0.1020 
    134 H134      -53.1186  -25.5710    9.7199 H         1 UNK         0.1020 
    135 H135      -54.4825  -28.3282    8.0105 H         1 UNK         0.0694 
    136 H136      -53.5990  -28.6871    6.5469 H         1 UNK         0.0694 
    137 H137      -49.6772  -25.1217    8.4582 H         1 UNK         0.2989 
    138 H138      -50.9649  -21.9006    8.1326 H         1 UNK         0.1055 
    139 H139      -48.4020  -22.4613    9.7150 H         1 UNK         0.0806 
    140 H140      -49.6841  -21.3515   10.1705 H         1 UNK         0.0806 
    141 H141      -48.7050  -21.0183    8.7507 H         1 UNK         0.0806 
    142 H142      -48.5308  -23.3714    7.3661 H         1 UNK         0.3061 
    143 H143      -49.4503  -25.2518    5.2824 H         1 UNK         0.0734 
    144 H144      -49.8385  -22.9147    3.3441 H         1 UNK         0.0832 
    145 H145      -49.2629  -24.5184    2.8872 H         1 UNK         0.0832 
    146 H146      -50.8821  -24.3131    3.5305 H         1 UNK         0.0832 
    147 H147      -47.3315  -24.7332    5.4739 H         1 UNK         0.3156 
    148 H148      -45.2761  -23.3995    4.2721 H         1 UNK         0.0589 
    149 H149      -43.9513  -21.5373    5.2973 H         1 UNK         0.0808 
    150 H150      -45.1942  -20.9393    4.2119 H         1 UNK         0.0808 
    151 H151      -45.4338  -20.8391    5.9483 H         1 UNK         0.0808 
    152 H152      -44.7703  -24.4746    6.1452 H         1 UNK         0.3098 
    153 H153      -44.1646  -24.3842    8.6898 H         1 UNK         0.0720 
    154 H154      -45.5284  -23.1289   10.3739 H         1 UNK         0.0791 
    155 H155      -45.4022  -24.8325   10.7800 H         1 UNK         0.0791 
    156 H156      -46.8883  -24.2047   10.0791 H         1 UNK         0.0791 
    157 H157      -44.8365  -26.4719    8.2907 H         1 UNK         0.3028 
@<TRIPOS>BOND
     1    1    2 1    
     2    1   82 1    
     3    1   83 1    
     4    1   84 1    
     5    2    3 2    
     6    2    4 am   BACKBONE|DICT|INTERRES
     7    4    5 1    
     8    4   85 1    
     9    5    6 1    
    10    5   80 1    
    11    5   86 1    
    12    6    7 1    
    13    6   87 1    
    14    6   88 1    
    15    7    8 1    
    16    8    9 1    
    17    8   89 1    
    18    8   90 1    
    19    9   10 ar   
    20    9   14 ar   
    21   10   11 ar   
    22   10   91 1    
    23   11   12 ar   
    24   11   58 1    
    25   12   13 ar   
    26   12   92 1    
    27   13   14 ar   
    28   13   15 1    
    29   14   93 1    
    30   15   16 1    
    31   15   94 1    
    32   15   95 1    
    33   16   17 1    
    34   17   18 1    
    35   17   96 1    
    36   17   97 1    
    37   18   19 1    
    38   18   22 1    
    39   18   98 1    
    40   19   20 am   BACKBONE|DICT|INTERRES
    41   19   21 2    
    42   20   99 1    
    43   20  100 1    
    44   22   23 am   BACKBONE|DICT|INTERRES
    45   22  101 1    
    46   23   24 2    
    47   23   25 1    
    48   25   26 1    
    49   25   27 1    
    50   25  102 1    
    51   26  103 1    
    52   26  104 1    
    53   26  105 1    
    54   27   28 am   BACKBONE|DICT|INTERRES
    55   27  106 1    
    56   28   29 2    
    57   28   30 1    
    58   30   31 1    
    59   30   32 1    
    60   30  107 1    
    61   31  108 1    
    62   31  109 1    
    63   31  110 1    
    64   32   33 am   BACKBONE|DICT|INTERRES
    65   32  111 1    
    66   33   34 2    
    67   33   35 1    
    68   35   36 1    
    69   35   37 1    
    70   35  112 1    
    71   36  113 1    
    72   36  114 1    
    73   36  115 1    
    74   37   38 am   BACKBONE|DICT|INTERRES
    75   37  116 1    
    76   38   39 2    
    77   38   40 1    
    78   40   41 1    
    79   40   42 1    
    80   40  117 1    
    81   41  118 1    
    82   41  119 1    
    83   41  120 1    
    84   42   43 am   BACKBONE|DICT|INTERRES
    85   42  121 1    
    86   43   44 2    
    87   43   45 1    
    88   45   46 1    
    89   45   47 1    
    90   45  122 1    
    91   46  123 1    
    92   46  124 1    
    93   46  125 1    
    94   47   48 am   BACKBONE|DICT|INTERRES
    95   47  126 1    
    96   48   49 2    
    97   48   50 1    
    98   50   51 1    
    99   50   52 1    
   100   50  127 1    
   101   51  128 1    
   102   51  129 1    
   103   51  130 1    
   104   52   53 am   BACKBONE|DICT|INTERRES
   105   52  131 1    
   106   53   54 2    
   107   53   55 1    
   108   55   56 1    
   109   55   59 1    
   110   55  132 1    
   111   56   57 1    
   112   56  133 1    
   113   56  134 1    
   114   57   58 1    
   115   58  135 1    
   116   58  136 1    
   117   59   60 am   BACKBONE|DICT|INTERRES
   118   59  137 1    
   119   60   61 2    
   120   60   62 1    
   121   62   63 1    
   122   62   64 1    
   123   62  138 1    
   124   63  139 1    
   125   63  140 1    
   126   63  141 1    
   127   64   65 am   BACKBONE|DICT|INTERRES
   128   64  142 1    
   129   65   66 2    
   130   65   67 1    
   131   67   68 1    
   132   67   69 1    
   133   67  143 1    
   134   68  144 1    
   135   68  145 1    
   136   68  146 1    
   137   69   70 am   BACKBONE|DICT|INTERRES
   138   69  147 1    
   139   70   71 2    
   140   70   72 1    
   141   72   73 1    
   142   72   74 1    
   143   72  148 1    
   144   73  149 1    
   145   73  150 1    
   146   73  151 1    
   147   74   75 am   BACKBONE|DICT|INTERRES
   148   74  152 1    
   149   75   76 2    
   150   75   77 1    
   151   77   78 1    
   152   77   79 1    
   153   77  153 1    
   154   78  154 1    
   155   78  155 1    
   156   78  156 1    
   157   79   80 am   BACKBONE|DICT|INTERRES
   158   79  157 1    
   159   80   81 2    
@<TRIPOS>SUBSTRUCTURE
     1 UNK         1 GROUP             0       ****    0 ROOT    
