@<TRIPOS>MOLECULE
3R207
157   159    1
SMALL
USER_CHARGES


@<TRIPOS>ATOM
      1 CA        -45.1726  -30.9475    3.7633 C.3       0 UNK        -0.1975 
      2 C         -46.0569  -29.9943    4.5524 C.2       0 UNK         0.4852 
      3 O         -45.6599  -29.5394    5.6264 O.2       0 UNK        -0.5216 
      4 N         -47.2446  -29.6650    4.0173 N.am      1 UNK        -0.4461 
      5 CA        -48.2726  -28.8139    4.6442 C.3       1 UNK         0.0864 
      6 C6        -48.8734  -29.5012    5.9032 C.3       14 UNK        -0.0898 
      7 S7        -50.5967  -29.0206    6.2543 S.3       14 UNK        -0.2598 
      8 C8        -50.3952  -28.3595    7.9341 C.3       14 UNK         0.0286 
      9 C9        -51.7157  -27.8753    8.5065 C.ar      14 UNK        -0.0844 
     10 C10       -52.0853  -26.5325    8.3881 C.ar      14 UNK        -0.0881 
     11 C11       -53.2904  -26.0798    8.9318 C.ar      14 UNK        -0.0643 
     12 C12       -54.1298  -26.9833    9.5919 C.ar      14 UNK        -0.0930 
     13 C13       -53.7744  -28.3302    9.7081 C.ar      14 UNK        -0.0827 
     14 C14       -52.5644  -28.7703    9.1648 C.ar      14 UNK        -0.1249 
     15 C15       -54.7020  -29.3071   10.4139 C.3       14 UNK         0.0141 
     16 S16       -56.1338  -29.7170    9.3668 S.3       14 UNK        -0.2313 
     17 C17       -56.9803  -30.9914   10.3621 C.3       14 UNK        -0.0915 
     18 CA        -58.2682  -30.4594   11.0618 C.3       13 UNK         0.0968 
     19 C         -59.1585  -31.6021   11.6438 C.2       13 UNK         0.5732 
     20 N         -59.8839  -31.3836   12.7343 N.am      13 UNK        -0.7310 
     21 O         -59.2259  -32.6933   11.0821 O.2       13 UNK        -0.5035 
     22 N         -57.9944  -29.3500   11.9961 N.am      13 UNK        -0.4233 
     23 C         -57.2604  -29.4353   13.1121 C.2       13 UNK         0.4989 
     24 O         -56.7590  -30.4790   13.5398 O.2       13 UNK        -0.4996 
     25 CA        -57.0364  -28.1300   13.8816 C.3       12 UNK         0.0216 
     26 CB        -58.1542  -27.8905   14.9105 C.3       12 UNK        -0.1964 
     27 N         -55.7531  -28.2446   14.5662 N.am      12 UNK        -0.4276 
     28 C         -54.8197  -27.2932   14.6374 C.2       12 UNK         0.5020 
     29 O         -54.9761  -26.1431   14.2207 O.2       12 UNK        -0.5489 
     30 CA        -53.4654  -27.7399   15.2171 C.3       11 UNK         0.0294 
     31 CB        -52.6741  -28.5292   14.1598 C.3       11 UNK        -0.2019 
     32 N         -52.6466  -26.6198   15.6862 N.am      11 UNK        -0.4493 
     33 C         -52.9061  -25.8854   16.7778 C.2       11 UNK         0.4932 
     34 O         -53.8684  -26.0869   17.5217 O.2       11 UNK        -0.5029 
     35 CA        -51.9066  -24.7528   17.1003 C.3       10 UNK         0.0280 
     36 CB        -52.0317  -24.2255   18.5460 C.3       10 UNK        -0.1976 
     37 N         -50.5171  -25.1126   16.7879 N.am      10 UNK        -0.4242 
     38 C         -49.8022  -26.1231   17.3088 C.2       10 UNK         0.5072 
     39 O         -50.1970  -26.8393   18.2301 O.2       10 UNK        -0.5224 
     40 CA        -48.4211  -26.4095   16.6930 C.3       9 UNK         0.0343 
     41 CB        -48.3731  -27.8348   16.1112 C.3       9 UNK        -0.2003 
     42 N         -48.0624  -25.4627   15.6306 N.am      9 UNK        -0.4272 
     43 C         -46.9702  -24.6870   15.6379 C.2       9 UNK         0.4988 
     44 O         -46.1668  -24.6407   16.5705 O.2       9 UNK        -0.5108 
     45 CA        -46.7031  -23.8285   14.3904 C.3       8 UNK         0.0248 
     46 CB        -45.9127  -24.6297   13.3433 C.3       8 UNK        -0.2001 
     47 N         -47.9056  -23.2714   13.7676 N.am      8 UNK        -0.4140 
     48 C         -48.6451  -22.2835   14.2919 C.2       8 UNK         0.5028 
     49 O         -48.4639  -21.8115   15.4144 O.2       8 UNK        -0.5428 
     50 CA        -49.7700  -21.7194   13.4131 C.3       7 UNK         0.0264 
     51 CB        -49.1954  -20.8177   12.3071 C.3       7 UNK        -0.1988 
     52 N         -50.5411  -22.8010   12.8041 N.am      7 UNK        -0.4454 
     53 C         -51.7374  -23.2183   13.2385 C.2       7 UNK         0.5027 
     54 O         -52.3566  -22.6715   14.1517 O.2       7 UNK        -0.5083 
     55 CA        -52.3539  -24.4649   12.5651 C.3       6 UNK         0.0844 
     56 C56       -53.4536  -24.0697   11.5491 C.3       14 UNK        -0.0967 
     57 S57       -52.7989  -23.5281    9.9282 S.3       14 UNK        -0.2604 
     58 C58       -53.6963  -24.6205    8.7802 C.3       14 UNK         0.0134 
     59 N         -51.3628  -25.3847   11.9951 N.am      6 UNK        -0.4116 
     60 C         -50.4202  -26.0276   12.6949 C.2       5 UNK         0.5034 
     61 O         -50.3439  -25.9884   13.9222 O.2       5 UNK        -0.5045 
     62 CA        -49.3476  -26.8014   11.9077 C.3       5 UNK         0.0224 
     63 CB        -49.7384  -28.2813   11.7859 C.3       5 UNK        -0.1978 
     64 N         -49.0397  -26.2604   10.5762 N.am      5 UNK        -0.4737 
     65 C         -48.6686  -24.9993   10.3131 C.2       4 UNK         0.5027 
     66 O         -48.5982  -24.1197   11.1732 O.2       4 UNK        -0.5211 
     67 CA        -48.3263  -24.6811    8.8471 C.3       4 UNK         0.0297 
     68 CB        -48.0074  -23.1875    8.6274 C.3       4 UNK        -0.1993 
     69 N         -47.2443  -25.5186    8.3140 N.am      4 UNK        -0.4486 
     70 C         -45.9940  -25.6415    8.7969 C.2       3 UNK         0.4961 
     71 O         -45.5991  -25.1188    9.8387 O.2       3 UNK        -0.5105 
     72 CA        -44.9902  -26.4730    7.9699 C.3       3 UNK         0.0299 
     73 CB        -44.9064  -27.9044    8.5235 C.3       3 UNK        -0.1972 
     74 N         -45.3021  -26.5303    6.5391 N.am      3 UNK        -0.4305 
     75 C         -45.3835  -25.4688    5.7192 C.2       2 UNK         0.5006 
     76 O         -45.0219  -24.3353    6.0374 O.2       2 UNK        -0.5106 
     77 CA        -46.0075  -25.6813    4.3228 C.3       2 UNK         0.0296 
     78 CB        -44.9255  -25.5994    3.2331 C.3       2 UNK        -0.2002 
     79 N         -46.7510  -26.9362    4.1590 N.am      2 UNK        -0.4032 
     80 C         -47.7836  -27.3636    4.9048 C.2       1 UNK         0.5000 
     81 O         -48.2899  -26.6815    5.7992 O.2       1 UNK        -0.5238 
     82 H82       -44.2235  -30.4680    3.5253 H         1 UNK         0.0889 
     83 H83       -45.6397  -31.2599    2.8296 H         1 UNK         0.0889 
     84 H84       -44.9651  -31.8393    4.3540 H         1 UNK         0.0889 
     85 H85       -47.5027  -30.0589    3.1221 H         1 UNK         0.3028 
     86 H86       -49.0641  -28.7245    3.8985 H         1 UNK         0.0864 
     87 H87       -48.2374  -29.3385    6.7756 H         1 UNK         0.0720 
     88 H88       -48.8915  -30.5829    5.7600 H         1 UNK         0.0720 
     89 H89       -49.6731  -27.5434    7.9114 H         1 UNK         0.0814 
     90 H90       -49.9730  -29.1317    8.5793 H         1 UNK         0.0814 
     91 H91       -51.4407  -25.8390    7.8660 H         1 UNK         0.1469 
     92 H92       -55.0710  -26.6451   10.0033 H         1 UNK         0.1381 
     93 H93       -52.2831  -29.8112    9.2486 H         1 UNK         0.1206 
     94 H94       -54.1676  -30.2220   10.6744 H         1 UNK         0.0813 
     95 H95       -55.0411  -28.8678   11.3518 H         1 UNK         0.0813 
     96 H96       -57.2286  -31.7997    9.6724 H         1 UNK         0.0638 
     97 H97       -56.2882  -31.4233   11.0862 H         1 UNK         0.0638 
     98 H98       -58.8913  -30.0225   10.2808 H         1 UNK         0.0568 
     99 H99       -59.8518  -30.4921   13.2010 H         1 UNK         0.3450 
    100 H100      -60.4649  -32.1235   13.0956 H         1 UNK         0.3450 
    101 H101      -58.3875  -28.4575   11.7343 H         1 UNK         0.2987 
    102 H102      -57.0111  -27.3036   13.1676 H         1 UNK         0.0766 
    103 H103      -59.1244  -27.7937   14.4217 H         1 UNK         0.0798 
    104 H104      -57.9817  -26.9720   15.4720 H         1 UNK         0.0798 
    105 H105      -58.2271  -28.7105   15.6263 H         1 UNK         0.0798 
    106 H106      -55.5267  -29.1895   14.8529 H         1 UNK         0.3198 
    107 H107      -53.6540  -28.3932   16.0720 H         1 UNK         0.0843 
    108 H108      -52.5502  -27.9566   13.2403 H         1 UNK         0.0831 
    109 H109      -53.1876  -29.4538   13.8932 H         1 UNK         0.0831 
    110 H110      -51.6847  -28.8051   14.5251 H         1 UNK         0.0831 
    111 H111      -51.8360  -26.3800   15.1237 H         1 UNK         0.3133 
    112 H112      -52.1628  -23.9292   16.4351 H         1 UNK         0.0566 
    113 H113      -51.3230  -23.4198   18.7370 H         1 UNK         0.0814 
    114 H114      -51.8550  -25.0103   19.2819 H         1 UNK         0.0814 
    115 H115      -53.0302  -23.8275   18.7307 H         1 UNK         0.0814 
    116 H116      -50.0961  -24.5967   16.0293 H         1 UNK         0.3091 
    117 H117      -47.7037  -26.3555   17.5141 H         1 UNK         0.0702 
    118 H118      -47.3881  -28.0629   15.7037 H         1 UNK         0.0785 
    119 H119      -49.1053  -27.9715   15.3147 H         1 UNK         0.0785 
    120 H120      -48.5847  -28.5803   16.8789 H         1 UNK         0.0785 
    121 H121      -48.6790  -25.4538   14.8248 H         1 UNK         0.2998 
    122 H122      -46.0786  -22.9893   14.7046 H         1 UNK         0.0697 
    123 H123      -46.4846  -25.4731   12.9574 H         1 UNK         0.0825 
    124 H124      -44.9903  -25.0278   13.7682 H         1 UNK         0.0825 
    125 H125      -45.6338  -24.0052   12.4940 H         1 UNK         0.0825 
    126 H126      -48.1149  -23.5852   12.8207 H         1 UNK         0.3029 
    127 H127      -50.4110  -21.1025   14.0469 H         1 UNK         0.0897 
    128 H128      -48.5420  -21.3677   11.6284 H         1 UNK         0.0792 
    129 H129      -48.6111  -20.0013   12.7337 H         1 UNK         0.0792 
    130 H130      -49.9913  -20.3699   11.7118 H         1 UNK         0.0792 
    131 H131      -50.0768  -23.3182   12.0623 H         1 UNK         0.3086 
    132 H132      -52.8450  -25.0100   13.3702 H         1 UNK         0.0583 
    133 H133      -54.1219  -24.9190   11.4133 H         1 UNK         0.1020 
    134 H134      -54.0936  -23.2807   11.9500 H         1 UNK         0.1020 
    135 H135      -54.7701  -24.4989    8.9316 H         1 UNK         0.0694 
    136 H136      -53.4963  -24.2952    7.7582 H         1 UNK         0.0694 
    137 H137      -51.3622  -25.4630   10.9882 H         1 UNK         0.2989 
    138 H138      -48.4279  -26.7465   12.4923 H         1 UNK         0.1055 
    139 H139      -50.6756  -28.4088   11.2447 H         1 UNK         0.0806 
    140 H140      -48.9692  -28.8586   11.2728 H         1 UNK         0.0806 
    141 H141      -49.8699  -28.7305   12.7712 H         1 UNK         0.0806 
    142 H142      -49.0437  -26.9201    9.8140 H         1 UNK         0.3061 
    143 H143      -49.2155  -24.9136    8.2603 H         1 UNK         0.0734 
    144 H144      -47.1352  -22.8712    9.2009 H         1 UNK         0.0832 
    145 H145      -47.8121  -22.9744    7.5765 H         1 UNK         0.0832 
    146 H146      -48.8443  -22.5602    8.9371 H         1 UNK         0.0832 
    147 H147      -47.4644  -25.9956    7.4425 H         1 UNK         0.3156 
    148 H148      -44.0095  -26.0047    8.0752 H         1 UNK         0.0589 
    149 H149      -44.1409  -28.4851    8.0083 H         1 UNK         0.0808 
    150 H150      -44.6507  -27.9001    9.5841 H         1 UNK         0.0808 
    151 H151      -45.8543  -28.4338    8.4170 H         1 UNK         0.0808 
    152 H152      -45.5691  -27.4396    6.1778 H         1 UNK         0.3098 
    153 H153      -46.7158  -24.8653    4.1663 H         1 UNK         0.0720 
    154 H154      -44.2013  -26.4102    3.3227 H         1 UNK         0.0791 
    155 H155      -44.3732  -24.6607    3.2991 H         1 UNK         0.0791 
    156 H156      -45.3612  -25.6447    2.2347 H         1 UNK         0.0791 
    157 H157      -46.3986  -27.5715    3.4580 H         1 UNK         0.3028 
@<TRIPOS>BOND
     1    1    2 1    
     2    1   82 1    
     3    1   83 1    
     4    1   84 1    
     5    2    3 2    
     6    2    4 am   BACKBONE|DICT|INTERRES
     7    4    5 1    
     8    4   85 1    
     9    5    6 1    
    10    5   80 1    
    11    5   86 1    
    12    6    7 1    
    13    6   87 1    
    14    6   88 1    
    15    7    8 1    
    16    8    9 1    
    17    8   89 1    
    18    8   90 1    
    19    9   10 ar   
    20    9   14 ar   
    21   10   11 ar   
    22   10   91 1    
    23   11   12 ar   
    24   11   58 1    
    25   12   13 ar   
    26   12   92 1    
    27   13   14 ar   
    28   13   15 1    
    29   14   93 1    
    30   15   16 1    
    31   15   94 1    
    32   15   95 1    
    33   16   17 1    
    34   17   18 1    
    35   17   96 1    
    36   17   97 1    
    37   18   19 1    
    38   18   22 1    
    39   18   98 1    
    40   19   20 am   BACKBONE|DICT|INTERRES
    41   19   21 2    
    42   20   99 1    
    43   20  100 1    
    44   22   23 am   BACKBONE|DICT|INTERRES
    45   22  101 1    
    46   23   24 2    
    47   23   25 1    
    48   25   26 1    
    49   25   27 1    
    50   25  102 1    
    51   26  103 1    
    52   26  104 1    
    53   26  105 1    
    54   27   28 am   BACKBONE|DICT|INTERRES
    55   27  106 1    
    56   28   29 2    
    57   28   30 1    
    58   30   31 1    
    59   30   32 1    
    60   30  107 1    
    61   31  108 1    
    62   31  109 1    
    63   31  110 1    
    64   32   33 am   BACKBONE|DICT|INTERRES
    65   32  111 1    
    66   33   34 2    
    67   33   35 1    
    68   35   36 1    
    69   35   37 1    
    70   35  112 1    
    71   36  113 1    
    72   36  114 1    
    73   36  115 1    
    74   37   38 am   BACKBONE|DICT|INTERRES
    75   37  116 1    
    76   38   39 2    
    77   38   40 1    
    78   40   41 1    
    79   40   42 1    
    80   40  117 1    
    81   41  118 1    
    82   41  119 1    
    83   41  120 1    
    84   42   43 am   BACKBONE|DICT|INTERRES
    85   42  121 1    
    86   43   44 2    
    87   43   45 1    
    88   45   46 1    
    89   45   47 1    
    90   45  122 1    
    91   46  123 1    
    92   46  124 1    
    93   46  125 1    
    94   47   48 am   BACKBONE|DICT|INTERRES
    95   47  126 1    
    96   48   49 2    
    97   48   50 1    
    98   50   51 1    
    99   50   52 1    
   100   50  127 1    
   101   51  128 1    
   102   51  129 1    
   103   51  130 1    
   104   52   53 am   BACKBONE|DICT|INTERRES
   105   52  131 1    
   106   53   54 2    
   107   53   55 1    
   108   55   56 1    
   109   55   59 1    
   110   55  132 1    
   111   56   57 1    
   112   56  133 1    
   113   56  134 1    
   114   57   58 1    
   115   58  135 1    
   116   58  136 1    
   117   59   60 am   BACKBONE|DICT|INTERRES
   118   59  137 1    
   119   60   61 2    
   120   60   62 1    
   121   62   63 1    
   122   62   64 1    
   123   62  138 1    
   124   63  139 1    
   125   63  140 1    
   126   63  141 1    
   127   64   65 am   BACKBONE|DICT|INTERRES
   128   64  142 1    
   129   65   66 2    
   130   65   67 1    
   131   67   68 1    
   132   67   69 1    
   133   67  143 1    
   134   68  144 1    
   135   68  145 1    
   136   68  146 1    
   137   69   70 am   BACKBONE|DICT|INTERRES
   138   69  147 1    
   139   70   71 2    
   140   70   72 1    
   141   72   73 1    
   142   72   74 1    
   143   72  148 1    
   144   73  149 1    
   145   73  150 1    
   146   73  151 1    
   147   74   75 am   BACKBONE|DICT|INTERRES
   148   74  152 1    
   149   75   76 2    
   150   75   77 1    
   151   77   78 1    
   152   77   79 1    
   153   77  153 1    
   154   78  154 1    
   155   78  155 1    
   156   78  156 1    
   157   79   80 am   BACKBONE|DICT|INTERRES
   158   79  157 1    
   159   80   81 2    
@<TRIPOS>SUBSTRUCTURE
     1 UNK         1 GROUP             0       ****    0 ROOT    
