@<TRIPOS>MOLECULE
3R207
157   159    1
SMALL
USER_CHARGES


@<TRIPOS>ATOM
      1 CA        -47.1886  -32.0084    4.5178 C.3       0 UNK        -0.1975 
      2 C         -48.0903  -30.8344    4.8677 C.2       0 UNK         0.4852 
      3 O         -48.1244  -30.4164    6.0244 O.2       0 UNK        -0.5216 
      4 N         -48.8008  -30.2855    3.8714 N.am      1 UNK        -0.4461 
      5 CA        -49.7916  -29.1921    3.9388 C.3       1 UNK         0.0864 
      6 C6        -50.9911  -29.4596    4.8916 C.3       14 UNK        -0.0898 
      7 S7        -51.7015  -31.1388    4.7358 S.3       14 UNK        -0.2598 
      8 C8        -53.1564  -31.0579    5.8419 C.3       14 UNK         0.0286 
      9 C9        -52.8826  -30.9084    7.3429 C.ar      14 UNK        -0.0844 
     10 C10       -51.5944  -30.8788    7.8946 C.ar      14 UNK        -0.0881 
     11 C11       -51.4038  -30.6490    9.2591 C.ar      14 UNK        -0.0643 
     12 C12       -52.5135  -30.5140   10.0958 C.ar      14 UNK        -0.0930 
     13 C13       -53.8086  -30.5824    9.5737 C.ar      14 UNK        -0.0827 
     14 C14       -53.9816  -30.7789    8.1990 C.ar      14 UNK        -0.1249 
     15 C15       -55.0062  -30.4577   10.5120 C.3       14 UNK         0.0141 
     16 S16       -56.3181  -29.3341    9.9139 S.3       14 UNK        -0.2313 
     17 C17       -55.4838  -27.7290    9.6384 C.3       14 UNK        -0.0915 
     18 CA        -54.4029  -27.3186   10.6746 C.3       13 UNK         0.0968 
     19 C         -53.7617  -25.9529   10.2968 C.2       13 UNK         0.5732 
     20 N         -53.8577  -24.9108   11.1152 N.am      13 UNK        -0.7310 
     21 O         -53.1636  -25.8397    9.2325 O.2       13 UNK        -0.5035 
     22 N         -54.9067  -27.3761   12.0535 N.am      13 UNK        -0.4233 
     23 C         -54.1273  -27.5832   13.1191 C.2       13 UNK         0.4989 
     24 O         -52.9309  -27.8656   13.0530 O.2       13 UNK        -0.4996 
     25 CA        -54.7970  -27.4249   14.4930 C.3       12 UNK         0.0216 
     26 CB        -54.5379  -28.6525   15.3819 C.3       12 UNK        -0.1964 
     27 N         -54.3297  -26.2069   15.1636 N.am      12 UNK        -0.4276 
     28 C         -54.5916  -24.9641   14.7266 C.2       12 UNK         0.5020 
     29 O         -55.2637  -24.7417   13.7170 O.2       12 UNK        -0.5489 
     30 CA        -53.9993  -23.7573   15.4819 C.3       11 UNK         0.0294 
     31 CB        -55.0671  -22.6829   15.7791 C.3       11 UNK        -0.2019 
     32 N         -53.2155  -24.0863   16.6790 N.am      11 UNK        -0.4493 
     33 C         -53.6611  -24.5533   17.8542 C.2       11 UNK         0.4932 
     34 O         -54.8462  -24.7880   18.0952 O.2       11 UNK        -0.5029 
     35 CA        -52.5855  -24.8268   18.9277 C.3       10 UNK         0.0280 
     36 CB        -53.1561  -25.5359   20.1741 C.3       10 UNK        -0.1976 
     37 N         -51.4211  -25.5659   18.4196 N.am      10 UNK        -0.4242 
     38 C         -51.4244  -26.7308   17.7544 C.2       10 UNK         0.5072 
     39 O         -52.4529  -27.3218   17.4249 O.2       10 UNK        -0.5224 
     40 CA        -50.0467  -27.3141   17.3796 C.3       9 UNK         0.0343 
     41 CB        -50.1576  -28.6582   16.6352 C.3       9 UNK        -0.2003 
     42 N         -49.2820  -26.3758   16.5563 N.am      9 UNK        -0.4272 
     43 C         -48.5934  -25.3231   17.0247 C.2       9 UNK         0.4988 
     44 O         -48.4678  -25.0796   18.2258 O.2       9 UNK        -0.5108 
     45 CA        -47.9957  -24.3419   15.9972 C.3       8 UNK         0.0248 
     46 CB        -46.5226  -24.6814   15.7248 C.3       8 UNK        -0.2001 
     47 N         -48.7383  -24.3046   14.7335 N.am      8 UNK        -0.4140 
     48 C         -50.0249  -23.9361   14.6261 C.2       8 UNK         0.5028 
     49 O         -50.6721  -23.4729   15.5667 O.2       8 UNK        -0.5428 
     50 CA        -50.7401  -24.1523   13.2775 C.3       7 UNK         0.0264 
     51 CB        -50.9533  -22.8050   12.5695 C.3       7 UNK        -0.1988 
     52 N         -50.0926  -25.0894   12.3533 N.am      7 UNK        -0.4454 
     53 C         -49.7806  -26.3677   12.6202 C.2       7 UNK         0.5027 
     54 O         -49.9687  -26.9025   13.7132 O.2       7 UNK        -0.5083 
     55 CA        -49.0501  -27.1564   11.5149 C.3       6 UNK         0.0844 
     56 C56       -50.0582  -27.7787   10.5205 C.3       14 UNK        -0.0967 
     57 S57       -49.2392  -28.9326    9.3672 S.3       14 UNK        -0.2604 
     58 C58       -49.9926  -30.5301    9.8146 C.3       14 UNK         0.0134 
     59 N         -48.0166  -26.3519   10.8480 N.am      6 UNK        -0.4116 
     60 C         -46.9648  -25.7871   11.4619 C.2       5 UNK         0.5034 
     61 O         -46.7353  -25.8904   12.6664 O.2       5 UNK        -0.5045 
     62 CA        -46.0323  -24.9271   10.5989 C.3       5 UNK         0.0224 
     63 CB        -45.0549  -25.8024    9.7967 C.3       5 UNK        -0.1978 
     64 N         -46.8030  -24.0729    9.6952 N.am      5 UNK        -0.4737 
     65 C         -47.3300  -22.8921   10.0491 C.2       4 UNK         0.5027 
     66 O         -47.1344  -22.3582   11.1408 O.2       4 UNK        -0.5211 
     67 CA        -48.2347  -22.1828    9.0236 C.3       4 UNK         0.0297 
     68 CB        -47.4178  -21.1812    8.1921 C.3       4 UNK        -0.1993 
     69 N         -48.9405  -23.0974    8.1219 N.am      4 UNK        -0.4486 
     70 C         -49.8678  -23.9848    8.5082 C.2       3 UNK         0.4961 
     71 O         -50.2401  -24.1216    9.6722 O.2       3 UNK        -0.5105 
     72 CA        -50.4286  -24.9160    7.4190 C.3       3 UNK         0.0299 
     73 CB        -51.5830  -24.2332    6.6691 C.3       3 UNK        -0.1972 
     74 N         -49.4372  -25.3986    6.4504 N.am      3 UNK        -0.4305 
     75 C         -48.2707  -25.9880    6.7467 C.2       2 UNK         0.5006 
     76 O         -47.8382  -26.1159    7.8929 O.2       2 UNK        -0.5106 
     77 CA        -47.4740  -26.5465    5.5577 C.3       2 UNK         0.0296 
     78 CB        -46.0185  -26.8824    5.9330 C.3       2 UNK        -0.2002 
     79 N         -48.1244  -27.7555    5.0597 N.am      2 UNK        -0.4032 
     80 C         -49.1819  -27.8032    4.2406 C.2       1 UNK         0.5000 
     81 O         -49.6892  -26.7979    3.7384 O.2       1 UNK        -0.5238 
     82 H82       -46.1522  -31.7688    4.7539 H         1 UNK         0.0889 
     83 H83       -47.2457  -32.2669    3.4607 H         1 UNK         0.0889 
     84 H84       -47.4766  -32.8851    5.0972 H         1 UNK         0.0889 
     85 H85       -48.6859  -30.6726    2.9449 H         1 UNK         0.3028 
     86 H86       -50.1973  -29.1244    2.9281 H         1 UNK         0.0864 
     87 H87       -51.7870  -28.7383    4.6958 H         1 UNK         0.0720 
     88 H88       -50.6890  -29.2887    5.9245 H         1 UNK         0.0720 
     89 H89       -53.7395  -31.9675    5.6909 H         1 UNK         0.0814 
     90 H90       -53.7897  -30.2320    5.5144 H         1 UNK         0.0814 
     91 H91       -50.7197  -31.0034    7.2730 H         1 UNK         0.1469 
     92 H92       -52.3678  -30.3469   11.1547 H         1 UNK         0.1381 
     93 H93       -54.9821  -30.8201    7.7901 H         1 UNK         0.1206 
     94 H94       -55.4404  -31.4494   10.6434 H         1 UNK         0.0813 
     95 H95       -54.6910  -30.1369   11.5053 H         1 UNK         0.0813 
     96 H96       -56.2614  -26.9648    9.5891 H         1 UNK         0.0638 
     97 H97       -55.0421  -27.7702    8.6408 H         1 UNK         0.0638 
     98 H98       -53.5827  -28.0292   10.5881 H         1 UNK         0.0568 
     99 H99       -54.3803  -24.9674   11.9835 H         1 UNK         0.3450 
    100 H100      -53.4316  -24.0427   10.8377 H         1 UNK         0.3450 
    101 H101      -55.8712  -27.1105   12.1874 H         1 UNK         0.2987 
    102 H102      -55.8771  -27.3374   14.3567 H         1 UNK         0.0766 
    103 H103      -54.9910  -28.5351   16.3666 H         1 UNK         0.0798 
    104 H104      -53.4715  -28.8323   15.5239 H         1 UNK         0.0798 
    105 H105      -54.9598  -29.5525   14.9331 H         1 UNK         0.0798 
    106 H106      -53.7429  -26.3357   15.9809 H         1 UNK         0.3198 
    107 H107      -53.2898  -23.3037   14.7899 H         1 UNK         0.0843 
    108 H108      -55.8761  -23.0706   16.3984 H         1 UNK         0.0831 
    109 H109      -55.5187  -22.3170   14.8561 H         1 UNK         0.0831 
    110 H110      -54.6345  -21.8218   16.2883 H         1 UNK         0.0831 
    111 H111      -52.2132  -23.9392   16.5651 H         1 UNK         0.3133 
    112 H112      -52.2155  -23.8502   19.2431 H         1 UNK         0.0566 
    113 H113      -52.3903  -25.6759   20.9370 H         1 UNK         0.0814 
    114 H114      -53.9581  -24.9509   20.6261 H         1 UNK         0.0814 
    115 H115      -53.5665  -26.5159   19.9272 H         1 UNK         0.0814 
    116 H116      -50.5133  -25.1503   18.6032 H         1 UNK         0.3091 
    117 H117      -49.5058  -27.4957   18.3107 H         1 UNK         0.0702 
    118 H118      -50.6707  -29.4016   17.2466 H         1 UNK         0.0785 
    119 H119      -50.7189  -28.5592   15.7049 H         1 UNK         0.0785 
    120 H120      -49.1743  -29.0604   16.3918 H         1 UNK         0.0785 
    121 H121      -49.3906  -26.4834   15.5508 H         1 UNK         0.2998 
    122 H122      -48.0408  -23.3418   16.4330 H         1 UNK         0.0697 
    123 H123      -46.4090  -25.6898   15.3250 H         1 UNK         0.0825 
    124 H124      -45.9351  -24.6283   16.6424 H         1 UNK         0.0825 
    125 H125      -46.0771  -23.9859   15.0132 H         1 UNK         0.0825 
    126 H126      -48.2745  -24.6946   13.9223 H         1 UNK         0.3029 
    127 H127      -51.7178  -24.5787   13.5067 H         1 UNK         0.0897 
    128 H128      -51.5916  -22.9135   11.6932 H         1 UNK         0.0792 
    129 H129      -50.0073  -22.3710   12.2424 H         1 UNK         0.0792 
    130 H130      -51.4352  -22.0826   13.2298 H         1 UNK         0.0792 
    131 H131      -49.9445  -24.7456   11.4054 H         1 UNK         0.3086 
    132 H132      -48.5303  -27.9770   12.0143 H         1 UNK         0.0583 
    133 H133      -50.8490  -28.3049   11.0586 H         1 UNK         0.1020 
    134 H134      -50.5590  -27.0013    9.9415 H         1 UNK         0.1020 
    135 H135      -49.3770  -31.3334    9.4070 H         1 UNK         0.0694 
    136 H136      -49.9813  -30.6540   10.8986 H         1 UNK         0.0694 
    137 H137      -48.1016  -26.2507    9.8406 H         1 UNK         0.2989 
    138 H138      -45.4427  -24.2978   11.2699 H         1 UNK         0.1055 
    139 H139      -44.4298  -26.3953   10.4655 H         1 UNK         0.0806 
    140 H140      -44.3885  -25.1942    9.1850 H         1 UNK         0.0806 
    141 H141      -45.5718  -26.4994    9.1370 H         1 UNK         0.0806 
    142 H142      -47.0764  -24.4873    8.8105 H         1 UNK         0.3061 
    143 H143      -48.9882  -21.6269    9.5860 H         1 UNK         0.0734 
    144 H144      -46.9025  -20.4684    8.8376 H         1 UNK         0.0832 
    145 H145      -48.0566  -20.6047    7.5227 H         1 UNK         0.0832 
    146 H146      -46.6589  -21.6806    7.5885 H         1 UNK         0.0832 
    147 H147      -48.6867  -23.0672    7.1452 H         1 UNK         0.3156 
    148 H148      -50.8266  -25.7989    7.9206 H         1 UNK         0.0589 
    149 H149      -51.2409  -23.3736    6.0917 H         1 UNK         0.0808 
    150 H150      -52.0758  -24.9254    5.9860 H         1 UNK         0.0808 
    151 H151      -52.3426  -23.8777    7.3671 H         1 UNK         0.0808 
    152 H152      -49.7156  -25.3901    5.4763 H         1 UNK         0.3098 
    153 H153      -47.4558  -25.7892    4.7711 H         1 UNK         0.0720 
    154 H154      -45.4563  -27.2289    5.0658 H         1 UNK         0.0791 
    155 H155      -45.9670  -27.6597    6.6970 H         1 UNK         0.0791 
    156 H156      -45.5033  -26.0044    6.3249 H         1 UNK         0.0791 
    157 H157      -47.8580  -28.6326    5.5012 H         1 UNK         0.3028 
@<TRIPOS>BOND
     1    1    2 1    
     2    1   82 1    
     3    1   83 1    
     4    1   84 1    
     5    2    3 2    
     6    2    4 am   BACKBONE|DICT|INTERRES
     7    4    5 1    
     8    4   85 1    
     9    5    6 1    
    10    5   80 1    
    11    5   86 1    
    12    6    7 1    
    13    6   87 1    
    14    6   88 1    
    15    7    8 1    
    16    8    9 1    
    17    8   89 1    
    18    8   90 1    
    19    9   10 ar   
    20    9   14 ar   
    21   10   11 ar   
    22   10   91 1    
    23   11   12 ar   
    24   11   58 1    
    25   12   13 ar   
    26   12   92 1    
    27   13   14 ar   
    28   13   15 1    
    29   14   93 1    
    30   15   16 1    
    31   15   94 1    
    32   15   95 1    
    33   16   17 1    
    34   17   18 1    
    35   17   96 1    
    36   17   97 1    
    37   18   19 1    
    38   18   22 1    
    39   18   98 1    
    40   19   20 am   BACKBONE|DICT|INTERRES
    41   19   21 2    
    42   20   99 1    
    43   20  100 1    
    44   22   23 am   BACKBONE|DICT|INTERRES
    45   22  101 1    
    46   23   24 2    
    47   23   25 1    
    48   25   26 1    
    49   25   27 1    
    50   25  102 1    
    51   26  103 1    
    52   26  104 1    
    53   26  105 1    
    54   27   28 am   BACKBONE|DICT|INTERRES
    55   27  106 1    
    56   28   29 2    
    57   28   30 1    
    58   30   31 1    
    59   30   32 1    
    60   30  107 1    
    61   31  108 1    
    62   31  109 1    
    63   31  110 1    
    64   32   33 am   BACKBONE|DICT|INTERRES
    65   32  111 1    
    66   33   34 2    
    67   33   35 1    
    68   35   36 1    
    69   35   37 1    
    70   35  112 1    
    71   36  113 1    
    72   36  114 1    
    73   36  115 1    
    74   37   38 am   BACKBONE|DICT|INTERRES
    75   37  116 1    
    76   38   39 2    
    77   38   40 1    
    78   40   41 1    
    79   40   42 1    
    80   40  117 1    
    81   41  118 1    
    82   41  119 1    
    83   41  120 1    
    84   42   43 am   BACKBONE|DICT|INTERRES
    85   42  121 1    
    86   43   44 2    
    87   43   45 1    
    88   45   46 1    
    89   45   47 1    
    90   45  122 1    
    91   46  123 1    
    92   46  124 1    
    93   46  125 1    
    94   47   48 am   BACKBONE|DICT|INTERRES
    95   47  126 1    
    96   48   49 2    
    97   48   50 1    
    98   50   51 1    
    99   50   52 1    
   100   50  127 1    
   101   51  128 1    
   102   51  129 1    
   103   51  130 1    
   104   52   53 am   BACKBONE|DICT|INTERRES
   105   52  131 1    
   106   53   54 2    
   107   53   55 1    
   108   55   56 1    
   109   55   59 1    
   110   55  132 1    
   111   56   57 1    
   112   56  133 1    
   113   56  134 1    
   114   57   58 1    
   115   58  135 1    
   116   58  136 1    
   117   59   60 am   BACKBONE|DICT|INTERRES
   118   59  137 1    
   119   60   61 2    
   120   60   62 1    
   121   62   63 1    
   122   62   64 1    
   123   62  138 1    
   124   63  139 1    
   125   63  140 1    
   126   63  141 1    
   127   64   65 am   BACKBONE|DICT|INTERRES
   128   64  142 1    
   129   65   66 2    
   130   65   67 1    
   131   67   68 1    
   132   67   69 1    
   133   67  143 1    
   134   68  144 1    
   135   68  145 1    
   136   68  146 1    
   137   69   70 am   BACKBONE|DICT|INTERRES
   138   69  147 1    
   139   70   71 2    
   140   70   72 1    
   141   72   73 1    
   142   72   74 1    
   143   72  148 1    
   144   73  149 1    
   145   73  150 1    
   146   73  151 1    
   147   74   75 am   BACKBONE|DICT|INTERRES
   148   74  152 1    
   149   75   76 2    
   150   75   77 1    
   151   77   78 1    
   152   77   79 1    
   153   77  153 1    
   154   78  154 1    
   155   78  155 1    
   156   78  156 1    
   157   79   80 am   BACKBONE|DICT|INTERRES
   158   79  157 1    
   159   80   81 2    
@<TRIPOS>SUBSTRUCTURE
     1 UNK         1 GROUP             0       ****    0 ROOT    
