@<TRIPOS>MOLECULE
3R207
157   159    1
SMALL
USER_CHARGES


@<TRIPOS>ATOM
      1 CA        -52.5422  -25.4541    5.1211 C.3       0 UNK        -0.1975 
      2 C         -52.6825  -26.4649    3.9856 C.2       0 UNK         0.4852 
      3 O         -53.3904  -26.1896    3.0181 O.2       0 UNK        -0.5216 
      4 N         -52.0513  -27.6447    4.0576 N.am      1 UNK        -0.4461 
      5 CA        -51.1125  -28.0824    5.0975 C.3       1 UNK         0.0864 
      6 C6        -51.0101  -29.6256    5.1678 C.3       14 UNK        -0.0898 
      7 S7        -52.6226  -30.4019    5.5265 S.3       14 UNK        -0.2598 
      8 C8        -52.3166  -31.2028    7.1389 C.3       14 UNK         0.0286 
      9 C9        -52.0526  -30.2555    8.3106 C.ar      14 UNK        -0.0844 
     10 C10       -52.5584  -28.9488    8.3542 C.ar      14 UNK        -0.0881 
     11 C11       -52.3138  -28.1233    9.4563 C.ar      14 UNK        -0.0643 
     12 C12       -51.5991  -28.6296   10.5450 C.ar      14 UNK        -0.0930 
     13 C13       -51.1056  -29.9360   10.5267 C.ar      14 UNK        -0.0827 
     14 C14       -51.3183  -30.7341    9.4001 C.ar      14 UNK        -0.1249 
     15 C15       -50.3688  -30.4942   11.7371 C.3       14 UNK         0.0141 
     16 S16       -51.3521  -31.7485   12.6260 S.3       14 UNK        -0.2313 
     17 C17       -52.8864  -30.8349   13.0019 C.3       14 UNK        -0.0915 
     18 CA        -54.0087  -31.1016   11.9491 C.3       13 UNK         0.0968 
     19 C         -54.9478  -32.2934   12.3113 C.2       13 UNK         0.5732 
     20 N         -56.2163  -32.2722   11.9187 N.am      13 UNK        -0.7310 
     21 O         -54.5218  -33.2680   12.9266 O.2       13 UNK        -0.5035 
     22 N         -54.6880  -29.8597   11.5432 N.am      13 UNK        -0.4233 
     23 C         -55.4350  -29.0863   12.3389 C.2       13 UNK         0.4989 
     24 O         -55.7303  -29.3689   13.5028 O.2       13 UNK        -0.4996 
     25 CA        -55.9626  -27.7819   11.7136 C.3       12 UNK         0.0216 
     26 CB        -57.3312  -28.0129   11.0528 C.3       12 UNK        -0.1964 
     27 N         -56.0826  -26.7222   12.7179 N.am      12 UNK        -0.4276 
     28 C         -55.0403  -26.1615   13.3440 C.2       12 UNK         0.5020 
     29 O         -53.8633  -26.3572   13.0245 O.2       12 UNK        -0.5489 
     30 CA        -55.3638  -25.2550   14.5416 C.3       11 UNK         0.0294 
     31 CB        -56.1096  -26.0478   15.6393 C.3       11 UNK        -0.2019 
     32 N         -54.0935  -24.7488   15.0497 N.am      11 UNK        -0.4493 
     33 C         -53.8822  -23.8885   16.0515 C.2       11 UNK         0.4932 
     34 O         -54.7830  -23.2918   16.6438 O.2       11 UNK        -0.5029 
     35 CA        -52.4106  -23.6605   16.4555 C.3       10 UNK         0.0280 
     36 CB        -52.2477  -23.2134   17.9234 C.3       10 UNK        -0.1976 
     37 N         -51.5506  -24.8122   16.1522 N.am      10 UNK        -0.4242 
     38 C         -51.6190  -26.0522   16.6628 C.2       10 UNK         0.5072 
     39 O         -52.3994  -26.3951   17.5518 O.2       10 UNK        -0.5224 
     40 CA        -50.6629  -27.1004   16.0651 C.3       9 UNK         0.0343 
     41 CB        -51.3333  -27.8342   14.8927 C.3       9 UNK        -0.2003 
     42 N         -49.3899  -26.5319   15.6154 N.am      9 UNK        -0.4272 
     43 C         -48.4396  -26.0655   16.4384 C.2       9 UNK         0.4988 
     44 O         -48.5037  -26.1274   17.6669 O.2       9 UNK        -0.5108 
     45 CA        -47.2156  -25.4050   15.7831 C.3       8 UNK         0.0248 
     46 CB        -46.2257  -26.4697   15.2837 C.3       8 UNK        -0.2001 
     47 N         -47.5745  -24.4988   14.6878 N.am      8 UNK        -0.4140 
     48 C         -48.2686  -23.3605   14.8426 C.2       8 UNK         0.5028 
     49 O         -48.6418  -22.9273   15.9329 O.2       8 UNK        -0.5428 
     50 CA        -48.6289  -22.5763   13.5695 C.3       7 UNK         0.0264 
     51 CB        -47.4413  -21.7167   13.1085 C.3       7 UNK        -0.1988 
     52 N         -49.0822  -23.4380   12.4737 N.am      7 UNK        -0.4454 
     53 C         -50.2073  -24.1692   12.5046 C.2       7 UNK         0.5027 
     54 O         -51.0065  -24.1394   13.4396 O.2       7 UNK        -0.5083 
     55 CA        -50.4667  -25.1377   11.3337 C.3       6 UNK         0.0844 
     56 C56       -51.2157  -24.4443   10.1701 C.3       14 UNK        -0.0967 
     57 S57       -51.5947  -25.5517    8.7649 S.3       14 UNK        -0.2604 
     58 C58       -52.8280  -26.6905    9.4693 C.3       14 UNK         0.0134 
     59 N         -49.2431  -25.8210   10.9091 N.am      6 UNK        -0.4116 
     60 C         -48.5506  -26.6752   11.6752 C.2       5 UNK         0.5034 
     61 O         -48.8877  -27.0131   12.8098 O.2       5 UNK        -0.5045 
     62 CA        -47.2293  -27.1998   11.0989 C.3       5 UNK         0.0224 
     63 CB        -47.4768  -28.3390   10.0965 C.3       5 UNK        -0.1978 
     64 N         -46.4539  -26.1296   10.4674 N.am      5 UNK        -0.4737 
     65 C         -45.8548  -25.1382   11.1424 C.2       4 UNK         0.5027 
     66 O         -45.8741  -25.0392   12.3681 O.2       4 UNK        -0.5211 
     67 CA        -45.1410  -24.0577   10.3132 C.3       4 UNK         0.0297 
     68 CB        -43.7144  -24.5054    9.9587 C.3       4 UNK        -0.1993 
     69 N         -45.8641  -23.7044    9.0899 N.am      4 UNK        -0.4486 
     70 C         -47.0668  -23.1135    9.0657 C.2       3 UNK         0.4961 
     71 O         -47.6894  -22.7771   10.0713 O.2       3 UNK        -0.5105 
     72 CA        -47.7111  -22.9158    7.6845 C.3       3 UNK         0.0299 
     73 CB        -47.1828  -21.6355    7.0185 C.3       3 UNK        -0.1972 
     74 N         -47.5408  -24.0560    6.7755 N.am      3 UNK        -0.4305 
     75 C         -47.9212  -25.3108    7.0496 C.2       2 UNK         0.5006 
     76 O         -48.3566  -25.6794    8.1420 O.2       2 UNK        -0.5106 
     77 CA        -47.7946  -26.3401    5.9286 C.3       2 UNK         0.0296 
     78 CB        -46.5979  -27.2758    6.1683 C.3       2 UNK        -0.2002 
     79 N         -49.0353  -27.1054    5.9355 N.am      2 UNK        -0.4032 
     80 C         -49.7272  -27.4577    4.8489 C.2       1 UNK         0.5000 
     81 O         -49.3209  -27.3047    3.6934 O.2       1 UNK        -0.5238 
     82 H82       -51.5005  -25.1885    5.2956 H         1 UNK         0.0889 
     83 H83       -52.9647  -25.8530    6.0426 H         1 UNK         0.0889 
     84 H84       -53.0793  -24.5360    4.8836 H         1 UNK         0.0889 
     85 H85       -52.1566  -28.2899    3.2884 H         1 UNK         0.3028 
     86 H86       -51.4715  -27.7268    6.0638 H         1 UNK         0.0864 
     87 H87       -50.6399  -30.0320    4.2245 H         1 UNK         0.0720 
     88 H88       -50.2899  -29.9267    5.9315 H         1 UNK         0.0720 
     89 H89       -51.4807  -31.8947    7.0226 H         1 UNK         0.0814 
     90 H90       -53.1856  -31.8135    7.3867 H         1 UNK         0.0814 
     91 H91       -53.1434  -28.5650    7.5307 H         1 UNK         0.1469 
     92 H92       -51.4383  -28.0163   11.4185 H         1 UNK         0.1381 
     93 H93       -50.9400  -31.7475    9.3914 H         1 UNK         0.1206 
     94 H94       -50.0938  -29.6949   12.4268 H         1 UNK         0.0813 
     95 H95       -49.4339  -30.9512   11.4110 H         1 UNK         0.0813 
     96 H96       -53.2169  -31.0903   14.0101 H         1 UNK         0.0638 
     97 H97       -52.6374  -29.7739   13.0467 H         1 UNK         0.0638 
     98 H98       -53.5326  -31.4337   11.0272 H         1 UNK         0.0568 
     99 H99       -56.5811  -31.4847   11.4087 H         1 UNK         0.3450 
    100 H100      -56.8155  -33.0495   12.1468 H         1 UNK         0.3450 
    101 H101      -54.5099  -29.5642   10.5945 H         1 UNK         0.2987 
    102 H102      -55.2587  -27.4472   10.9498 H         1 UNK         0.0766 
    103 H103      -57.7062  -27.1014   10.5866 H         1 UNK         0.0798 
    104 H104      -58.0761  -28.3529   11.7738 H         1 UNK         0.0798 
    105 H105      -57.2659  -28.7702   10.2704 H         1 UNK         0.0798 
    106 H106      -57.0129  -26.5296   13.0592 H         1 UNK         0.3198 
    107 H107      -55.9709  -24.4155   14.1981 H         1 UNK         0.0843 
    108 H108      -56.3489  -25.4244   16.5003 H         1 UNK         0.0831 
    109 H109      -55.5144  -26.8905   15.9947 H         1 UNK         0.0831 
    110 H110      -57.0554  -26.4489   15.2744 H         1 UNK         0.0831 
    111 H111      -53.2956  -25.1491   14.5650 H         1 UNK         0.3133 
    112 H112      -52.0482  -22.8482   15.8241 H         1 UNK         0.0566 
    113 H113      -51.1980  -23.0608   18.1748 H         1 UNK         0.0814 
    114 H114      -52.7641  -22.2701   18.1043 H         1 UNK         0.0814 
    115 H115      -52.6578  -23.9460   18.6189 H         1 UNK         0.0814 
    116 H116      -50.9273  -24.6659   15.3642 H         1 UNK         0.3091 
    117 H117      -50.4509  -27.8335   16.8462 H         1 UNK         0.0702 
    118 H118      -50.7245  -28.6721   14.5540 H         1 UNK         0.0785 
    119 H119      -51.4923  -27.1718   14.0410 H         1 UNK         0.0785 
    120 H120      -52.3066  -28.2346   15.1805 H         1 UNK         0.0785 
    121 H121      -49.2264  -26.5109   14.6113 H         1 UNK         0.2998 
    122 H122      -46.7120  -24.8117   16.5493 H         1 UNK         0.0697 
    123 H123      -45.3090  -26.0133   14.9101 H         1 UNK         0.0825 
    124 H124      -45.9438  -27.1500   16.0883 H         1 UNK         0.0825 
    125 H125      -46.6503  -27.0718   14.4799 H         1 UNK         0.0825 
    126 H126      -47.2372  -24.7486   13.7621 H         1 UNK         0.3029 
    127 H127      -49.4523  -21.9046   13.8219 H         1 UNK         0.0897 
    128 H128      -47.7166  -21.0793   12.2681 H         1 UNK         0.0792 
    129 H129      -47.0968  -21.0630   13.9110 H         1 UNK         0.0792 
    130 H130      -46.5944  -22.3300   12.7998 H         1 UNK         0.0792 
    131 H131      -48.5034  -23.4509   11.6364 H         1 UNK         0.3086 
    132 H132      -51.1339  -25.8983   11.7368 H         1 UNK         0.0583 
    133 H133      -52.1517  -24.0086   10.5256 H         1 UNK         0.1020 
    134 H134      -50.6217  -23.6135    9.7838 H         1 UNK         0.1020 
    135 H135      -53.0880  -26.3907   10.4842 H         1 UNK         0.0694 
    136 H136      -53.7478  -26.6160    8.8876 H         1 UNK         0.0694 
    137 H137      -48.9198  -25.6376    9.9621 H         1 UNK         0.2989 
    138 H138      -46.6409  -27.5993   11.9280 H         1 UNK         0.1055 
    139 H139      -47.9610  -29.1832   10.5865 H         1 UNK         0.0806 
    140 H140      -46.5427  -28.7063    9.6715 H         1 UNK         0.0806 
    141 H141      -48.1243  -28.0322    9.2748 H         1 UNK         0.0806 
    142 H142      -46.4733  -26.0876    9.4581 H         1 UNK         0.3061 
    143 H143      -45.0719  -23.1598   10.9311 H         1 UNK         0.0734 
    144 H144      -43.1660  -23.7157    9.4447 H         1 UNK         0.0832 
    145 H145      -43.1508  -24.7549   10.8590 H         1 UNK         0.0832 
    146 H146      -43.7127  -25.3888    9.3189 H         1 UNK         0.0832 
    147 H147      -45.4343  -23.9521    8.2106 H         1 UNK         0.3156 
    148 H148      -48.7845  -22.7941    7.8454 H         1 UNK         0.0589 
    149 H149      -46.1200  -21.7080    6.7846 H         1 UNK         0.0808 
    150 H150      -47.7171  -21.4191    6.0931 H         1 UNK         0.0808 
    151 H151      -47.3139  -20.7729    7.6737 H         1 UNK         0.0808 
    152 H152      -47.1802  -23.8481    5.8551 H         1 UNK         0.3098 
    153 H153      -47.6677  -25.8201    4.9764 H         1 UNK         0.0720 
    154 H154      -45.6613  -26.7174    6.1862 H         1 UNK         0.0791 
    155 H155      -46.5168  -28.0206    5.3764 H         1 UNK         0.0791 
    156 H156      -46.6820  -27.8071    7.1170 H         1 UNK         0.0791 
    157 H157      -49.4456  -27.2129    6.8558 H         1 UNK         0.3028 
@<TRIPOS>BOND
     1    1    2 1    
     2    1   82 1    
     3    1   83 1    
     4    1   84 1    
     5    2    3 2    
     6    2    4 am   BACKBONE|DICT|INTERRES
     7    4    5 1    
     8    4   85 1    
     9    5    6 1    
    10    5   80 1    
    11    5   86 1    
    12    6    7 1    
    13    6   87 1    
    14    6   88 1    
    15    7    8 1    
    16    8    9 1    
    17    8   89 1    
    18    8   90 1    
    19    9   10 ar   
    20    9   14 ar   
    21   10   11 ar   
    22   10   91 1    
    23   11   12 ar   
    24   11   58 1    
    25   12   13 ar   
    26   12   92 1    
    27   13   14 ar   
    28   13   15 1    
    29   14   93 1    
    30   15   16 1    
    31   15   94 1    
    32   15   95 1    
    33   16   17 1    
    34   17   18 1    
    35   17   96 1    
    36   17   97 1    
    37   18   19 1    
    38   18   22 1    
    39   18   98 1    
    40   19   20 am   BACKBONE|DICT|INTERRES
    41   19   21 2    
    42   20   99 1    
    43   20  100 1    
    44   22   23 am   BACKBONE|DICT|INTERRES
    45   22  101 1    
    46   23   24 2    
    47   23   25 1    
    48   25   26 1    
    49   25   27 1    
    50   25  102 1    
    51   26  103 1    
    52   26  104 1    
    53   26  105 1    
    54   27   28 am   BACKBONE|DICT|INTERRES
    55   27  106 1    
    56   28   29 2    
    57   28   30 1    
    58   30   31 1    
    59   30   32 1    
    60   30  107 1    
    61   31  108 1    
    62   31  109 1    
    63   31  110 1    
    64   32   33 am   BACKBONE|DICT|INTERRES
    65   32  111 1    
    66   33   34 2    
    67   33   35 1    
    68   35   36 1    
    69   35   37 1    
    70   35  112 1    
    71   36  113 1    
    72   36  114 1    
    73   36  115 1    
    74   37   38 am   BACKBONE|DICT|INTERRES
    75   37  116 1    
    76   38   39 2    
    77   38   40 1    
    78   40   41 1    
    79   40   42 1    
    80   40  117 1    
    81   41  118 1    
    82   41  119 1    
    83   41  120 1    
    84   42   43 am   BACKBONE|DICT|INTERRES
    85   42  121 1    
    86   43   44 2    
    87   43   45 1    
    88   45   46 1    
    89   45   47 1    
    90   45  122 1    
    91   46  123 1    
    92   46  124 1    
    93   46  125 1    
    94   47   48 am   BACKBONE|DICT|INTERRES
    95   47  126 1    
    96   48   49 2    
    97   48   50 1    
    98   50   51 1    
    99   50   52 1    
   100   50  127 1    
   101   51  128 1    
   102   51  129 1    
   103   51  130 1    
   104   52   53 am   BACKBONE|DICT|INTERRES
   105   52  131 1    
   106   53   54 2    
   107   53   55 1    
   108   55   56 1    
   109   55   59 1    
   110   55  132 1    
   111   56   57 1    
   112   56  133 1    
   113   56  134 1    
   114   57   58 1    
   115   58  135 1    
   116   58  136 1    
   117   59   60 am   BACKBONE|DICT|INTERRES
   118   59  137 1    
   119   60   61 2    
   120   60   62 1    
   121   62   63 1    
   122   62   64 1    
   123   62  138 1    
   124   63  139 1    
   125   63  140 1    
   126   63  141 1    
   127   64   65 am   BACKBONE|DICT|INTERRES
   128   64  142 1    
   129   65   66 2    
   130   65   67 1    
   131   67   68 1    
   132   67   69 1    
   133   67  143 1    
   134   68  144 1    
   135   68  145 1    
   136   68  146 1    
   137   69   70 am   BACKBONE|DICT|INTERRES
   138   69  147 1    
   139   70   71 2    
   140   70   72 1    
   141   72   73 1    
   142   72   74 1    
   143   72  148 1    
   144   73  149 1    
   145   73  150 1    
   146   73  151 1    
   147   74   75 am   BACKBONE|DICT|INTERRES
   148   74  152 1    
   149   75   76 2    
   150   75   77 1    
   151   77   78 1    
   152   77   79 1    
   153   77  153 1    
   154   78  154 1    
   155   78  155 1    
   156   78  156 1    
   157   79   80 am   BACKBONE|DICT|INTERRES
   158   79  157 1    
   159   80   81 2    
@<TRIPOS>SUBSTRUCTURE
     1 UNK         1 GROUP             0       ****    0 ROOT    
