@<TRIPOS>MOLECULE
3R207
157   159    1
SMALL
USER_CHARGES


@<TRIPOS>ATOM
      1 CA        -51.5367  -25.7015    5.1238 C.3       0 UNK        -0.1975 
      2 C         -51.1214  -26.5179    3.9040 C.2       0 UNK         0.4852 
      3 O         -51.6150  -26.2523    2.8101 O.2       0 UNK        -0.5216 
      4 N         -50.2283  -27.5120    4.0218 N.am      1 UNK        -0.4461 
      5 CA        -49.5213  -27.9556    5.2332 C.3       1 UNK         0.0864 
      6 C6        -49.1770  -29.4651    5.1274 C.3       14 UNK        -0.0898 
      7 S7        -49.1612  -30.3260    6.7346 S.3       14 UNK        -0.2598 
      8 C8        -50.9300  -30.6803    7.0021 C.3       14 UNK         0.0286 
      9 C9        -51.4682  -29.9100    8.1990 C.ar      14 UNK        -0.0844 
     10 C10       -52.0769  -28.6625    8.0309 C.ar      14 UNK        -0.0881 
     11 C11       -52.5398  -27.9405    9.1356 C.ar      14 UNK        -0.0643 
     12 C12       -52.4321  -28.4979   10.4119 C.ar      14 UNK        -0.0930 
     13 C13       -51.8417  -29.7511   10.5925 C.ar      14 UNK        -0.0827 
     14 C14       -51.3537  -30.4483    9.4837 C.ar      14 UNK        -0.1249 
     15 C15       -51.7115  -30.3427   11.9862 C.3       14 UNK         0.0141 
     16 S16       -52.8135  -31.7770   12.1987 S.3       14 UNK        -0.2313 
     17 C17       -53.7310  -31.3635   13.7198 C.3       14 UNK        -0.0915 
     18 CA        -55.1822  -30.9100   13.4191 C.3       13 UNK         0.0968 
     19 C         -56.0351  -30.8831   14.7165 C.2       13 UNK         0.5732 
     20 N         -56.6066  -32.0150   15.1044 N.am      13 UNK        -0.7310 
     21 O         -56.1530  -29.8628   15.3922 O.2       13 UNK        -0.5035 
     22 N         -55.2096  -29.6190   12.7197 N.am      13 UNK        -0.4233 
     23 C         -56.2622  -29.1374   12.0513 C.2       13 UNK         0.4989 
     24 O         -57.3016  -29.7709   11.8562 O.2       13 UNK        -0.4996 
     25 CA        -56.1356  -27.6868   11.5488 C.3       12 UNK         0.0216 
     26 CB        -57.2423  -27.3021   10.5494 C.3       12 UNK        -0.1964 
     27 N         -56.1516  -26.7437   12.6698 N.am      12 UNK        -0.4276 
     28 C         -55.1146  -26.5017   13.4800 C.2       12 UNK         0.5020 
     29 O         -53.9948  -26.9973   13.3214 O.2       12 UNK        -0.5489 
     30 CA        -55.3846  -25.5949   14.6864 C.3       11 UNK         0.0294 
     31 CB        -56.1824  -26.3630   15.7607 C.3       11 UNK        -0.2019 
     32 N         -54.0984  -25.1582   15.2194 N.am      11 UNK        -0.4493 
     33 C         -53.8841  -24.2590   16.1874 C.2       11 UNK         0.4932 
     34 O         -54.7841  -23.6164   16.7311 O.2       11 UNK        -0.5029 
     35 CA        -52.4182  -24.0260   16.6098 C.3       10 UNK         0.0280 
     36 CB        -52.2749  -23.5822   18.0811 C.3       10 UNK        -0.1976 
     37 N         -51.5430  -25.1641   16.3039 N.am      10 UNK        -0.4242 
     38 C         -51.5728  -26.3974   16.8310 C.2       10 UNK         0.5072 
     39 O         -52.3152  -26.7410   17.7515 O.2       10 UNK        -0.5224 
     40 CA        -50.6290  -27.4408   16.2063 C.3       9 UNK         0.0343 
     41 CB        -51.3719  -28.2652   15.1467 C.3       9 UNK        -0.2003 
     42 N         -49.4296  -26.8551   15.6016 N.am      9 UNK        -0.4272 
     43 C         -48.3979  -26.3729   16.3092 C.2       9 UNK         0.4988 
     44 O         -48.3276  -26.4175   17.5382 O.2       9 UNK        -0.5108 
     45 CA        -47.2536  -25.7232   15.5157 C.3       8 UNK         0.0248 
     46 CB        -46.3413  -26.7984   14.9032 C.3       8 UNK        -0.2001 
     47 N         -47.7273  -24.8136   14.4690 N.am      8 UNK        -0.4140 
     48 C         -48.3923  -23.6705   14.6960 C.2       8 UNK         0.5028 
     49 O         -48.6550  -23.2398   15.8190 O.2       8 UNK        -0.5428 
     50 CA        -48.8651  -22.8777   13.4659 C.3       7 UNK         0.0264 
     51 CB        -47.7186  -22.0366   12.8826 C.3       7 UNK        -0.1988 
     52 N         -49.4318  -23.7268   12.4174 N.am      7 UNK        -0.4454 
     53 C         -50.5427  -24.4679   12.5453 C.2       7 UNK         0.5027 
     54 O         -51.2348  -24.4991   13.5611 O.2       7 UNK        -0.5083 
     55 CA        -50.9225  -25.3484   11.3424 C.3       6 UNK         0.0844 
     56 C56       -51.6624  -24.5109   10.2663 C.3       14 UNK        -0.0967 
     57 S57       -51.8447  -25.3182    8.6383 S.3       14 UNK        -0.2604 
     58 C58       -53.1429  -26.5571    8.9406 C.3       14 UNK         0.0134 
     59 N         -49.7519  -26.0577   10.8278 N.am      6 UNK        -0.4116 
     60 C         -49.0597  -26.9920   11.4936 C.2       5 UNK         0.5034 
     61 O         -49.3342  -27.3855   12.6284 O.2       5 UNK        -0.5045 
     62 CA        -47.8100  -27.5342   10.7835 C.3       5 UNK         0.0224 
     63 CB        -48.1959  -28.6171    9.7670 C.3       5 UNK        -0.1978 
     64 N         -47.0460  -26.4749   10.1149 N.am      5 UNK        -0.4737 
     65 C         -46.4244  -25.4839   10.7712 C.2       4 UNK         0.5027 
     66 O         -46.4089  -25.3829   11.9965 O.2       4 UNK        -0.5211 
     67 CA        -45.7381  -24.3986    9.9299 C.3       4 UNK         0.0297 
     68 CB        -44.3349  -24.8558    9.5022 C.3       4 UNK        -0.1993 
     69 N         -46.4985  -23.9944    8.7475 N.am      4 UNK        -0.4486 
     70 C         -47.7464  -23.5118    8.7247 C.2       3 UNK         0.4961 
     71 O         -48.4438  -23.3820    9.7308 O.2       3 UNK        -0.5105 
     72 CA        -48.3282  -23.1125    7.3535 C.3       3 UNK         0.0299 
     73 CB        -48.0000  -21.6431    7.0294 C.3       3 UNK        -0.1972 
     74 N         -47.9681  -24.0022    6.2361 N.am      3 UNK        -0.4305 
     75 C         -46.7631  -24.2708    5.7073 C.2       2 UNK         0.5006 
     76 O         -45.7230  -23.7230    6.0763 O.2       2 UNK        -0.5106 
     77 CA        -46.6959  -25.3514    4.6053 C.3       2 UNK         0.0296 
     78 CB        -45.3755  -26.1500    4.6610 C.3       2 UNK        -0.2002 
     79 N         -47.8444  -26.2711    4.5700 N.am      2 UNK        -0.4032 
     80 C         -48.2770  -27.0896    5.5458 C.2       1 UNK         0.5000 
     81 O         -47.7665  -27.1407    6.6657 O.2       1 UNK        -0.5238 
     82 H82       -51.9191  -24.7289    4.8147 H         1 UNK         0.0889 
     83 H83       -50.7122  -25.5205    5.8093 H         1 UNK         0.0889 
     84 H84       -52.3326  -26.2133    5.6633 H         1 UNK         0.0889 
     85 H85       -50.0007  -28.0330    3.1859 H         1 UNK         0.3028 
     86 H86       -50.1951  -27.8254    6.0785 H         1 UNK         0.0864 
     87 H87       -49.8985  -29.9831    4.4930 H         1 UNK         0.0720 
     88 H88       -48.2118  -29.6176    4.6400 H         1 UNK         0.0720 
     89 H89       -51.0521  -31.7518    7.1677 H         1 UNK         0.0814 
     90 H90       -51.5139  -30.4464    6.1109 H         1 UNK         0.0814 
     91 H91       -52.1806  -28.2420    7.0418 H         1 UNK         0.1469 
     92 H92       -52.7967  -27.9521   11.2689 H         1 UNK         0.1381 
     93 H93       -50.8845  -31.4128    9.6228 H         1 UNK         0.1206 
     94 H94       -50.6793  -30.6509   12.1583 H         1 UNK         0.0813 
     95 H95       -51.9301  -29.5794   12.7313 H         1 UNK         0.0813 
     96 H96       -53.7355  -32.2666   14.3331 H         1 UNK         0.0638 
     97 H97       -53.1969  -30.6122   14.3026 H         1 UNK         0.0638 
     98 H98       -55.6332  -31.6498   12.7543 H         1 UNK         0.0568 
     99 H99       -57.1524  -32.0207   15.9518 H         1 UNK         0.3450 
    100 H100      -56.5080  -32.8618   14.5662 H         1 UNK         0.3450 
    101 H101      -54.4475  -28.9810   12.9164 H         1 UNK         0.2987 
    102 H102      -55.1817  -27.6074   11.0276 H         1 UNK         0.0766 
    103 H103      -57.0900  -26.2960   10.1581 H         1 UNK         0.0798 
    104 H104      -58.2329  -27.3393   11.0044 H         1 UNK         0.0798 
    105 H105      -57.2492  -27.9818    9.6961 H         1 UNK         0.0798 
    106 H106      -57.0452  -26.3272   12.8907 H         1 UNK         0.3198 
    107 H107      -55.9455  -24.7195   14.3533 H         1 UNK         0.0843 
    108 H108      -57.1141  -26.7619   15.3581 H         1 UNK         0.0831 
    109 H109      -56.4490  -25.7234   16.6017 H         1 UNK         0.0831 
    110 H110      -55.6117  -27.2066   16.1518 H         1 UNK         0.0831 
    111 H111      -53.3051  -25.6094   14.7758 H         1 UNK         0.3133 
    112 H112      -52.0567  -23.2062   15.9874 H         1 UNK         0.0566 
    113 H113      -51.2290  -23.4299   18.3478 H         1 UNK         0.0814 
    114 H114      -52.7937  -22.6391   18.2566 H         1 UNK         0.0814 
    115 H115      -52.6956  -24.3151   18.7699 H         1 UNK         0.0814 
    116 H116      -50.9501  -25.0193   15.4931 H         1 UNK         0.3091 
    117 H117      -50.3189  -28.1187   17.0044 H         1 UNK         0.0702 
    118 H118      -52.3040  -28.6708   15.5427 H         1 UNK         0.0785 
    119 H119      -51.6215  -27.6600   14.2745 H         1 UNK         0.0785 
    120 H120      -50.7651  -29.1053   14.8091 H         1 UNK         0.0785 
    121 H121      -49.3902  -26.8323   14.5865 H         1 UNK         0.2998 
    122 H122      -46.6577  -25.1357   16.2173 H         1 UNK         0.0697 
    123 H123      -46.8623  -27.3883   14.1482 H         1 UNK         0.0825 
    124 H124      -45.9804  -27.4883   15.6673 H         1 UNK         0.0825 
    125 H125      -45.4658  -26.3519   14.4314 H         1 UNK         0.0825 
    126 H126      -47.4834  -25.0580   13.5113 H         1 UNK         0.3029 
    127 H127      -49.6523  -22.1966   13.7967 H         1 UNK         0.0897 
    128 H128      -48.0602  -21.4250   12.0472 H         1 UNK         0.0792 
    129 H129      -46.9005  -22.6622   12.5252 H         1 UNK         0.0792 
    130 H130      -47.3088  -21.3609   13.6346 H         1 UNK         0.0792 
    131 H131      -48.9524  -23.7282   11.5191 H         1 UNK         0.3086 
    132 H132      -51.6165  -26.1023   11.7139 H         1 UNK         0.0583 
    133 H133      -52.6501  -24.2218   10.6306 H         1 UNK         0.1020 
    134 H134      -51.1343  -23.5733   10.0806 H         1 UNK         0.1020 
    135 H135      -53.7447  -26.2623    9.8006 H         1 UNK         0.0694 
    136 H136      -53.8199  -26.5753    8.0852 H         1 UNK         0.0694 
    137 H137      -49.4343  -25.7792    9.9115 H         1 UNK         0.2989 
    138 H138      -47.1675  -27.9870   11.5420 H         1 UNK         0.1055 
    139 H139      -48.7010  -29.4491   10.2587 H         1 UNK         0.0806 
    140 H140      -47.3206  -29.0231    9.2599 H         1 UNK         0.0806 
    141 H141      -48.8749  -28.2328    9.0044 H         1 UNK         0.0806 
    142 H142      -47.0249  -26.4855    9.1030 H         1 UNK         0.3061 
    143 H143      -45.6305  -23.5142   10.5607 H         1 UNK         0.0734 
    144 H144      -43.7953  -24.0571    8.9928 H         1 UNK         0.0832 
    145 H145      -43.7385  -25.1478   10.3678 H         1 UNK         0.0832 
    146 H146      -44.3772  -25.7134    8.8294 H         1 UNK         0.0832 
    147 H147      -46.0099  -24.0173    7.8548 H         1 UNK         0.3156 
    148 H148      -49.4127  -23.1909    7.4490 H         1 UNK         0.0589 
    149 H149      -46.9273  -21.4761    6.9275 H         1 UNK         0.0808 
    150 H150      -48.4786  -21.3249    6.1033 H         1 UNK         0.0808 
    151 H151      -48.3557  -20.9825    7.8214 H         1 UNK         0.0808 
    152 H152      -48.7398  -24.5313    5.8609 H         1 UNK         0.3098 
    153 H153      -46.7129  -24.8092    3.6588 H         1 UNK         0.0720 
    154 H154      -45.3275  -26.8939    3.8658 H         1 UNK         0.0791 
    155 H155      -45.2577  -26.6690    5.6130 H         1 UNK         0.0791 
    156 H156      -44.5118  -25.4949    4.5392 H         1 UNK         0.0791 
    157 H157      -48.3507  -26.2936    3.6950 H         1 UNK         0.3028 
@<TRIPOS>BOND
     1    1    2 1    
     2    1   82 1    
     3    1   83 1    
     4    1   84 1    
     5    2    3 2    
     6    2    4 am   BACKBONE|DICT|INTERRES
     7    4    5 1    
     8    4   85 1    
     9    5    6 1    
    10    5   80 1    
    11    5   86 1    
    12    6    7 1    
    13    6   87 1    
    14    6   88 1    
    15    7    8 1    
    16    8    9 1    
    17    8   89 1    
    18    8   90 1    
    19    9   10 ar   
    20    9   14 ar   
    21   10   11 ar   
    22   10   91 1    
    23   11   12 ar   
    24   11   58 1    
    25   12   13 ar   
    26   12   92 1    
    27   13   14 ar   
    28   13   15 1    
    29   14   93 1    
    30   15   16 1    
    31   15   94 1    
    32   15   95 1    
    33   16   17 1    
    34   17   18 1    
    35   17   96 1    
    36   17   97 1    
    37   18   19 1    
    38   18   22 1    
    39   18   98 1    
    40   19   20 am   BACKBONE|DICT|INTERRES
    41   19   21 2    
    42   20   99 1    
    43   20  100 1    
    44   22   23 am   BACKBONE|DICT|INTERRES
    45   22  101 1    
    46   23   24 2    
    47   23   25 1    
    48   25   26 1    
    49   25   27 1    
    50   25  102 1    
    51   26  103 1    
    52   26  104 1    
    53   26  105 1    
    54   27   28 am   BACKBONE|DICT|INTERRES
    55   27  106 1    
    56   28   29 2    
    57   28   30 1    
    58   30   31 1    
    59   30   32 1    
    60   30  107 1    
    61   31  108 1    
    62   31  109 1    
    63   31  110 1    
    64   32   33 am   BACKBONE|DICT|INTERRES
    65   32  111 1    
    66   33   34 2    
    67   33   35 1    
    68   35   36 1    
    69   35   37 1    
    70   35  112 1    
    71   36  113 1    
    72   36  114 1    
    73   36  115 1    
    74   37   38 am   BACKBONE|DICT|INTERRES
    75   37  116 1    
    76   38   39 2    
    77   38   40 1    
    78   40   41 1    
    79   40   42 1    
    80   40  117 1    
    81   41  118 1    
    82   41  119 1    
    83   41  120 1    
    84   42   43 am   BACKBONE|DICT|INTERRES
    85   42  121 1    
    86   43   44 2    
    87   43   45 1    
    88   45   46 1    
    89   45   47 1    
    90   45  122 1    
    91   46  123 1    
    92   46  124 1    
    93   46  125 1    
    94   47   48 am   BACKBONE|DICT|INTERRES
    95   47  126 1    
    96   48   49 2    
    97   48   50 1    
    98   50   51 1    
    99   50   52 1    
   100   50  127 1    
   101   51  128 1    
   102   51  129 1    
   103   51  130 1    
   104   52   53 am   BACKBONE|DICT|INTERRES
   105   52  131 1    
   106   53   54 2    
   107   53   55 1    
   108   55   56 1    
   109   55   59 1    
   110   55  132 1    
   111   56   57 1    
   112   56  133 1    
   113   56  134 1    
   114   57   58 1    
   115   58  135 1    
   116   58  136 1    
   117   59   60 am   BACKBONE|DICT|INTERRES
   118   59  137 1    
   119   60   61 2    
   120   60   62 1    
   121   62   63 1    
   122   62   64 1    
   123   62  138 1    
   124   63  139 1    
   125   63  140 1    
   126   63  141 1    
   127   64   65 am   BACKBONE|DICT|INTERRES
   128   64  142 1    
   129   65   66 2    
   130   65   67 1    
   131   67   68 1    
   132   67   69 1    
   133   67  143 1    
   134   68  144 1    
   135   68  145 1    
   136   68  146 1    
   137   69   70 am   BACKBONE|DICT|INTERRES
   138   69  147 1    
   139   70   71 2    
   140   70   72 1    
   141   72   73 1    
   142   72   74 1    
   143   72  148 1    
   144   73  149 1    
   145   73  150 1    
   146   73  151 1    
   147   74   75 am   BACKBONE|DICT|INTERRES
   148   74  152 1    
   149   75   76 2    
   150   75   77 1    
   151   77   78 1    
   152   77   79 1    
   153   77  153 1    
   154   78  154 1    
   155   78  155 1    
   156   78  156 1    
   157   79   80 am   BACKBONE|DICT|INTERRES
   158   79  157 1    
   159   80   81 2    
@<TRIPOS>SUBSTRUCTURE
     1 UNK         1 GROUP             0       ****    0 ROOT    
