@<TRIPOS>MOLECULE
3R207
157   159    1
SMALL
USER_CHARGES


@<TRIPOS>ATOM
      1 CA        -48.4807  -29.0843    5.8089 C.3       0 UNK        -0.1975 
      2 C         -48.3892  -27.5716    5.9346 C.2       0 UNK         0.4852 
      3 O         -47.3099  -27.0025    5.7584 O.2       0 UNK        -0.5216 
      4 N         -49.5246  -26.9264    6.2309 N.am      1 UNK        -0.4461 
      5 CA        -49.7099  -25.4730    6.3071 C.3       1 UNK         0.0864 
      6 C6        -51.1493  -25.0967    6.7245 C.3       14 UNK        -0.0898 
      7 S7        -52.4360  -25.7718    5.6194 S.3       14 UNK        -0.2598 
      8 C8        -53.8969  -25.8181    6.7271 C.3       14 UNK         0.0286 
      9 C9        -53.7162  -26.6444    8.0022 C.ar      14 UNK        -0.0844 
     10 C10       -52.8658  -27.7539    8.0374 C.ar      14 UNK        -0.0881 
     11 C11       -52.6414  -28.4462    9.2269 C.ar      14 UNK        -0.0643 
     12 C12       -53.3363  -28.0778   10.3812 C.ar      14 UNK        -0.0930 
     13 C13       -54.2185  -26.9929   10.3579 C.ar      14 UNK        -0.0827 
     14 C14       -54.3960  -26.2759    9.1689 C.ar      14 UNK        -0.1249 
     15 C15       -54.9368  -26.5668   11.6324 C.3       14 UNK         0.0141 
     16 S16       -56.7417  -26.7698   11.5307 S.3       14 UNK        -0.2313 
     17 C17       -56.9126  -28.5825   11.4538 C.3       14 UNK        -0.0915 
     18 CA        -57.0058  -29.2629   12.8458 C.3       13 UNK         0.0968 
     19 C         -58.4062  -29.0592   13.5011 C.2       13 UNK         0.5732 
     20 N         -59.2499  -30.0812   13.5843 N.am      13 UNK        -0.7310 
     21 O         -58.7169  -27.9712   13.9771 O.2       13 UNK        -0.5035 
     22 N         -56.5912  -30.6709   12.7339 N.am      13 UNK        -0.4233 
     23 C         -56.2258  -31.5127   13.7113 C.2       13 UNK         0.4989 
     24 O         -56.0439  -32.7071   13.4740 O.2       13 UNK        -0.4996 
     25 CA        -56.0104  -30.9869   15.1526 C.3       12 UNK         0.0216 
     26 CB        -55.9251  -32.1362   16.1798 C.3       12 UNK        -0.1964 
     27 N         -54.8378  -30.1138   15.3090 N.am      12 UNK        -0.4276 
     28 C         -53.5755  -30.3309   14.9128 C.2       12 UNK         0.5020 
     29 O         -53.2186  -31.2755   14.2071 O.2       12 UNK        -0.5489 
     30 CA        -52.5242  -29.3314   15.4345 C.3       11 UNK         0.0294 
     31 CB        -51.0889  -29.6969   15.0141 C.3       11 UNK        -0.2019 
     32 N         -52.7881  -27.9396   15.0611 N.am      11 UNK        -0.4493 
     33 C         -53.6742  -27.1304   15.6559 C.2       11 UNK         0.4932 
     34 O         -54.5278  -27.5240   16.4538 O.2       11 UNK        -0.5029 
     35 CA        -53.5319  -25.6299   15.3326 C.3       10 UNK         0.0280 
     36 CB        -54.4405  -24.7310   16.1956 C.3       10 UNK        -0.1976 
     37 N         -52.1294  -25.1963   15.4085 N.am      10 UNK        -0.4242 
     38 C         -51.3016  -25.2676   16.4651 C.2       10 UNK         0.5072 
     39 O         -51.6517  -25.6045   17.5968 O.2       10 UNK        -0.5224 
     40 CA        -49.8146  -24.9430   16.2195 C.3       9 UNK         0.0343 
     41 CB        -49.0045  -26.2412   16.0754 C.3       9 UNK        -0.2003 
     42 N         -49.5821  -24.1118   15.0375 N.am      9 UNK        -0.4272 
     43 C         -49.8718  -22.8059   14.9586 C.2       9 UNK         0.4988 
     44 O         -50.2966  -22.1353   15.8999 O.2       9 UNK        -0.5108 
     45 CA        -49.6876  -22.1486   13.5819 C.3       8 UNK         0.0248 
     46 CB        -48.2210  -21.7468   13.3533 C.3       8 UNK        -0.2001 
     47 N         -50.1429  -23.0157   12.4914 N.am      8 UNK        -0.4140 
     48 C         -51.4250  -23.3376   12.2670 C.2       8 UNK         0.5028 
     49 O         -52.3666  -22.9247   12.9430 O.2       8 UNK        -0.5428 
     50 CA        -51.7050  -24.2933   11.0989 C.3       7 UNK         0.0264 
     51 CB        -51.7525  -23.5160    9.7743 C.3       7 UNK        -0.1988 
     52 N         -50.7511  -25.4065   11.0267 N.am      7 UNK        -0.4454 
     53 C         -50.6973  -26.4004   11.9306 C.2       7 UNK         0.5027 
     54 O         -51.5162  -26.5413   12.8405 O.2       7 UNK        -0.5083 
     55 CA        -49.4917  -27.3606   11.8810 C.3       6 UNK         0.0844 
     56 C56       -49.8308  -28.7569   11.3040 C.3       14 UNK        -0.0967 
     57 S57       -49.9355  -28.8610    9.4856 S.3       14 UNK        -0.2604 
     58 C58       -51.6053  -29.5550    9.2542 C.3       14 UNK         0.0134 
     59 N         -48.3037  -26.7543   11.2789 N.am      6 UNK        -0.4116 
     60 C         -47.6011  -25.7561   11.8326 C.2       5 UNK         0.5034 
     61 O         -47.9042  -25.2365   12.9086 O.2       5 UNK        -0.5045 
     62 CA        -46.4016  -25.2059   11.0407 C.3       5 UNK         0.0224 
     63 CB        -45.2277  -24.7945   11.9532 C.3       5 UNK        -0.1978 
     64 N         -45.9564  -26.0831    9.9507 N.am      5 UNK        -0.4737 
     65 C         -45.3667  -27.2854   10.0322 C.2       4 UNK         0.5027 
     66 O         -45.0915  -27.8517   11.0893 O.2       4 UNK        -0.5211 
     67 CA        -45.0548  -27.9900    8.6991 C.3       4 UNK         0.0297 
     68 CB        -46.0934  -29.0881    8.4294 C.3       4 UNK        -0.1993 
     69 N         -45.0216  -27.0558    7.5672 N.am      4 UNK        -0.4486 
     70 C         -43.9821  -26.2541    7.2940 C.2       3 UNK         0.4961 
     71 O         -42.8994  -26.3072    7.8783 O.2       3 UNK        -0.5105 
     72 CA        -44.2069  -25.1799    6.2193 C.3       3 UNK         0.0299 
     73 CB        -44.1577  -25.7845    4.8065 C.3       3 UNK        -0.1972 
     74 N         -45.4712  -24.4653    6.4208 N.am      3 UNK        -0.4305 
     75 C         -45.6890  -23.5750    7.4028 C.2       2 UNK         0.5006 
     76 O         -44.8350  -23.2490    8.2268 O.2       2 UNK        -0.5106 
     77 CA        -47.0840  -22.9289    7.4978 C.3       2 UNK         0.0296 
     78 CB        -47.0477  -21.4920    6.9519 C.3       2 UNK        -0.2002 
     79 N         -48.1208  -23.6821    6.7917 N.am      2 UNK        -0.4032 
     80 C         -48.7026  -24.7943    7.2580 C.2       1 UNK         0.5000 
     81 O         -48.4865  -25.2710    8.3771 O.2       1 UNK        -0.5238 
     82 H82       -49.2093  -29.3605    5.0471 H         1 UNK         0.0889 
     83 H83       -48.7818  -29.5345    6.7540 H         1 UNK         0.0889 
     84 H84       -47.5178  -29.5061    5.5219 H         1 UNK         0.0889 
     85 H85       -50.3623  -27.4651    6.3877 H         1 UNK         0.3028 
     86 H86       -49.5383  -25.0910    5.2987 H         1 UNK         0.0864 
     87 H87       -51.2758  -24.0128    6.7577 H         1 UNK         0.0720 
     88 H88       -51.3218  -25.4662    7.7346 H         1 UNK         0.0720 
     89 H89       -54.7439  -26.2210    6.1708 H         1 UNK         0.0814 
     90 H90       -54.1577  -24.7905    6.9855 H         1 UNK         0.0814 
     91 H91       -52.3356  -28.0591    7.1477 H         1 UNK         0.1469 
     92 H92       -53.1669  -28.6148   11.3042 H         1 UNK         0.1381 
     93 H93       -55.0605  -25.4226    9.1584 H         1 UNK         0.1206 
     94 H94       -54.7272  -25.5163   11.8319 H         1 UNK         0.0813 
     95 H95       -54.5613  -27.1211   12.4937 H         1 UNK         0.0813 
     96 H96       -56.0608  -28.9740   10.8964 H         1 UNK         0.0638 
     97 H97       -57.7872  -28.8222   10.8462 H         1 UNK         0.0638 
     98 H98       -56.2856  -28.7679   13.4975 H         1 UNK         0.0568 
     99 H99       -60.1477  -29.9417   14.0209 H         1 UNK         0.3450 
    100 H100      -59.0160  -30.9795   13.1923 H         1 UNK         0.3450 
    101 H101      -56.6938  -31.0613   11.8095 H         1 UNK         0.2987 
    102 H102      -56.8827  -30.3944   15.4254 H         1 UNK         0.0766 
    103 H103      -55.8645  -31.7537   17.1987 H         1 UNK         0.0798 
    104 H104      -55.0529  -32.7687   16.0089 H         1 UNK         0.0798 
    105 H105      -56.8075  -32.7753   16.1275 H         1 UNK         0.0798 
    106 H106      -54.9868  -29.2623   15.8475 H         1 UNK         0.3198 
    107 H107      -52.5582  -29.3958   16.5247 H         1 UNK         0.0843 
    108 H108      -50.9652  -29.6596   13.9339 H         1 UNK         0.0831 
    109 H109      -50.8332  -30.7077   15.3351 H         1 UNK         0.0831 
    110 H110      -50.3582  -29.0251   15.4633 H         1 UNK         0.0831 
    111 H111      -52.1856  -27.5300   14.3512 H         1 UNK         0.3133 
    112 H112      -53.8343  -25.5036   14.2926 H         1 UNK         0.0566 
    113 H113      -54.3234  -23.6805   15.9292 H         1 UNK         0.0814 
    114 H114      -55.4908  -24.9874   16.0521 H         1 UNK         0.0814 
    115 H115      -54.2234  -24.8342   17.2592 H         1 UNK         0.0814 
    116 H116      -51.7211  -24.9364   14.5206 H         1 UNK         0.3091 
    117 H117      -49.4461  -24.4052   17.0957 H         1 UNK         0.0702 
    118 H118      -47.9390  -26.0347   15.9720 H         1 UNK         0.0785 
    119 H119      -49.3194  -26.8137   15.2034 H         1 UNK         0.0785 
    120 H120      -49.1287  -26.8810   16.9503 H         1 UNK         0.0785 
    121 H121      -49.1528  -24.5630   14.2338 H         1 UNK         0.2998 
    122 H122      -50.2938  -21.2402   13.5637 H         1 UNK         0.0697 
    123 H123      -47.5547  -22.6095   13.3633 H         1 UNK         0.0825 
    124 H124      -47.8799  -21.0659   14.1343 H         1 UNK         0.0825 
    125 H125      -48.0929  -21.2338   12.4000 H         1 UNK         0.0825 
    126 H126      -49.4301  -23.4270   11.9082 H         1 UNK         0.3029 
    127 H127      -52.6964  -24.7104   11.2695 H         1 UNK         0.0897 
    128 H128      -52.2161  -22.5364    9.9030 H         1 UNK         0.0792 
    129 H129      -52.3644  -24.0423    9.0451 H         1 UNK         0.0792 
    130 H130      -50.7603  -23.3536    9.3526 H         1 UNK         0.0792 
    131 H131      -50.0583  -25.3861   10.2892 H         1 UNK         0.3086 
    132 H132      -49.2356  -27.5368   12.9276 H         1 UNK         0.0583 
    133 H133      -49.0599  -29.4630   11.6167 H         1 UNK         0.1020 
    134 H134      -50.7539  -29.1323   11.7457 H         1 UNK         0.1020 
    135 H135      -51.6288  -30.1019    8.3104 H         1 UNK         0.0694 
    136 H136      -51.8317  -30.2864   10.0316 H         1 UNK         0.0694 
    137 H137      -48.0371  -27.0888   10.3639 H         1 UNK         0.2989 
    138 H138      -46.7668  -24.2990   10.5576 H         1 UNK         0.1055 
    139 H139      -45.5313  -24.0199   12.6583 H         1 UNK         0.0806 
    140 H140      -44.3978  -24.3928   11.3715 H         1 UNK         0.0806 
    141 H141      -44.8538  -25.6341   12.5395 H         1 UNK         0.0806 
    142 H142      -46.1836  -25.7526    9.0227 H         1 UNK         0.3061 
    143 H143      -44.0759  -28.4649    8.7947 H         1 UNK         0.0734 
    144 H144      -45.8917  -29.6070    7.4925 H         1 UNK         0.0832 
    145 H145      -46.0838  -29.8366    9.2229 H         1 UNK         0.0832 
    146 H146      -47.1024  -28.6800    8.3851 H         1 UNK         0.0832 
    147 H147      -45.8603  -26.9797    6.9943 H         1 UNK         0.3156 
    148 H148      -43.3931  -24.4556    6.2975 H         1 UNK         0.0589 
    149 H149      -44.9510  -26.5143    4.6436 H         1 UNK         0.0808 
    150 H150      -44.2509  -25.0128    4.0422 H         1 UNK         0.0808 
    151 H151      -43.2086  -26.2945    4.6360 H         1 UNK         0.0808 
    152 H152      -46.2347  -24.7166    5.8083 H         1 UNK         0.3098 
    153 H153      -47.3508  -22.8798    8.5557 H         1 UNK         0.0720 
    154 H154      -48.0109  -20.9962    7.0747 H         1 UNK         0.0791 
    155 H155      -46.7882  -21.4670    5.8927 H         1 UNK         0.0791 
    156 H156      -46.3073  -20.8914    7.4825 H         1 UNK         0.0791 
    157 H157      -48.3730  -23.3452    5.8731 H         1 UNK         0.3028 
@<TRIPOS>BOND
     1    1    2 1    
     2    1   82 1    
     3    1   83 1    
     4    1   84 1    
     5    2    3 2    
     6    2    4 am   BACKBONE|DICT|INTERRES
     7    4    5 1    
     8    4   85 1    
     9    5    6 1    
    10    5   80 1    
    11    5   86 1    
    12    6    7 1    
    13    6   87 1    
    14    6   88 1    
    15    7    8 1    
    16    8    9 1    
    17    8   89 1    
    18    8   90 1    
    19    9   10 ar   
    20    9   14 ar   
    21   10   11 ar   
    22   10   91 1    
    23   11   12 ar   
    24   11   58 1    
    25   12   13 ar   
    26   12   92 1    
    27   13   14 ar   
    28   13   15 1    
    29   14   93 1    
    30   15   16 1    
    31   15   94 1    
    32   15   95 1    
    33   16   17 1    
    34   17   18 1    
    35   17   96 1    
    36   17   97 1    
    37   18   19 1    
    38   18   22 1    
    39   18   98 1    
    40   19   20 am   BACKBONE|DICT|INTERRES
    41   19   21 2    
    42   20   99 1    
    43   20  100 1    
    44   22   23 am   BACKBONE|DICT|INTERRES
    45   22  101 1    
    46   23   24 2    
    47   23   25 1    
    48   25   26 1    
    49   25   27 1    
    50   25  102 1    
    51   26  103 1    
    52   26  104 1    
    53   26  105 1    
    54   27   28 am   BACKBONE|DICT|INTERRES
    55   27  106 1    
    56   28   29 2    
    57   28   30 1    
    58   30   31 1    
    59   30   32 1    
    60   30  107 1    
    61   31  108 1    
    62   31  109 1    
    63   31  110 1    
    64   32   33 am   BACKBONE|DICT|INTERRES
    65   32  111 1    
    66   33   34 2    
    67   33   35 1    
    68   35   36 1    
    69   35   37 1    
    70   35  112 1    
    71   36  113 1    
    72   36  114 1    
    73   36  115 1    
    74   37   38 am   BACKBONE|DICT|INTERRES
    75   37  116 1    
    76   38   39 2    
    77   38   40 1    
    78   40   41 1    
    79   40   42 1    
    80   40  117 1    
    81   41  118 1    
    82   41  119 1    
    83   41  120 1    
    84   42   43 am   BACKBONE|DICT|INTERRES
    85   42  121 1    
    86   43   44 2    
    87   43   45 1    
    88   45   46 1    
    89   45   47 1    
    90   45  122 1    
    91   46  123 1    
    92   46  124 1    
    93   46  125 1    
    94   47   48 am   BACKBONE|DICT|INTERRES
    95   47  126 1    
    96   48   49 2    
    97   48   50 1    
    98   50   51 1    
    99   50   52 1    
   100   50  127 1    
   101   51  128 1    
   102   51  129 1    
   103   51  130 1    
   104   52   53 am   BACKBONE|DICT|INTERRES
   105   52  131 1    
   106   53   54 2    
   107   53   55 1    
   108   55   56 1    
   109   55   59 1    
   110   55  132 1    
   111   56   57 1    
   112   56  133 1    
   113   56  134 1    
   114   57   58 1    
   115   58  135 1    
   116   58  136 1    
   117   59   60 am   BACKBONE|DICT|INTERRES
   118   59  137 1    
   119   60   61 2    
   120   60   62 1    
   121   62   63 1    
   122   62   64 1    
   123   62  138 1    
   124   63  139 1    
   125   63  140 1    
   126   63  141 1    
   127   64   65 am   BACKBONE|DICT|INTERRES
   128   64  142 1    
   129   65   66 2    
   130   65   67 1    
   131   67   68 1    
   132   67   69 1    
   133   67  143 1    
   134   68  144 1    
   135   68  145 1    
   136   68  146 1    
   137   69   70 am   BACKBONE|DICT|INTERRES
   138   69  147 1    
   139   70   71 2    
   140   70   72 1    
   141   72   73 1    
   142   72   74 1    
   143   72  148 1    
   144   73  149 1    
   145   73  150 1    
   146   73  151 1    
   147   74   75 am   BACKBONE|DICT|INTERRES
   148   74  152 1    
   149   75   76 2    
   150   75   77 1    
   151   77   78 1    
   152   77   79 1    
   153   77  153 1    
   154   78  154 1    
   155   78  155 1    
   156   78  156 1    
   157   79   80 am   BACKBONE|DICT|INTERRES
   158   79  157 1    
   159   80   81 2    
@<TRIPOS>SUBSTRUCTURE
     1 UNK         1 GROUP             0       ****    0 ROOT    
