@<TRIPOS>MOLECULE
3R207
157   159    1
SMALL
USER_CHARGES


@<TRIPOS>ATOM
      1 CA        -45.4704  -28.7125    3.7421 C.3       0 UNK        -0.1975 
      2 C         -46.5449  -27.6476    3.9063 C.2       0 UNK         0.4852 
      3 O         -46.2307  -26.4561    3.9127 O.2       0 UNK        -0.5216 
      4 N         -47.8108  -28.0673    4.0296 N.am      1 UNK        -0.4461 
      5 CA        -48.9622  -27.1885    4.2542 C.3       1 UNK         0.0864 
      6 C6        -50.2871  -27.8666    3.8081 C.3       14 UNK        -0.0898 
      7 S7        -50.8286  -29.2666    4.8537 S.3       14 UNK        -0.2598 
      8 C8        -52.1797  -28.4651    5.7832 C.3       14 UNK         0.0286 
      9 C9        -52.4442  -29.1008    7.1413 C.ar      14 UNK        -0.0844 
     10 C10       -51.3957  -29.3553    8.0325 C.ar      14 UNK        -0.0881 
     11 C11       -51.6503  -29.8632    9.3127 C.ar      14 UNK        -0.0643 
     12 C12       -52.9709  -30.1212    9.6930 C.ar      14 UNK        -0.0930 
     13 C13       -54.0264  -29.8692    8.8126 C.ar      14 UNK        -0.0827 
     14 C14       -53.7574  -29.3644    7.5382 C.ar      14 UNK        -0.1249 
     15 C15       -55.4618  -30.1095    9.2458 C.3       14 UNK         0.0141 
     16 S16       -56.1476  -28.6043    9.9961 S.3       14 UNK        -0.2313 
     17 C17       -57.8764  -29.1078   10.2989 C.3       14 UNK        -0.0915 
     18 CA        -58.1680  -29.4970   11.7735 C.3       13 UNK         0.0968 
     19 C         -57.6951  -30.9421   12.1138 C.2       13 UNK         0.5732 
     20 N         -56.8641  -31.1663   13.1248 N.am      13 UNK        -0.7310 
     21 O         -58.1041  -31.8896   11.4468 O.2       13 UNK        -0.5035 
     22 N         -57.7005  -28.4550   12.6971 N.am      13 UNK        -0.4233 
     23 C         -58.1900  -28.2195   13.9177 C.2       13 UNK         0.4989 
     24 O         -59.1737  -28.7972   14.3846 O.2       13 UNK        -0.4996 
     25 CA        -57.4374  -27.1609   14.7509 C.3       12 UNK         0.0216 
     26 CB        -57.8064  -27.2150   16.2487 C.3       12 UNK        -0.1964 
     27 N         -55.9737  -27.2030   14.5912 N.am      12 UNK        -0.4276 
     28 C         -55.1655  -28.2560   14.7973 C.2       12 UNK         0.5020 
     29 O         -55.5698  -29.3956   15.0310 O.2       12 UNK        -0.5489 
     30 CA        -53.6444  -28.0118   14.7315 C.3       11 UNK         0.0294 
     31 CB        -53.0988  -28.4152   13.3509 C.3       11 UNK        -0.2019 
     32 N         -53.2048  -26.6449   15.0449 N.am      11 UNK        -0.4493 
     33 C         -53.4683  -25.9694   16.1740 C.2       11 UNK         0.4932 
     34 O         -54.1600  -26.4022   17.0970 O.2       11 UNK        -0.5029 
     35 CA        -52.8143  -24.5820   16.2783 C.3       10 UNK         0.0280 
     36 CB        -53.3714  -23.7255   17.4353 C.3       10 UNK        -0.1976 
     37 N         -51.3564  -24.6987   16.3512 N.am      10 UNK        -0.4242 
     38 C         -50.6199  -25.2877   17.3069 C.2       10 UNK         0.5072 
     39 O         -51.0787  -25.7729   18.3417 O.2       10 UNK        -0.5224 
     40 CA        -49.1013  -25.3650   17.0670 C.3       9 UNK         0.0343 
     41 CB        -48.7105  -26.7805   16.6102 C.3       9 UNK        -0.2003 
     42 N         -48.6175  -24.4000   16.0780 N.am      9 UNK        -0.4272 
     43 C         -48.5308  -23.0761   16.2646 C.2       9 UNK         0.4988 
     44 O         -48.7962  -22.5112   17.3259 O.2       9 UNK        -0.5108 
     45 CA        -48.0973  -22.2423   15.0485 C.3       8 UNK         0.0248 
     46 CB        -46.5696  -22.2798   14.8750 C.3       8 UNK        -0.2001 
     47 N         -48.7480  -22.6845   13.8114 N.am      8 UNK        -0.4140 
     48 C         -50.0390  -22.4774   13.5133 C.2       8 UNK         0.5028 
     49 O         -50.8249  -21.8785   14.2472 O.2       8 UNK        -0.5428 
     50 CA        -50.5447  -23.0426   12.1745 C.3       7 UNK         0.0264 
     51 CB        -50.2721  -22.0480   11.0347 C.3       7 UNK        -0.1988 
     52 N         -49.9555  -24.3414   11.8404 N.am      7 UNK        -0.4454 
     53 C         -50.2107  -25.4792   12.5034 C.2       7 UNK         0.5027 
     54 O         -51.0150  -25.5638   13.4342 O.2       7 UNK        -0.5083 
     55 CA        -49.4125  -26.7265   12.0730 C.3       6 UNK         0.0844 
     56 C56       -50.0920  -27.4046   10.8603 C.3       14 UNK        -0.0967 
     57 S57       -49.1995  -28.8912   10.2917 S.3       14 UNK        -0.2604 
     58 C58       -50.5161  -30.1527   10.2933 C.3       14 UNK         0.0134 
     59 N         -47.9937  -26.4383   11.8239 N.am      6 UNK        -0.4116 
     60 C         -47.1253  -25.9353   12.7105 C.2       5 UNK         0.5034 
     61 O         -47.4533  -25.5714   13.8379 O.2       5 UNK        -0.5045 
     62 CA        -45.6513  -25.7635   12.2969 C.3       5 UNK         0.0224 
     63 CB        -44.7242  -26.6276   13.1750 C.3       5 UNK        -0.1978 
     64 N         -45.3661  -25.9539   10.8683 N.am      5 UNK        -0.4737 
     65 C         -45.4197  -27.0673   10.1257 C.2       4 UNK         0.5027 
     66 O         -45.7236  -28.1714   10.5750 O.2       4 UNK        -0.5211 
     67 CA        -45.1159  -26.8964    8.6215 C.3       4 UNK         0.0297 
     68 CB        -45.3565  -28.1904    7.8231 C.3       4 UNK        -0.1993 
     69 N         -45.8929  -25.8070    8.0148 N.am      4 UNK        -0.4486 
     70 C         -45.6336  -24.4971    8.1607 C.2       3 UNK         0.4961 
     71 O         -44.6800  -24.0723    8.8144 O.2       3 UNK        -0.5105 
     72 CA        -46.5875  -23.4765    7.5131 C.3       3 UNK         0.0299 
     73 CB        -45.9298  -22.8435    6.2761 C.3       3 UNK        -0.1972 
     74 N         -47.8857  -24.0263    7.1285 N.am      3 UNK        -0.4305 
     75 C         -48.8324  -24.4741    7.9652 C.2       2 UNK         0.5006 
     76 O         -48.7449  -24.4367    9.1943 O.2       2 UNK        -0.5106 
     77 CA        -50.0767  -25.1027    7.3087 C.3       2 UNK         0.0296 
     78 CB        -51.2284  -24.0883    7.2449 C.3       2 UNK        -0.2002 
     79 N         -49.8336  -25.6539    5.9680 N.am      2 UNK        -0.4032 
     80 C         -49.0040  -26.6775    5.7134 C.2       1 UNK         0.5000 
     81 O         -48.3084  -27.2108    6.5826 O.2       1 UNK        -0.5238 
     82 H82       -44.6336  -28.5125    4.4103 H         1 UNK         0.0889 
     83 H83       -45.0954  -28.7104    2.7191 H         1 UNK         0.0889 
     84 H84       -45.8499  -29.7095    3.9654 H         1 UNK         0.0889 
     85 H85       -48.0110  -29.0568    4.0613 H         1 UNK         0.3028 
     86 H86       -48.8244  -26.3096    3.6201 H         1 UNK         0.0864 
     87 H87       -51.0868  -27.1265    3.7488 H         1 UNK         0.0720 
     88 H88       -50.1778  -28.2389    2.7882 H         1 UNK         0.0720 
     89 H89       -53.0780  -28.4821    5.1639 H         1 UNK         0.0814 
     90 H90       -51.9495  -27.4147    5.9564 H         1 UNK         0.0814 
     91 H91       -50.3787  -29.1417    7.7314 H         1 UNK         0.1469 
     92 H92       -53.1818  -30.5085   10.6805 H         1 UNK         0.1381 
     93 H93       -54.5776  -29.1510    6.8661 H         1 UNK         0.1206 
     94 H94       -55.5107  -30.9330    9.9597 H         1 UNK         0.0813 
     95 H95       -56.0685  -30.4031    8.3878 H         1 UNK         0.0813 
     96 H96       -58.1629  -29.9049    9.6104 H         1 UNK         0.0638 
     97 H97       -58.5049  -28.2581   10.0282 H         1 UNK         0.0638 
     98 H98       -59.2546  -29.5394   11.8678 H         1 UNK         0.0568 
     99 H99       -56.5848  -32.1134   13.3216 H         1 UNK         0.3450 
    100 H100      -56.5216  -30.4137   13.7152 H         1 UNK         0.3450 
    101 H101      -56.8793  -27.9510   12.3966 H         1 UNK         0.2987 
    102 H102      -57.7608  -26.1921   14.3674 H         1 UNK         0.0766 
    103 H103      -57.2842  -26.4425   16.8137 H         1 UNK         0.0798 
    104 H104      -57.5527  -28.1794   16.6904 H         1 UNK         0.0798 
    105 H105      -58.8754  -27.0578   16.3980 H         1 UNK         0.0798 
    106 H106      -55.5299  -26.3210   14.3766 H         1 UNK         0.3198 
    107 H107      -53.1918  -28.6669   15.4786 H         1 UNK         0.0843 
    108 H108      -53.4586  -27.7522   12.5630 H         1 UNK         0.0831 
    109 H109      -53.4055  -29.4289   13.0886 H         1 UNK         0.0831 
    110 H110      -52.0091  -28.3965   13.3371 H         1 UNK         0.0831 
    111 H111      -52.5597  -26.2179   14.3832 H         1 UNK         0.3133 
    112 H112      -53.0334  -24.0555   15.3479 H         1 UNK         0.0566 
    113 H113      -53.2129  -24.1929   18.4075 H         1 UNK         0.0814 
    114 H114      -52.9044  -22.7408   17.4573 H         1 UNK         0.0814 
    115 H115      -54.4454  -23.5740   17.3220 H         1 UNK         0.0814 
    116 H116      -50.8624  -24.3880   15.5253 H         1 UNK         0.3091 
    117 H117      -48.6047  -25.1583   18.0172 H         1 UNK         0.0702 
    118 H118      -47.6313  -26.8738   16.4867 H         1 UNK         0.0785 
    119 H119      -49.1790  -27.0384   15.6591 H         1 UNK         0.0785 
    120 H120      -49.0199  -27.5284   17.3415 H         1 UNK         0.0785 
    121 H121      -48.3044  -24.7878   15.1884 H         1 UNK         0.2998 
    122 H122      -48.3901  -21.2064   15.2338 H         1 UNK         0.0697 
    123 H123      -46.2038  -23.2899   14.6880 H         1 UNK         0.0825 
    124 H124      -46.0687  -21.9156   15.7730 H         1 UNK         0.0825 
    125 H125      -46.2481  -21.6471   14.0476 H         1 UNK         0.0825 
    126 H126      -48.1882  -23.2227   13.1670 H         1 UNK         0.3029 
    127 H127      -51.6256  -23.1744   12.2609 H         1 UNK         0.0897 
    128 H128      -50.6982  -21.0690   11.2587 H         1 UNK         0.0792 
    129 H129      -50.7167  -22.3864   10.0996 H         1 UNK         0.0792 
    130 H130      -49.2036  -21.9096   10.8642 H         1 UNK         0.0792 
    131 H131      -49.3342  -24.3726   11.0345 H         1 UNK         0.3086 
    132 H132      -49.4451  -27.4274   12.9098 H         1 UNK         0.0583 
    133 H133      -51.1232  -27.6693   11.1012 H         1 UNK         0.1020 
    134 H134      -50.1505  -26.7134   10.0210 H         1 UNK         0.1020 
    135 H135      -50.0744  -31.1161   10.0362 H         1 UNK         0.0694 
    136 H136      -50.8997  -30.2490   11.3104 H         1 UNK         0.0694 
    137 H137      -47.6320  -26.7484   10.9333 H         1 UNK         0.2989 
    138 H138      -45.4114  -24.7192   12.5032 H         1 UNK         0.1055 
    139 H139      -44.8485  -26.3833   14.2310 H         1 UNK         0.0806 
    140 H140      -43.6755  -26.4634   12.9273 H         1 UNK         0.0806 
    141 H141      -44.9337  -27.6919   13.0652 H         1 UNK         0.0806 
    142 H142      -45.1063  -25.1091   10.3636 H         1 UNK         0.3061 
    143 H143      -44.0549  -26.6519    8.5373 H         1 UNK         0.0734 
    144 H144      -45.1311  -28.0520    6.7667 H         1 UNK         0.0832 
    145 H145      -44.7217  -28.9990    8.1874 H         1 UNK         0.0832 
    146 H146      -46.3909  -28.5274    7.9049 H         1 UNK         0.0832 
    147 H147      -46.7189  -26.0880    7.4964 H         1 UNK         0.3156 
    148 H148      -46.7658  -22.6890    8.2483 H         1 UNK         0.0589 
    149 H149      -45.7434  -23.5831    5.4958 H         1 UNK         0.0808 
    150 H150      -46.5532  -22.0558    5.8526 H         1 UNK         0.0808 
    151 H151      -44.9704  -22.3911    6.5314 H         1 UNK         0.0808 
    152 H152      -48.0588  -24.1088    6.1376 H         1 UNK         0.3098 
    153 H153      -50.3958  -25.9332    7.9389 H         1 UNK         0.0720 
    154 H154      -52.1357  -24.5413    6.8447 H         1 UNK         0.0791 
    155 H155      -50.9773  -23.2282    6.6228 H         1 UNK         0.0791 
    156 H156      -51.4717  -23.7131    8.2394 H         1 UNK         0.0791 
    157 H157      -50.3671  -25.2517    5.2102 H         1 UNK         0.3028 
@<TRIPOS>BOND
     1    1    2 1    
     2    1   82 1    
     3    1   83 1    
     4    1   84 1    
     5    2    3 2    
     6    2    4 am   BACKBONE|DICT|INTERRES
     7    4    5 1    
     8    4   85 1    
     9    5    6 1    
    10    5   80 1    
    11    5   86 1    
    12    6    7 1    
    13    6   87 1    
    14    6   88 1    
    15    7    8 1    
    16    8    9 1    
    17    8   89 1    
    18    8   90 1    
    19    9   10 ar   
    20    9   14 ar   
    21   10   11 ar   
    22   10   91 1    
    23   11   12 ar   
    24   11   58 1    
    25   12   13 ar   
    26   12   92 1    
    27   13   14 ar   
    28   13   15 1    
    29   14   93 1    
    30   15   16 1    
    31   15   94 1    
    32   15   95 1    
    33   16   17 1    
    34   17   18 1    
    35   17   96 1    
    36   17   97 1    
    37   18   19 1    
    38   18   22 1    
    39   18   98 1    
    40   19   20 am   BACKBONE|DICT|INTERRES
    41   19   21 2    
    42   20   99 1    
    43   20  100 1    
    44   22   23 am   BACKBONE|DICT|INTERRES
    45   22  101 1    
    46   23   24 2    
    47   23   25 1    
    48   25   26 1    
    49   25   27 1    
    50   25  102 1    
    51   26  103 1    
    52   26  104 1    
    53   26  105 1    
    54   27   28 am   BACKBONE|DICT|INTERRES
    55   27  106 1    
    56   28   29 2    
    57   28   30 1    
    58   30   31 1    
    59   30   32 1    
    60   30  107 1    
    61   31  108 1    
    62   31  109 1    
    63   31  110 1    
    64   32   33 am   BACKBONE|DICT|INTERRES
    65   32  111 1    
    66   33   34 2    
    67   33   35 1    
    68   35   36 1    
    69   35   37 1    
    70   35  112 1    
    71   36  113 1    
    72   36  114 1    
    73   36  115 1    
    74   37   38 am   BACKBONE|DICT|INTERRES
    75   37  116 1    
    76   38   39 2    
    77   38   40 1    
    78   40   41 1    
    79   40   42 1    
    80   40  117 1    
    81   41  118 1    
    82   41  119 1    
    83   41  120 1    
    84   42   43 am   BACKBONE|DICT|INTERRES
    85   42  121 1    
    86   43   44 2    
    87   43   45 1    
    88   45   46 1    
    89   45   47 1    
    90   45  122 1    
    91   46  123 1    
    92   46  124 1    
    93   46  125 1    
    94   47   48 am   BACKBONE|DICT|INTERRES
    95   47  126 1    
    96   48   49 2    
    97   48   50 1    
    98   50   51 1    
    99   50   52 1    
   100   50  127 1    
   101   51  128 1    
   102   51  129 1    
   103   51  130 1    
   104   52   53 am   BACKBONE|DICT|INTERRES
   105   52  131 1    
   106   53   54 2    
   107   53   55 1    
   108   55   56 1    
   109   55   59 1    
   110   55  132 1    
   111   56   57 1    
   112   56  133 1    
   113   56  134 1    
   114   57   58 1    
   115   58  135 1    
   116   58  136 1    
   117   59   60 am   BACKBONE|DICT|INTERRES
   118   59  137 1    
   119   60   61 2    
   120   60   62 1    
   121   62   63 1    
   122   62   64 1    
   123   62  138 1    
   124   63  139 1    
   125   63  140 1    
   126   63  141 1    
   127   64   65 am   BACKBONE|DICT|INTERRES
   128   64  142 1    
   129   65   66 2    
   130   65   67 1    
   131   67   68 1    
   132   67   69 1    
   133   67  143 1    
   134   68  144 1    
   135   68  145 1    
   136   68  146 1    
   137   69   70 am   BACKBONE|DICT|INTERRES
   138   69  147 1    
   139   70   71 2    
   140   70   72 1    
   141   72   73 1    
   142   72   74 1    
   143   72  148 1    
   144   73  149 1    
   145   73  150 1    
   146   73  151 1    
   147   74   75 am   BACKBONE|DICT|INTERRES
   148   74  152 1    
   149   75   76 2    
   150   75   77 1    
   151   77   78 1    
   152   77   79 1    
   153   77  153 1    
   154   78  154 1    
   155   78  155 1    
   156   78  156 1    
   157   79   80 am   BACKBONE|DICT|INTERRES
   158   79  157 1    
   159   80   81 2    
@<TRIPOS>SUBSTRUCTURE
     1 UNK         1 GROUP             0       ****    0 ROOT    
