@<TRIPOS>MOLECULE
3R207
157   159    1
SMALL
USER_CHARGES


@<TRIPOS>ATOM
      1 CA        -46.7605  -25.6683    4.5027 C.3       0 UNK        -0.1975 
      2 C         -48.1744  -26.1661    4.2419 C.2       0 UNK         0.4852 
      3 O         -48.8678  -25.6233    3.3818 O.2       0 UNK        -0.5216 
      4 N         -48.6140  -27.1861    4.9904 N.am      1 UNK        -0.4461 
      5 CA        -49.9529  -27.7901    4.9123 C.3       1 UNK         0.0864 
      6 C6        -49.9011  -29.2961    5.2786 C.3       14 UNK        -0.0898 
      7 S7        -49.3736  -29.6216    6.9984 S.3       14 UNK        -0.2598 
      8 C8        -50.8748  -30.4213    7.6555 C.3       14 UNK         0.0286 
      9 C9        -50.8268  -30.6346    9.1636 C.ar      14 UNK        -0.0844 
     10 C10       -49.7251  -31.2484    9.7679 C.ar      14 UNK        -0.0881 
     11 C11       -49.6925  -31.4547   11.1498 C.ar      14 UNK        -0.0643 
     12 C12       -50.7861  -31.0672   11.9295 C.ar      14 UNK        -0.0930 
     13 C13       -51.9028  -30.4677   11.3370 C.ar      14 UNK        -0.0827 
     14 C14       -51.9080  -30.2394    9.9570 C.ar      14 UNK        -0.1249 
     15 C15       -53.0887  -30.0453   12.1934 C.3       14 UNK         0.0141 
     16 S16       -54.6680  -30.7278   11.5992 S.3       14 UNK        -0.2313 
     17 C17       -55.8415  -29.9257   12.7435 C.3       14 UNK        -0.0915 
     18 CA        -56.5521  -28.7066   12.1010 C.3       13 UNK         0.0968 
     19 C         -57.7336  -28.2274   12.9861 C.2       13 UNK         0.5732 
     20 N         -57.5638  -27.2169   13.8287 N.am      13 UNK        -0.7310 
     21 O         -58.8290  -28.7772   12.8967 O.2       13 UNK        -0.5035 
     22 N         -55.6010  -27.6286   11.7850 N.am      13 UNK        -0.4233 
     23 C         -55.5726  -26.9555   10.6275 C.2       13 UNK         0.4989 
     24 O         -56.3488  -27.1715    9.6946 O.2       13 UNK        -0.4996 
     25 CA        -54.4731  -25.8835   10.4614 C.3       12 UNK         0.0216 
     26 CB        -54.8211  -24.8251    9.3932 C.3       12 UNK        -0.1964 
     27 N         -54.0627  -25.2349   11.7118 N.am      12 UNK        -0.4276 
     28 C         -54.8239  -24.5367   12.5637 C.2       12 UNK         0.5020 
     29 O         -56.0279  -24.3297   12.4004 O.2       12 UNK        -0.5489 
     30 CA        -54.1104  -24.0147   13.8298 C.3       11 UNK         0.0294 
     31 CB        -55.0791  -23.3057   14.7986 C.3       11 UNK        -0.2019 
     32 N         -53.3445  -25.0333   14.5678 N.am      11 UNK        -0.4493 
     33 C         -53.7584  -26.2548   14.9462 C.2       11 UNK         0.4932 
     34 O         -54.8205  -26.7563   14.5759 O.2       11 UNK        -0.5029 
     35 CA        -52.8540  -27.0637   15.8978 C.3       10 UNK         0.0280 
     36 CB        -52.8062  -28.5504   15.5164 C.3       10 UNK        -0.1976 
     37 N         -51.4830  -26.5555   15.9545 N.am      10 UNK        -0.4242 
     38 C         -50.9917  -25.7699   16.9213 C.2       10 UNK         0.5072 
     39 O         -51.6366  -25.3923   17.9002 O.2       10 UNK        -0.5224 
     40 CA        -49.5383  -25.2936   16.7474 C.3       9 UNK         0.0343 
     41 CB        -48.5540  -26.3747   17.2209 C.3       9 UNK        -0.2003 
     42 N         -49.2070  -24.8997   15.3741 N.am      9 UNK        -0.4272 
     43 C         -49.8424  -23.9510   14.6682 C.2       9 UNK         0.4988 
     44 O         -50.8140  -23.3158   15.0773 O.2       9 UNK        -0.5108 
     45 CA        -49.3328  -23.7062   13.2449 C.3       8 UNK         0.0248 
     46 CB        -47.9863  -22.9607   13.2686 C.3       8 UNK        -0.2001 
     47 N         -49.2250  -24.9807   12.5299 N.am      8 UNK        -0.4140 
     48 C         -50.2676  -25.5861   11.9403 C.2       8 UNK         0.5028 
     49 O         -51.3497  -25.0331   11.7573 O.2       8 UNK        -0.5428 
     50 CA        -50.1120  -27.0438   11.4759 C.3       7 UNK         0.0264 
     51 CB        -50.0484  -27.1325    9.9438 C.3       7 UNK        -0.1988 
     52 N         -48.9481  -27.7078   12.0604 N.am      7 UNK        -0.4454 
     53 C         -48.9039  -28.1574   13.3229 C.2       7 UNK         0.5027 
     54 O         -49.8480  -28.0601   14.1069 O.2       7 UNK        -0.5083 
     55 CA        -47.5677  -28.7368   13.8330 C.3       6 UNK         0.0844 
     56 C56       -47.5226  -30.2828   13.7378 C.3       14 UNK        -0.0967 
     57 S57       -47.1302  -30.9308   12.0724 S.3       14 UNK        -0.2604 
     58 C58       -48.4804  -32.1186   11.7845 C.3       14 UNK         0.0134 
     59 N         -46.3936  -28.0987   13.2297 N.am      6 UNK        -0.4116 
     60 C         -46.0991  -26.7946   13.3088 C.2       5 UNK         0.5034 
     61 O         -46.7721  -25.9902   13.9572 O.2       5 UNK        -0.5045 
     62 CA        -44.8917  -26.2823   12.4952 C.3       5 UNK         0.0224 
     63 CB        -44.1173  -27.3928   11.7475 C.3       5 UNK        -0.1978 
     64 N         -45.2670  -25.2148   11.5547 N.am      5 UNK        -0.4737 
     65 C         -46.2264  -25.2702   10.6198 C.2       4 UNK         0.5027 
     66 O         -46.9547  -26.2458   10.4338 O.2       4 UNK        -0.5211 
     67 CA        -46.4052  -24.0343    9.7342 C.3       4 UNK         0.0297 
     68 CB        -45.8293  -24.2785    8.3286 C.3       4 UNK        -0.1993 
     69 N         -47.8314  -23.7325    9.6382 N.am      4 UNK        -0.4486 
     70 C         -48.3500  -22.5034    9.5246 C.2       3 UNK         0.4961 
     71 O         -47.6599  -21.4856    9.4427 O.2       3 UNK        -0.5105 
     72 CA        -49.8914  -22.3815    9.5336 C.3       3 UNK         0.0299 
     73 CB        -50.3808  -21.0288    8.9729 C.3       3 UNK        -0.1972 
     74 N         -50.6068  -23.4864    8.8801 N.am      3 UNK        -0.4305 
     75 C         -50.4591  -23.8854    7.6090 C.2       2 UNK         0.5006 
     76 O         -49.6110  -23.4390    6.8322 O.2       2 UNK        -0.5106 
     77 CA        -51.4315  -24.9539    7.1020 C.3       2 UNK         0.0296 
     78 CB        -52.5968  -24.3046    6.3306 C.3       2 UNK        -0.2002 
     79 N         -50.6574  -25.8363    6.2399 N.am      2 UNK        -0.4032 
     80 C         -51.0229  -27.0138    5.7228 C.2       1 UNK         0.5000 
     81 O         -52.1447  -27.5016    5.8736 O.2       1 UNK        -0.5238 
     82 H82       -46.7860  -24.6373    4.8553 H         1 UNK         0.0889 
     83 H83       -46.1753  -25.7009    3.5841 H         1 UNK         0.0889 
     84 H84       -46.2473  -26.2705    5.2524 H         1 UNK         0.0889 
     85 H85       -48.0063  -27.5936    5.6883 H         1 UNK         0.3028 
     86 H86       -50.2836  -27.7339    3.8729 H         1 UNK         0.0864 
     87 H87       -49.2018  -29.8073    4.6151 H         1 UNK         0.0720 
     88 H88       -50.8681  -29.7654    5.0880 H         1 UNK         0.0720 
     89 H89       -51.0115  -31.3862    7.1655 H         1 UNK         0.0814 
     90 H90       -51.7399  -29.8113    7.3904 H         1 UNK         0.0814 
     91 H91       -48.8849  -31.5586    9.1617 H         1 UNK         0.1469 
     92 H92       -50.7661  -31.2324   12.9978 H         1 UNK         0.1381 
     93 H93       -52.7666  -29.7663    9.5002 H         1 UNK         0.1206 
     94 H94       -53.1401  -28.9567   12.2154 H         1 UNK         0.0813 
     95 H95       -52.9504  -30.3857   13.2194 H         1 UNK         0.0813 
     96 H96       -56.5721  -30.6842   13.0313 H         1 UNK         0.0638 
     97 H97       -55.3293  -29.6356   13.6623 H         1 UNK         0.0638 
     98 H98       -57.0073  -29.0641   11.1754 H         1 UNK         0.0568 
     99 H99       -58.3392  -26.9055   14.3902 H         1 UNK         0.3450 
    100 H100      -56.6414  -26.8186   13.9715 H         1 UNK         0.3450 
    101 H101      -55.0058  -27.3284   12.5466 H         1 UNK         0.2987 
    102 H102      -53.5925  -26.4222   10.1085 H         1 UNK         0.0766 
    103 H103      -55.7411  -24.2938    9.6392 H         1 UNK         0.0798 
    104 H104      -54.0259  -24.0871    9.2920 H         1 UNK         0.0798 
    105 H105      -54.9617  -25.2855    8.4144 H         1 UNK         0.0798 
    106 H106      -53.0594  -25.2698   11.9052 H         1 UNK         0.3198 
    107 H107      -53.3846  -23.2756   13.4860 H         1 UNK         0.0843 
    108 H108      -55.5989  -22.4843   14.3038 H         1 UNK         0.0831 
    109 H109      -54.5482  -22.8837   15.6519 H         1 UNK         0.0831 
    110 H110      -55.8377  -23.9905   15.1798 H         1 UNK         0.0831 
    111 H111      -52.4408  -24.7187   14.9026 H         1 UNK         0.3133 
    112 H112      -53.3150  -26.9974   16.8851 H         1 UNK         0.0566 
    113 H113      -52.2215  -29.1242   16.2355 H         1 UNK         0.0814 
    114 H114      -53.8029  -28.9917   15.4863 H         1 UNK         0.0814 
    115 H115      -52.3488  -28.6819   14.5388 H         1 UNK         0.0814 
    116 H116      -50.8583  -26.8725   15.2162 H         1 UNK         0.3091 
    117 H117      -49.4035  -24.4112   17.3763 H         1 UNK         0.0702 
    118 H118      -47.5207  -26.0355   17.1426 H         1 UNK         0.0785 
    119 H119      -48.6520  -27.2912   16.6390 H         1 UNK         0.0785 
    120 H120      -48.7327  -26.6326   18.2657 H         1 UNK         0.0785 
    121 H121      -48.4020  -25.3530   14.9530 H         1 UNK         0.2998 
    122 H122      -50.0587  -23.0661   12.7416 H         1 UNK         0.0697 
    123 H123      -47.2210  -23.4946   13.8303 H         1 UNK         0.0825 
    124 H124      -48.0996  -21.9829   13.7385 H         1 UNK         0.0825 
    125 H125      -47.5985  -22.7879   12.2680 H         1 UNK         0.0825 
    126 H126      -48.3674  -25.5042   12.6601 H         1 UNK         0.3029 
    127 H127      -51.0022  -27.5866   11.8006 H         1 UNK         0.0897 
    128 H128      -49.3694  -26.4016    9.5075 H         1 UNK         0.0792 
    129 H129      -51.0349  -26.9686    9.5132 H         1 UNK         0.0792 
    130 H130      -49.7198  -28.1181    9.6183 H         1 UNK         0.0792 
    131 H131      -48.1139  -27.7447   11.4848 H         1 UNK         0.3086 
    132 H132      -47.5281  -28.4905   14.8957 H         1 UNK         0.0583 
    133 H133      -46.7514  -30.6553   14.4138 H         1 UNK         0.1020 
    134 H134      -48.4541  -30.7166   14.1067 H         1 UNK         0.1020 
    135 H135      -48.1134  -32.9033   11.1211 H         1 UNK         0.0694 
    136 H136      -48.7506  -32.6189   12.7156 H         1 UNK         0.0694 
    137 H137      -45.8210  -28.6935   12.6482 H         1 UNK         0.2989 
    138 H138      -44.2125  -25.8356   13.2233 H         1 UNK         0.1055 
    139 H139      -43.7494  -28.1558   12.4350 H         1 UNK         0.0806 
    140 H140      -43.2445  -26.9823   11.2394 H         1 UNK         0.0806 
    141 H141      -44.7301  -27.8868   10.9919 H         1 UNK         0.0806 
    142 H142      -44.7434  -24.3551   11.6487 H         1 UNK         0.3061 
    143 H143      -45.8805  -23.1947   10.1955 H         1 UNK         0.0734 
    144 H144      -45.9388  -23.3968    7.6969 H         1 UNK         0.0832 
    145 H145      -44.7658  -24.5152    8.3768 H         1 UNK         0.0832 
    146 H146      -46.3284  -25.1103    7.8296 H         1 UNK         0.0832 
    147 H147      -48.4435  -24.5302    9.7341 H         1 UNK         0.3156 
    148 H148      -50.1866  -22.4166   10.5810 H         1 UNK         0.0589 
    149 H149      -50.0815  -20.8919    7.9331 H         1 UNK         0.0808 
    150 H150      -51.4666  -20.9472    9.0229 H         1 UNK         0.0808 
    151 H151      -49.9701  -20.1942    9.5425 H         1 UNK         0.0808 
    152 H152      -51.3078  -23.9380    9.4534 H         1 UNK         0.3098 
    153 H153      -51.8266  -25.5267    7.9413 H         1 UNK         0.0720 
    154 H154      -53.3279  -25.0463    6.0090 H         1 UNK         0.0791 
    155 H155      -52.2450  -23.7750    5.4442 H         1 UNK         0.0791 
    156 H156      -53.1253  -23.5820    6.9534 H         1 UNK         0.0791 
    157 H157      -49.7273  -25.4907    6.0389 H         1 UNK         0.3028 
@<TRIPOS>BOND
     1    1    2 1    
     2    1   82 1    
     3    1   83 1    
     4    1   84 1    
     5    2    3 2    
     6    2    4 am   BACKBONE|DICT|INTERRES
     7    4    5 1    
     8    4   85 1    
     9    5    6 1    
    10    5   80 1    
    11    5   86 1    
    12    6    7 1    
    13    6   87 1    
    14    6   88 1    
    15    7    8 1    
    16    8    9 1    
    17    8   89 1    
    18    8   90 1    
    19    9   10 ar   
    20    9   14 ar   
    21   10   11 ar   
    22   10   91 1    
    23   11   12 ar   
    24   11   58 1    
    25   12   13 ar   
    26   12   92 1    
    27   13   14 ar   
    28   13   15 1    
    29   14   93 1    
    30   15   16 1    
    31   15   94 1    
    32   15   95 1    
    33   16   17 1    
    34   17   18 1    
    35   17   96 1    
    36   17   97 1    
    37   18   19 1    
    38   18   22 1    
    39   18   98 1    
    40   19   20 am   BACKBONE|DICT|INTERRES
    41   19   21 2    
    42   20   99 1    
    43   20  100 1    
    44   22   23 am   BACKBONE|DICT|INTERRES
    45   22  101 1    
    46   23   24 2    
    47   23   25 1    
    48   25   26 1    
    49   25   27 1    
    50   25  102 1    
    51   26  103 1    
    52   26  104 1    
    53   26  105 1    
    54   27   28 am   BACKBONE|DICT|INTERRES
    55   27  106 1    
    56   28   29 2    
    57   28   30 1    
    58   30   31 1    
    59   30   32 1    
    60   30  107 1    
    61   31  108 1    
    62   31  109 1    
    63   31  110 1    
    64   32   33 am   BACKBONE|DICT|INTERRES
    65   32  111 1    
    66   33   34 2    
    67   33   35 1    
    68   35   36 1    
    69   35   37 1    
    70   35  112 1    
    71   36  113 1    
    72   36  114 1    
    73   36  115 1    
    74   37   38 am   BACKBONE|DICT|INTERRES
    75   37  116 1    
    76   38   39 2    
    77   38   40 1    
    78   40   41 1    
    79   40   42 1    
    80   40  117 1    
    81   41  118 1    
    82   41  119 1    
    83   41  120 1    
    84   42   43 am   BACKBONE|DICT|INTERRES
    85   42  121 1    
    86   43   44 2    
    87   43   45 1    
    88   45   46 1    
    89   45   47 1    
    90   45  122 1    
    91   46  123 1    
    92   46  124 1    
    93   46  125 1    
    94   47   48 am   BACKBONE|DICT|INTERRES
    95   47  126 1    
    96   48   49 2    
    97   48   50 1    
    98   50   51 1    
    99   50   52 1    
   100   50  127 1    
   101   51  128 1    
   102   51  129 1    
   103   51  130 1    
   104   52   53 am   BACKBONE|DICT|INTERRES
   105   52  131 1    
   106   53   54 2    
   107   53   55 1    
   108   55   56 1    
   109   55   59 1    
   110   55  132 1    
   111   56   57 1    
   112   56  133 1    
   113   56  134 1    
   114   57   58 1    
   115   58  135 1    
   116   58  136 1    
   117   59   60 am   BACKBONE|DICT|INTERRES
   118   59  137 1    
   119   60   61 2    
   120   60   62 1    
   121   62   63 1    
   122   62   64 1    
   123   62  138 1    
   124   63  139 1    
   125   63  140 1    
   126   63  141 1    
   127   64   65 am   BACKBONE|DICT|INTERRES
   128   64  142 1    
   129   65   66 2    
   130   65   67 1    
   131   67   68 1    
   132   67   69 1    
   133   67  143 1    
   134   68  144 1    
   135   68  145 1    
   136   68  146 1    
   137   69   70 am   BACKBONE|DICT|INTERRES
   138   69  147 1    
   139   70   71 2    
   140   70   72 1    
   141   72   73 1    
   142   72   74 1    
   143   72  148 1    
   144   73  149 1    
   145   73  150 1    
   146   73  151 1    
   147   74   75 am   BACKBONE|DICT|INTERRES
   148   74  152 1    
   149   75   76 2    
   150   75   77 1    
   151   77   78 1    
   152   77   79 1    
   153   77  153 1    
   154   78  154 1    
   155   78  155 1    
   156   78  156 1    
   157   79   80 am   BACKBONE|DICT|INTERRES
   158   79  157 1    
   159   80   81 2    
@<TRIPOS>SUBSTRUCTURE
     1 UNK         1 GROUP             0       ****    0 ROOT    
