@<TRIPOS>MOLECULE
3R207
157   159    1
SMALL
USER_CHARGES


@<TRIPOS>ATOM
      1 CA        -49.2475  -27.3214    4.6909 C.3       0 UNK        -0.1975 
      2 C         -49.5798  -25.8950    5.1034 C.2       0 UNK         0.4852 
      3 O         -49.2389  -24.9518    4.3877 O.2       0 UNK        -0.5216 
      4 N         -50.2508  -25.7343    6.2498 N.am      1 UNK        -0.4461 
      5 CA        -50.6298  -24.4376    6.8215 C.3       1 UNK         0.0864 
      6 C6        -51.8219  -24.5623    7.8041 C.3       14 UNK        -0.0898 
      7 S7        -53.2865  -25.3138    7.0139 S.3       14 UNK        -0.2598 
      8 C8        -54.0661  -26.1963    8.4111 C.3       14 UNK         0.0286 
      9 C9        -53.1832  -27.2451    9.0878 C.ar      14 UNK        -0.0844 
     10 C10       -52.2630  -28.0176    8.3673 C.ar      14 UNK        -0.0881 
     11 C11       -51.4494  -28.9503    9.0182 C.ar      14 UNK        -0.0643 
     12 C12       -51.5958  -29.1411   10.3942 C.ar      14 UNK        -0.0930 
     13 C13       -52.5209  -28.3912   11.1277 C.ar      14 UNK        -0.0827 
     14 C14       -53.3033  -27.4411   10.4668 C.ar      14 UNK        -0.1249 
     15 C15       -52.6415  -28.5463   12.6395 C.3       14 UNK         0.0141 
     16 S16       -52.6638  -30.2779   13.2008 S.3       14 UNK        -0.2313 
     17 C17       -52.7270  -30.0298   15.0074 C.3       14 UNK        -0.0915 
     18 CA        -53.9781  -30.6706   15.6631 C.3       13 UNK         0.0968 
     19 C         -53.9618  -30.4707   17.2057 C.2       13 UNK         0.5732 
     20 N         -54.9209  -29.7667   17.7967 N.am      13 UNK        -0.7310 
     21 O         -53.0664  -30.9737   17.8800 O.2       13 UNK        -0.5035 
     22 N         -55.2299  -30.2315   15.0258 N.am      13 UNK        -0.4233 
     23 C         -56.3325  -30.9780   14.9118 C.2       13 UNK         0.4989 
     24 O         -56.4015  -32.1478   15.2922 O.2       13 UNK        -0.4996 
     25 CA        -57.5794  -30.3449   14.2591 C.3       12 UNK         0.0216 
     26 CB        -58.6458  -30.0276   15.3276 C.3       12 UNK        -0.1964 
     27 N         -57.3533  -29.1771   13.3877 N.am      12 UNK        -0.4276 
     28 C         -56.8951  -27.9637   13.7225 C.2       12 UNK         0.5020 
     29 O         -56.4630  -27.6760   14.8429 O.2       12 UNK        -0.5489 
     30 CA        -56.9218  -26.8929   12.6243 C.3       11 UNK         0.0294 
     31 CB        -58.3696  -26.5011   12.2655 C.3       11 UNK        -0.2019 
     32 N         -56.1947  -25.7332   13.1261 N.am      11 UNK        -0.4493 
     33 C         -55.7411  -24.6951   12.4167 C.2       11 UNK         0.4932 
     34 O         -55.9112  -24.5667   11.2045 O.2       11 UNK        -0.5029 
     35 CA        -54.9651  -23.6095   13.1882 C.3       10 UNK         0.0280 
     36 CB        -55.8908  -22.4293   13.5253 C.3       10 UNK        -0.1976 
     37 N         -54.3316  -24.0952   14.4211 N.am      10 UNK        -0.4242 
     38 C         -53.3062  -24.9554   14.4489 C.2       10 UNK         0.5072 
     39 O         -52.7749  -25.4212   13.4362 O.2       10 UNK        -0.5224 
     40 CA        -52.7968  -25.3799   15.8337 C.3       9 UNK         0.0343 
     41 CB        -53.7942  -26.3100   16.5474 C.3       9 UNK        -0.2003 
     42 N         -51.5392  -26.0797   15.6208 N.am      9 UNK        -0.4272 
     43 C         -50.4780  -26.1171   16.4310 C.2       9 UNK         0.4988 
     44 O         -50.4656  -25.6538   17.5718 O.2       9 UNK        -0.5108 
     45 CA        -49.2065  -26.7791   15.8630 C.3       8 UNK         0.0248 
     46 CB        -49.0426  -28.1988   16.4296 C.3       8 UNK        -0.2001 
     47 N         -49.2062  -26.8504   14.3974 N.am      8 UNK        -0.4140 
     48 C         -49.0746  -25.8112   13.5634 C.2       8 UNK         0.5028 
     49 O         -48.7974  -24.6710   13.9403 O.2       8 UNK        -0.5428 
     50 CA        -49.3252  -26.0988   12.0680 C.3       7 UNK         0.0264 
     51 CB        -49.2857  -24.8273   11.2045 C.3       7 UNK        -0.1988 
     52 N         -48.4095  -27.0884   11.4939 N.am      7 UNK        -0.4454 
     53 C         -48.4128  -28.4061   11.7483 C.2       7 UNK         0.5027 
     54 O         -49.1658  -28.9385   12.5654 O.2       7 UNK        -0.5083 
     55 CA        -47.4119  -29.2921   10.9773 C.3       6 UNK         0.0844 
     56 C56       -48.0990  -30.1006    9.8465 C.3       14 UNK        -0.0967 
     57 S57       -48.7289  -29.0997    8.4473 S.3       14 UNK        -0.2604 
     58 C58       -50.4202  -29.7529    8.2334 C.3       14 UNK         0.0134 
     59 N         -46.2285  -28.5690   10.5032 N.am      6 UNK        -0.4116 
     60 C         -45.2716  -28.0586   11.2927 C.2       5 UNK         0.5034 
     61 O         -45.2855  -28.1427   12.5212 O.2       5 UNK        -0.5045 
     62 CA        -44.0875  -27.3469   10.6109 C.3       5 UNK         0.0224 
     63 CB        -42.8113  -28.1978   10.7255 C.3       5 UNK        -0.1978 
     64 N         -44.3159  -27.0228    9.1985 N.am      5 UNK        -0.4737 
     65 C         -45.1293  -26.0535    8.7628 C.2       4 UNK         0.5027 
     66 O         -45.7951  -25.3356    9.5108 O.2       4 UNK        -0.5211 
     67 CA        -45.2334  -25.9122    7.2392 C.3       4 UNK         0.0297 
     68 CB        -46.2169  -26.9491    6.6748 C.3       4 UNK        -0.1993 
     69 N         -45.7068  -24.5780    6.8771 N.am      4 UNK        -0.4486 
     70 C         -44.9599  -23.6302    6.2936 C.2       3 UNK         0.4961 
     71 O         -43.7716  -23.7827    6.0060 O.2       3 UNK        -0.5105 
     72 CA        -45.6329  -22.2899    5.9350 C.3       3 UNK         0.0299 
     73 CB        -45.8618  -22.1985    4.4168 C.3       3 UNK        -0.1972 
     74 N         -46.9099  -22.0741    6.6144 N.am      3 UNK        -0.4305 
     75 C         -47.0462  -21.7234    7.9002 C.2       2 UNK         0.5006 
     76 O         -46.0990  -21.4410    8.6349 O.2       2 UNK        -0.5106 
     77 CA        -48.4784  -21.6834    8.4715 C.3       2 UNK         0.0296 
     78 CB        -48.9681  -20.2305    8.5901 C.3       2 UNK        -0.2002 
     79 N         -49.4756  -22.4662    7.7255 N.am      2 UNK        -0.4032 
     80 C         -49.4182  -23.7901    7.5191 C.2       1 UNK         0.5000 
     81 O         -48.4643  -24.4883    7.8684 O.2       1 UNK        -0.5238 
     82 H82       -49.2664  -28.0020    5.5418 H         1 UNK         0.0889 
     83 H83       -48.2543  -27.3667    4.2458 H         1 UNK         0.0889 
     84 H84       -49.9663  -27.6743    3.9521 H         1 UNK         0.0889 
     85 H85       -50.4559  -26.5359    6.8265 H         1 UNK         0.3028 
     86 H86       -50.9323  -23.7799    6.0034 H         1 UNK         0.0864 
     87 H87       -52.1176  -23.5824    8.1831 H         1 UNK         0.0720 
     88 H88       -51.5328  -25.1496    8.6771 H         1 UNK         0.0720 
     89 H89       -54.9729  -26.6853    8.0536 H         1 UNK         0.0814 
     90 H90       -54.3864  -25.4498    9.1394 H         1 UNK         0.0814 
     91 H91       -52.1723  -27.8860    7.2986 H         1 UNK         0.1469 
     92 H92       -50.9770  -29.8658   10.9022 H         1 UNK         0.1381 
     93 H93       -54.0021  -26.8400   11.0327 H         1 UNK         0.1206 
     94 H94       -53.5452  -28.0537   13.0024 H         1 UNK         0.0813 
     95 H95       -51.7984  -28.0377   13.1054 H         1 UNK         0.0813 
     96 H96       -52.6790  -28.9645   15.2357 H         1 UNK         0.0638 
     97 H97       -51.8175  -30.4653   15.4251 H         1 UNK         0.0638 
     98 H98       -53.8878  -31.7478   15.5110 H         1 UNK         0.0568 
     99 H99       -54.9012  -29.6503   18.7972 H         1 UNK         0.3450 
    100 H100      -55.6555  -29.3438   17.2520 H         1 UNK         0.3450 
    101 H101      -55.3035  -29.2508   14.7816 H         1 UNK         0.2987 
    102 H102      -57.9935  -31.1155   13.6067 H         1 UNK         0.0766 
    103 H103      -59.5698  -29.6711   14.8722 H         1 UNK         0.0798 
    104 H104      -58.3045  -29.2680   16.0316 H         1 UNK         0.0798 
    105 H105      -58.8949  -30.9170   15.9082 H         1 UNK         0.0798 
    106 H106      -57.6319  -29.3155   12.4255 H         1 UNK         0.3198 
    107 H107      -56.4081  -27.2824   11.7429 H         1 UNK         0.0843 
    108 H108      -58.9045  -26.1093   13.1317 H         1 UNK         0.0831 
    109 H109      -58.9337  -27.3568   11.8933 H         1 UNK         0.0831 
    110 H110      -58.3976  -25.7404   11.4854 H         1 UNK         0.0831 
    111 H111      -55.9873  -25.7959   14.1163 H         1 UNK         0.3133 
    112 H112      -54.1758  -23.2439   12.5277 H         1 UNK         0.0566 
    113 H113      -56.6957  -22.7261   14.1990 H         1 UNK         0.0814 
    114 H114      -55.3410  -21.6134   13.9949 H         1 UNK         0.0814 
    115 H115      -56.3540  -22.0274   12.6229 H         1 UNK         0.0814 
    116 H116      -54.7116  -23.7564   15.2937 H         1 UNK         0.3091 
    117 H117      -52.6219  -24.4837   16.4327 H         1 UNK         0.0702 
    118 H118      -53.3955  -26.6676   17.4969 H         1 UNK         0.0785 
    119 H119      -54.0378  -27.1814   15.9403 H         1 UNK         0.0785 
    120 H120      -54.7308  -25.7955   16.7644 H         1 UNK         0.0785 
    121 H121      -51.4304  -26.4062   14.6691 H         1 UNK         0.2998 
    122 H122      -48.3509  -26.1779   16.1771 H         1 UNK         0.0697 
    123 H123      -49.8682  -28.8484   16.1361 H         1 UNK         0.0825 
    124 H124      -49.0113  -28.1832   17.5200 H         1 UNK         0.0825 
    125 H125      -48.1157  -28.6585   16.0860 H         1 UNK         0.0825 
    126 H126      -49.3548  -27.7644   13.9735 H         1 UNK         0.3029 
    127 H127      -50.3384  -26.4984   11.9925 H         1 UNK         0.0897 
    128 H128      -49.9651  -24.0658   11.5897 H         1 UNK         0.0792 
    129 H129      -49.5984  -25.0489   10.1861 H         1 UNK         0.0792 
    130 H130      -48.2859  -24.3927   11.1636 H         1 UNK         0.0792 
    131 H131      -47.7375  -26.7362   10.8254 H         1 UNK         0.3086 
    132 H132      -47.0509  -30.0240   11.7036 H         1 UNK         0.0583 
    133 H133      -47.3885  -30.8214    9.4390 H         1 UNK         0.1020 
    134 H134      -48.9025  -30.7081   10.2652 H         1 UNK         0.1020 
    135 H135      -50.6625  -29.7283    7.1699 H         1 UNK         0.0694 
    136 H136      -50.4630  -30.8041    8.5215 H         1 UNK         0.0694 
    137 H137      -46.1471  -28.4486    9.5048 H         1 UNK         0.2989 
    138 H138      -43.9252  -26.4123   11.1532 H         1 UNK         0.1055 
    139 H139      -42.5863  -28.4278   11.7681 H         1 UNK         0.0806 
    140 H140      -41.9459  -27.6732   10.3199 H         1 UNK         0.0806 
    141 H141      -42.9087  -29.1470   10.1970 H         1 UNK         0.0806 
    142 H142      -43.8085  -27.5750    8.5206 H         1 UNK         0.3061 
    143 H143      -44.2479  -26.1008    6.8081 H         1 UNK         0.0734 
    144 H144      -46.2798  -26.8761    5.5895 H         1 UNK         0.0832 
    145 H145      -45.9054  -27.9671    6.9114 H         1 UNK         0.0832 
    146 H146      -47.2203  -26.8111    7.0794 H         1 UNK         0.0832 
    147 H147      -46.6535  -24.3622    7.1823 H         1 UNK         0.3156 
    148 H148      -44.9468  -21.4909    6.2241 H         1 UNK         0.0589 
    149 H149      -46.5460  -22.9723    4.0649 H         1 UNK         0.0808 
    150 H150      -46.2743  -21.2298    4.1340 H         1 UNK         0.0808 
    151 H151      -44.9246  -22.3204    3.8718 H         1 UNK         0.0808 
    152 H152      -47.7442  -22.2871    6.0874 H         1 UNK         0.3098 
    153 H153      -48.4256  -22.1074    9.4767 H         1 UNK         0.0720 
    154 H154      -49.9312  -20.1750    9.0980 H         1 UNK         0.0791 
    155 H155      -49.0742  -19.7595    7.6119 H         1 UNK         0.0791 
    156 H156      -48.2663  -19.6268    9.1676 H         1 UNK         0.0791 
    157 H157      -50.2866  -21.9591    7.4004 H         1 UNK         0.3028 
@<TRIPOS>BOND
     1    1    2 1    
     2    1   82 1    
     3    1   83 1    
     4    1   84 1    
     5    2    3 2    
     6    2    4 am   BACKBONE|DICT|INTERRES
     7    4    5 1    
     8    4   85 1    
     9    5    6 1    
    10    5   80 1    
    11    5   86 1    
    12    6    7 1    
    13    6   87 1    
    14    6   88 1    
    15    7    8 1    
    16    8    9 1    
    17    8   89 1    
    18    8   90 1    
    19    9   10 ar   
    20    9   14 ar   
    21   10   11 ar   
    22   10   91 1    
    23   11   12 ar   
    24   11   58 1    
    25   12   13 ar   
    26   12   92 1    
    27   13   14 ar   
    28   13   15 1    
    29   14   93 1    
    30   15   16 1    
    31   15   94 1    
    32   15   95 1    
    33   16   17 1    
    34   17   18 1    
    35   17   96 1    
    36   17   97 1    
    37   18   19 1    
    38   18   22 1    
    39   18   98 1    
    40   19   20 am   BACKBONE|DICT|INTERRES
    41   19   21 2    
    42   20   99 1    
    43   20  100 1    
    44   22   23 am   BACKBONE|DICT|INTERRES
    45   22  101 1    
    46   23   24 2    
    47   23   25 1    
    48   25   26 1    
    49   25   27 1    
    50   25  102 1    
    51   26  103 1    
    52   26  104 1    
    53   26  105 1    
    54   27   28 am   BACKBONE|DICT|INTERRES
    55   27  106 1    
    56   28   29 2    
    57   28   30 1    
    58   30   31 1    
    59   30   32 1    
    60   30  107 1    
    61   31  108 1    
    62   31  109 1    
    63   31  110 1    
    64   32   33 am   BACKBONE|DICT|INTERRES
    65   32  111 1    
    66   33   34 2    
    67   33   35 1    
    68   35   36 1    
    69   35   37 1    
    70   35  112 1    
    71   36  113 1    
    72   36  114 1    
    73   36  115 1    
    74   37   38 am   BACKBONE|DICT|INTERRES
    75   37  116 1    
    76   38   39 2    
    77   38   40 1    
    78   40   41 1    
    79   40   42 1    
    80   40  117 1    
    81   41  118 1    
    82   41  119 1    
    83   41  120 1    
    84   42   43 am   BACKBONE|DICT|INTERRES
    85   42  121 1    
    86   43   44 2    
    87   43   45 1    
    88   45   46 1    
    89   45   47 1    
    90   45  122 1    
    91   46  123 1    
    92   46  124 1    
    93   46  125 1    
    94   47   48 am   BACKBONE|DICT|INTERRES
    95   47  126 1    
    96   48   49 2    
    97   48   50 1    
    98   50   51 1    
    99   50   52 1    
   100   50  127 1    
   101   51  128 1    
   102   51  129 1    
   103   51  130 1    
   104   52   53 am   BACKBONE|DICT|INTERRES
   105   52  131 1    
   106   53   54 2    
   107   53   55 1    
   108   55   56 1    
   109   55   59 1    
   110   55  132 1    
   111   56   57 1    
   112   56  133 1    
   113   56  134 1    
   114   57   58 1    
   115   58  135 1    
   116   58  136 1    
   117   59   60 am   BACKBONE|DICT|INTERRES
   118   59  137 1    
   119   60   61 2    
   120   60   62 1    
   121   62   63 1    
   122   62   64 1    
   123   62  138 1    
   124   63  139 1    
   125   63  140 1    
   126   63  141 1    
   127   64   65 am   BACKBONE|DICT|INTERRES
   128   64  142 1    
   129   65   66 2    
   130   65   67 1    
   131   67   68 1    
   132   67   69 1    
   133   67  143 1    
   134   68  144 1    
   135   68  145 1    
   136   68  146 1    
   137   69   70 am   BACKBONE|DICT|INTERRES
   138   69  147 1    
   139   70   71 2    
   140   70   72 1    
   141   72   73 1    
   142   72   74 1    
   143   72  148 1    
   144   73  149 1    
   145   73  150 1    
   146   73  151 1    
   147   74   75 am   BACKBONE|DICT|INTERRES
   148   74  152 1    
   149   75   76 2    
   150   75   77 1    
   151   77   78 1    
   152   77   79 1    
   153   77  153 1    
   154   78  154 1    
   155   78  155 1    
   156   78  156 1    
   157   79   80 am   BACKBONE|DICT|INTERRES
   158   79  157 1    
   159   80   81 2    
@<TRIPOS>SUBSTRUCTURE
     1 UNK         1 GROUP             0       ****    0 ROOT    
