@<TRIPOS>MOLECULE
3R207
157   159    1
SMALL
USER_CHARGES


@<TRIPOS>ATOM
      1 CA        -44.1304  -29.3761    7.4932 C.3       0 UNK        -0.1975 
      2 C         -44.9631  -29.3719    6.2199 C.2       0 UNK         0.4852 
      3 O         -44.4371  -29.0736    5.1473 O.2       0 UNK        -0.5216 
      4 N         -46.2567  -29.7056    6.3298 N.am      1 UNK        -0.4461 
      5 CA        -47.2154  -29.7557    5.2173 C.3       1 UNK         0.0864 
      6 C6        -48.4817  -30.5719    5.5849 C.3       14 UNK        -0.0898 
      7 S7        -49.3297  -29.9786    7.0897 S.3       14 UNK        -0.2598 
      8 C8        -51.0778  -30.2177    6.6472 C.3       14 UNK         0.0286 
      9 C9        -51.9719  -29.3741    7.5402 C.ar      14 UNK        -0.0844 
     10 C10       -52.1140  -28.0123    7.2699 C.ar      14 UNK        -0.0881 
     11 C11       -52.9044  -27.2005    8.0866 C.ar      14 UNK        -0.0643 
     12 C12       -53.5703  -27.7655    9.1773 C.ar      14 UNK        -0.0930 
     13 C13       -53.4570  -29.1345    9.4449 C.ar      14 UNK        -0.0827 
     14 C14       -52.6507  -29.9350    8.6271 C.ar      14 UNK        -0.1249 
     15 C15       -54.2073  -29.7374   10.6221 C.3       14 UNK         0.0141 
     16 S16       -55.9832  -29.9070   10.2521 S.3       14 UNK        -0.2313 
     17 C17       -56.6314  -30.3929   11.8861 C.3       14 UNK        -0.0915 
     18 CA        -56.8383  -29.1698   12.8313 C.3       13 UNK         0.0968 
     19 C         -58.2173  -28.4603   12.6844 C.2       13 UNK         0.5732 
     20 N         -58.8054  -27.9164   13.7472 N.am      13 UNK        -0.7310 
     21 O         -58.7698  -28.3864   11.5897 O.2       13 UNK        -0.5035 
     22 N         -56.5148  -29.4680   14.2294 N.am      13 UNK        -0.4233 
     23 C         -55.2959  -29.6773   14.7274 C.2       13 UNK         0.4989 
     24 O         -54.2868  -29.8221   14.0397 O.2       13 UNK        -0.4996 
     25 CA        -55.1959  -29.6642   16.2624 C.3       12 UNK         0.0216 
     26 CB        -53.9008  -30.3197   16.7768 C.3       12 UNK        -0.1964 
     27 N         -55.2820  -28.2885   16.7634 N.am      12 UNK        -0.4276 
     28 C         -56.4115  -27.5639   16.8181 C.2       12 UNK         0.5020 
     29 O         -57.5159  -28.0012   16.4832 O.2       12 UNK        -0.5489 
     30 CA        -56.3107  -26.1071   17.3038 C.3       11 UNK         0.0294 
     31 CB        -56.6498  -26.0180   18.8001 C.3       11 UNK        -0.2019 
     32 N         -55.0034  -25.4919   17.0672 N.am      11 UNK        -0.4493 
     33 C         -54.4981  -25.1941   15.8622 C.2       11 UNK         0.4932 
     34 O         -55.0942  -25.3878   14.8022 O.2       11 UNK        -0.5029 
     35 CA        -53.0841  -24.5839   15.8278 C.3       10 UNK         0.0280 
     36 CB        -52.6287  -23.9620   17.1675 C.3       10 UNK        -0.1976 
     37 N         -52.0875  -25.5443   15.3484 N.am      10 UNK        -0.4242 
     38 C         -51.8165  -26.7568   15.8563 C.2       10 UNK         0.5072 
     39 O         -52.4126  -27.2521   16.8154 O.2       10 UNK        -0.5224 
     40 CA        -50.6717  -27.5449   15.1972 C.3       9 UNK         0.0343 
     41 CB        -51.1670  -28.3033   13.9584 C.3       9 UNK        -0.2003 
     42 N         -49.5376  -26.6981   14.8234 N.am      9 UNK        -0.4272 
     43 C         -48.6822  -26.1497   15.6980 C.2       9 UNK         0.4988 
     44 O         -48.7487  -26.3105   16.9173 O.2       9 UNK        -0.5108 
     45 CA        -47.5522  -25.2826   15.1174 C.3       8 UNK         0.0248 
     46 CB        -46.4181  -26.1648   14.5713 C.3       8 UNK        -0.2001 
     47 N         -48.0154  -24.3638   14.0750 N.am      8 UNK        -0.4140 
     48 C         -48.8353  -23.3256   14.2969 C.2       8 UNK         0.5028 
     49 O         -49.2450  -22.9995   15.4115 O.2       8 UNK        -0.5428 
     50 CA        -49.2878  -22.5150   13.0712 C.3       7 UNK         0.0264 
     51 CB        -48.2210  -21.4801   12.6792 C.3       7 UNK        -0.1988 
     52 N         -49.6097  -23.3463   11.9103 N.am      7 UNK        -0.4454 
     53 C         -50.5944  -24.2574   11.8628 C.2       7 UNK         0.5027 
     54 O         -51.3567  -24.4989   12.7987 O.2       7 UNK        -0.5083 
     55 CA        -50.7174  -25.0581   10.5502 C.3       6 UNK         0.0844 
     56 C56       -51.3914  -24.1680    9.4723 C.3       14 UNK        -0.0967 
     57 S57       -51.4397  -24.8761    7.7957 S.3       14 UNK        -0.2604 
     58 C58       -53.0494  -25.7231    7.7604 C.3       14 UNK         0.0134 
     59 N         -49.4178  -25.6181   10.1531 N.am      6 UNK        -0.4116 
     60 C         -48.6816  -26.4432   10.9178 C.2       5 UNK         0.5034 
     61 O         -49.0458  -26.8825   12.0073 O.2       5 UNK        -0.5045 
     62 CA        -47.2679  -26.7847   10.4321 C.3       5 UNK         0.0224 
     63 CB        -47.2869  -27.9837    9.4737 C.3       5 UNK        -0.1978 
     64 N         -46.6264  -25.6331    9.7988 N.am      5 UNK        -0.4737 
     65 C         -46.1594  -24.5724   10.4720 C.2       4 UNK         0.5027 
     66 O         -46.1724  -24.4845   11.6994 O.2       4 UNK        -0.5211 
     67 CA        -45.6277  -23.3955    9.6352 C.3       4 UNK         0.0297 
     68 CB        -44.1530  -23.6209    9.2668 C.3       4 UNK        -0.1993 
     69 N         -46.4079  -23.1623    8.4166 N.am      4 UNK        -0.4486 
     70 C         -47.6949  -22.7890    8.4044 C.2       3 UNK         0.4961 
     71 O         -48.3427  -22.5432    9.4225 O.2       3 UNK        -0.5105 
     72 CA        -48.3919  -22.7131    7.0329 C.3       3 UNK         0.0299 
     73 CB        -48.2199  -21.3099    6.4303 C.3       3 UNK        -0.1972 
     74 N         -47.9751  -23.7211    6.0449 N.am      3 UNK        -0.4305 
     75 C         -47.8928  -25.0470    6.2363 C.2       2 UNK         0.5006 
     76 O         -48.0730  -25.5958    7.3248 O.2       2 UNK        -0.5106 
     77 CA        -47.5188  -25.8985    5.0138 C.3       2 UNK         0.0296 
     78 CB        -46.1928  -25.4356    4.3748 C.3       2 UNK        -0.2002 
     79 N         -47.3982  -27.2993    5.4160 N.am      2 UNK        -0.4032 
     80 C         -47.5473  -28.3662    4.6199 C.2       1 UNK         0.5000 
     81 O         -47.8941  -28.2896    3.4391 O.2       1 UNK        -0.5238 
     82 H82       -44.6403  -29.8853    8.3108 H         1 UNK         0.0889 
     83 H83       -43.9146  -28.3544    7.8045 H         1 UNK         0.0889 
     84 H84       -43.1835  -29.8871    7.3211 H         1 UNK         0.0889 
     85 H85       -46.6384  -29.9522    7.2323 H         1 UNK         0.3028 
     86 H86       -46.7206  -30.3019    4.4110 H         1 UNK         0.0864 
     87 H87       -49.1758  -30.5895    4.7427 H         1 UNK         0.0720 
     88 H88       -48.2045  -31.6136    5.7541 H         1 UNK         0.0720 
     89 H89       -51.3325  -31.2756    6.7273 H         1 UNK         0.0814 
     90 H90       -51.2435  -29.9349    5.6065 H         1 UNK         0.0814 
     91 H91       -51.5911  -27.5759    6.4294 H         1 UNK         0.1469 
     92 H92       -54.1919  -27.1466    9.8099 H         1 UNK         0.1381 
     93 H93       -52.5503  -30.9913    8.8364 H         1 UNK         0.1206 
     94 H94       -53.7964  -30.7123   10.8888 H         1 UNK         0.0813 
     95 H95       -54.0702  -29.0967   11.4938 H         1 UNK         0.0813 
     96 H96       -55.9318  -31.1130   12.3122 H         1 UNK         0.0638 
     97 H97       -57.5631  -30.9444   11.7496 H         1 UNK         0.0638 
     98 H98       -56.1267  -28.3946   12.5425 H         1 UNK         0.0568 
     99 H99       -58.3694  -27.8995   14.6616 H         1 UNK         0.3450 
    100 H100      -59.6971  -27.4645   13.6199 H         1 UNK         0.3450 
    101 H101      -57.2680  -29.3156   14.8897 H         1 UNK         0.2987 
    102 H102      -56.0360  -30.2375   16.6607 H         1 UNK         0.0766 
    103 H103      -53.0102  -29.8071   16.4132 H         1 UNK         0.0798 
    104 H104      -53.8630  -30.3226   17.8661 H         1 UNK         0.0798 
    105 H105      -53.8339  -31.3569   16.4464 H         1 UNK         0.0798 
    106 H106      -54.3997  -27.8333   16.9795 H         1 UNK         0.3198 
    107 H107      -57.0552  -25.5305   16.7505 H         1 UNK         0.0843 
    108 H108      -57.6335  -26.4448   19.0024 H         1 UNK         0.0831 
    109 H109      -56.6721  -24.9832   19.1424 H         1 UNK         0.0831 
    110 H110      -55.9280  -26.5607   19.4119 H         1 UNK         0.0831 
    111 H111      -54.4251  -25.3215   17.8775 H         1 UNK         0.3133 
    112 H112      -53.1144  -23.7819   15.0886 H         1 UNK         0.0566 
    113 H113      -53.3508  -23.2287   17.5292 H         1 UNK         0.0814 
    114 H114      -51.6791  -23.4399   17.0455 H         1 UNK         0.0814 
    115 H115      -52.4882  -24.7091   17.9494 H         1 UNK         0.0814 
    116 H116      -51.6001  -25.2587   14.5015 H         1 UNK         0.3091 
    117 H117      -50.3163  -28.2815   15.9210 H         1 UNK         0.0702 
    118 H118      -50.3583  -28.8548   13.4788 H         1 UNK         0.0785 
    119 H119      -51.6023  -27.6330   13.2157 H         1 UNK         0.0785 
    120 H120      -51.9261  -29.0313   14.2356 H         1 UNK         0.0785 
    121 H121      -49.3826  -26.5632   13.8266 H         1 UNK         0.2998 
    122 H122      -47.1453  -24.6804   15.9326 H         1 UNK         0.0697 
    123 H123      -46.7526  -26.7822   13.7375 H         1 UNK         0.0825 
    124 H124      -46.0395  -26.8361   15.3432 H         1 UNK         0.0825 
    125 H125      -45.5780  -25.5621   14.2256 H         1 UNK         0.0825 
    126 H126      -47.6627  -24.5192   13.1361 H         1 UNK         0.3029 
    127 H127      -50.1969  -21.9786   13.3516 H         1 UNK         0.0897 
    128 H128      -48.5676  -20.8426   11.8655 H         1 UNK         0.0792 
    129 H129      -47.9788  -20.8298   13.5209 H         1 UNK         0.0792 
    130 H130      -47.2949  -21.9575   12.3567 H         1 UNK         0.0792 
    131 H131      -49.0555  -23.1871   11.0710 H         1 UNK         0.3086 
    132 H132      -51.3771  -25.9073   10.7410 H         1 UNK         0.0583 
    133 H133      -52.4068  -23.9127    9.7808 H         1 UNK         0.1020 
    134 H134      -50.8734  -23.2120    9.3833 H         1 UNK         0.1020 
    135 H135      -53.7562  -25.2334    8.4314 H         1 UNK         0.0694 
    136 H136      -53.4677  -25.6294    6.7574 H         1 UNK         0.0694 
    137 H137      -49.0582  -25.3436    9.2463 H         1 UNK         0.2989 
    138 H138      -46.6745  -27.0656   11.3049 H         1 UNK         0.1055 
    139 H139      -47.6716  -28.8728    9.9752 H         1 UNK         0.0806 
    140 H140      -46.2854  -28.2176    9.1176 H         1 UNK         0.0806 
    141 H141      -47.9247  -27.8042    8.6093 H         1 UNK         0.0806 
    142 H142      -46.7013  -25.5760    8.7893 H         1 UNK         0.3061 
    143 H143      -45.6934  -22.4964   10.2518 H         1 UNK         0.0734 
    144 H144      -43.5489  -23.7777   10.1617 H         1 UNK         0.0832 
    145 H145      -44.0231  -24.4964    8.6293 H         1 UNK         0.0832 
    146 H146      -43.7372  -22.7589    8.7450 H         1 UNK         0.0832 
    147 H147      -45.9532  -23.3432    7.5338 H         1 UNK         0.3156 
    148 H148      -49.4565  -22.8657    7.2094 H         1 UNK         0.0589 
    149 H149      -47.1798  -21.1042    6.1744 H         1 UNK         0.0808 
    150 H150      -48.8197  -21.1875    5.5283 H         1 UNK         0.0808 
    151 H151      -48.5405  -20.5403    7.1344 H         1 UNK         0.0808 
    152 H152      -47.7981  -23.3712    5.1144 H         1 UNK         0.3098 
    153 H153      -48.3293  -25.8028    4.2886 H         1 UNK         0.0720 
    154 H154      -45.9232  -26.0630    3.5249 H         1 UNK         0.0791 
    155 H155      -45.3686  -25.4762    5.0882 H         1 UNK         0.0791 
    156 H156      -46.2574  -24.4130    4.0023 H         1 UNK         0.0791 
    157 H157      -47.2103  -27.4409    6.3991 H         1 UNK         0.3028 
@<TRIPOS>BOND
     1    1    2 1    
     2    1   82 1    
     3    1   83 1    
     4    1   84 1    
     5    2    3 2    
     6    2    4 am   BACKBONE|DICT|INTERRES
     7    4    5 1    
     8    4   85 1    
     9    5    6 1    
    10    5   80 1    
    11    5   86 1    
    12    6    7 1    
    13    6   87 1    
    14    6   88 1    
    15    7    8 1    
    16    8    9 1    
    17    8   89 1    
    18    8   90 1    
    19    9   10 ar   
    20    9   14 ar   
    21   10   11 ar   
    22   10   91 1    
    23   11   12 ar   
    24   11   58 1    
    25   12   13 ar   
    26   12   92 1    
    27   13   14 ar   
    28   13   15 1    
    29   14   93 1    
    30   15   16 1    
    31   15   94 1    
    32   15   95 1    
    33   16   17 1    
    34   17   18 1    
    35   17   96 1    
    36   17   97 1    
    37   18   19 1    
    38   18   22 1    
    39   18   98 1    
    40   19   20 am   BACKBONE|DICT|INTERRES
    41   19   21 2    
    42   20   99 1    
    43   20  100 1    
    44   22   23 am   BACKBONE|DICT|INTERRES
    45   22  101 1    
    46   23   24 2    
    47   23   25 1    
    48   25   26 1    
    49   25   27 1    
    50   25  102 1    
    51   26  103 1    
    52   26  104 1    
    53   26  105 1    
    54   27   28 am   BACKBONE|DICT|INTERRES
    55   27  106 1    
    56   28   29 2    
    57   28   30 1    
    58   30   31 1    
    59   30   32 1    
    60   30  107 1    
    61   31  108 1    
    62   31  109 1    
    63   31  110 1    
    64   32   33 am   BACKBONE|DICT|INTERRES
    65   32  111 1    
    66   33   34 2    
    67   33   35 1    
    68   35   36 1    
    69   35   37 1    
    70   35  112 1    
    71   36  113 1    
    72   36  114 1    
    73   36  115 1    
    74   37   38 am   BACKBONE|DICT|INTERRES
    75   37  116 1    
    76   38   39 2    
    77   38   40 1    
    78   40   41 1    
    79   40   42 1    
    80   40  117 1    
    81   41  118 1    
    82   41  119 1    
    83   41  120 1    
    84   42   43 am   BACKBONE|DICT|INTERRES
    85   42  121 1    
    86   43   44 2    
    87   43   45 1    
    88   45   46 1    
    89   45   47 1    
    90   45  122 1    
    91   46  123 1    
    92   46  124 1    
    93   46  125 1    
    94   47   48 am   BACKBONE|DICT|INTERRES
    95   47  126 1    
    96   48   49 2    
    97   48   50 1    
    98   50   51 1    
    99   50   52 1    
   100   50  127 1    
   101   51  128 1    
   102   51  129 1    
   103   51  130 1    
   104   52   53 am   BACKBONE|DICT|INTERRES
   105   52  131 1    
   106   53   54 2    
   107   53   55 1    
   108   55   56 1    
   109   55   59 1    
   110   55  132 1    
   111   56   57 1    
   112   56  133 1    
   113   56  134 1    
   114   57   58 1    
   115   58  135 1    
   116   58  136 1    
   117   59   60 am   BACKBONE|DICT|INTERRES
   118   59  137 1    
   119   60   61 2    
   120   60   62 1    
   121   62   63 1    
   122   62   64 1    
   123   62  138 1    
   124   63  139 1    
   125   63  140 1    
   126   63  141 1    
   127   64   65 am   BACKBONE|DICT|INTERRES
   128   64  142 1    
   129   65   66 2    
   130   65   67 1    
   131   67   68 1    
   132   67   69 1    
   133   67  143 1    
   134   68  144 1    
   135   68  145 1    
   136   68  146 1    
   137   69   70 am   BACKBONE|DICT|INTERRES
   138   69  147 1    
   139   70   71 2    
   140   70   72 1    
   141   72   73 1    
   142   72   74 1    
   143   72  148 1    
   144   73  149 1    
   145   73  150 1    
   146   73  151 1    
   147   74   75 am   BACKBONE|DICT|INTERRES
   148   74  152 1    
   149   75   76 2    
   150   75   77 1    
   151   77   78 1    
   152   77   79 1    
   153   77  153 1    
   154   78  154 1    
   155   78  155 1    
   156   78  156 1    
   157   79   80 am   BACKBONE|DICT|INTERRES
   158   79  157 1    
   159   80   81 2    
@<TRIPOS>SUBSTRUCTURE
     1 UNK         1 GROUP             0       ****    0 ROOT    
