@<TRIPOS>MOLECULE
3R207
157   159    1
SMALL
USER_CHARGES


@<TRIPOS>ATOM
      1 CA        -48.2715  -31.7488    1.9663 C.3       0 UNK        -0.1975 
      2 C         -48.0148  -30.9291    3.2228 C.2       0 UNK         0.4852 
      3 O         -46.8928  -30.9346    3.7316 O.2       0 UNK        -0.5216 
      4 N         -49.0495  -30.2364    3.7217 N.am      1 UNK        -0.4461 
      5 CA        -49.0249  -29.3411    4.8870 C.3       1 UNK         0.0864 
      6 C6        -48.5931  -30.0721    6.1936 C.3       14 UNK        -0.0898 
      7 S7        -49.2528  -29.3081    7.7114 S.3       14 UNK        -0.2598 
      8 C8        -50.8883  -30.0859    7.8268 C.3       14 UNK         0.0286 
      9 C9        -51.6847  -29.4637    8.9603 C.ar      14 UNK        -0.0844 
     10 C10       -52.3101  -28.2273    8.7799 C.ar      14 UNK        -0.0881 
     11 C11       -53.0366  -27.6388    9.8191 C.ar      14 UNK        -0.0643 
     12 C12       -53.1354  -28.3008   11.0485 C.ar      14 UNK        -0.0930 
     13 C13       -52.5258  -29.5468   11.2335 C.ar      14 UNK        -0.0827 
     14 C14       -51.7951  -30.1182   10.1886 C.ar      14 UNK        -0.1249 
     15 C15       -52.6461  -30.2881   12.5561 C.3       14 UNK         0.0141 
     16 S16       -53.8714  -31.6352   12.4600 S.3       14 UNK        -0.2313 
     17 C17       -55.4118  -30.7410   12.8402 C.3       14 UNK        -0.0915 
     18 CA        -56.1253  -30.1632   11.5754 C.3       13 UNK         0.0968 
     19 C         -57.2931  -31.0535   11.0526 C.2       13 UNK         0.5732 
     20 N         -58.3811  -30.4839   10.5477 N.am      13 UNK        -0.7310 
     21 O         -57.2034  -32.2789   11.0714 O.2       13 UNK        -0.5035 
     22 N         -56.4434  -28.7341   11.7366 N.am      13 UNK        -0.4233 
     23 C         -57.2103  -28.2169   12.7030 C.2       13 UNK         0.4989 
     24 O         -57.8860  -28.8841   13.4900 O.2       13 UNK        -0.4996 
     25 CA        -57.1852  -26.6869   12.8466 C.3       12 UNK         0.0216 
     26 CB        -58.5488  -26.0746   12.4866 C.3       12 UNK        -0.1964 
     27 N         -56.8238  -26.3184   14.2179 N.am      12 UNK        -0.4276 
     28 C         -55.6175  -26.5289   14.7628 C.2       12 UNK         0.5020 
     29 O         -54.6490  -26.9725   14.1408 O.2       12 UNK        -0.5489 
     30 CA        -55.4871  -26.2457   16.2680 C.3       11 UNK         0.0294 
     31 CB        -55.7603  -27.5250   17.0755 C.3       11 UNK        -0.2019 
     32 N         -54.1482  -25.7572   16.5934 N.am      11 UNK        -0.4493 
     33 C         -53.7023  -24.5231   16.3372 C.2       11 UNK         0.4932 
     34 O         -54.4161  -23.6184   15.9018 O.2       11 UNK        -0.5029 
     35 CA        -52.2148  -24.2380   16.6052 C.3       10 UNK         0.0280 
     36 CB        -51.9582  -23.9107   18.0888 C.3       10 UNK        -0.1976 
     37 N         -51.3009  -25.2736   16.1078 N.am      10 UNK        -0.4242 
     38 C         -51.1013  -26.5262   16.5409 C.2       10 UNK         0.5072 
     39 O         -51.7327  -27.0457   17.4627 O.2       10 UNK        -0.5224 
     40 CA        -50.0168  -27.3459   15.8160 C.3       9 UNK         0.0343 
     41 CB        -50.6309  -28.1378   14.6519 C.3       9 UNK        -0.2003 
     42 N         -48.9069  -26.5243   15.3213 N.am      9 UNK        -0.4272 
     43 C         -48.0036  -25.9202   16.1088 C.2       9 UNK         0.4988 
     44 O         -47.9600  -26.0592   17.3319 O.2       9 UNK        -0.5108 
     45 CA        -46.9843  -24.9909   15.4255 C.3       8 UNK         0.0248 
     46 CB        -45.8082  -25.7962   14.8504 C.3       8 UNK        -0.2001 
     47 N         -47.5838  -24.1627   14.3759 N.am      8 UNK        -0.4140 
     48 C         -48.4909  -23.1991   14.5957 C.2       8 UNK         0.5028 
     49 O         -48.8574  -22.8446   15.7164 O.2       8 UNK        -0.5428 
     50 CA        -49.1263  -22.5364   13.3605 C.3       7 UNK         0.0264 
     51 CB        -48.2497  -21.3821   12.8503 C.3       7 UNK        -0.1988 
     52 N         -49.4002  -23.4774   12.2690 N.am      7 UNK        -0.4454 
     53 C         -50.2362  -24.5233   12.3613 C.2       7 UNK         0.5027 
     54 O         -50.8750  -24.7836   13.3792 O.2       7 UNK        -0.5083 
     55 CA        -50.3364  -25.4705   11.1437 C.3       6 UNK         0.0844 
     56 C56       -51.2786  -24.9181   10.0465 C.3       14 UNK        -0.0967 
     57 S57       -53.0279  -24.9468   10.5787 S.3       14 UNK        -0.2604 
     58 C58       -53.7340  -26.3033    9.5914 C.3       14 UNK         0.0134 
     59 N         -49.0127  -25.8170   10.6202 N.am      6 UNK        -0.4116 
     60 C         -48.0737  -26.4701   11.3214 C.2       5 UNK         0.5034 
     61 O         -48.2515  -26.9257   12.4515 O.2       5 UNK        -0.5045 
     62 CA        -46.6759  -26.5642   10.6903 C.3       5 UNK         0.0224 
     63 CB        -46.5833  -27.7241    9.6885 C.3       5 UNK        -0.1978 
     64 N         -46.2839  -25.3115   10.0411 N.am      5 UNK        -0.4737 
     65 C         -45.9968  -24.1824   10.7035 C.2       4 UNK         0.5027 
     66 O         -45.9848  -24.0962   11.9304 O.2       4 UNK        -0.5211 
     67 CA        -45.7132  -22.9322    9.8543 C.3       4 UNK         0.0297 
     68 CB        -44.2392  -22.8978    9.4214 C.3       4 UNK        -0.1993 
     69 N         -46.5758  -22.8401    8.6734 N.am      4 UNK        -0.4486 
     70 C         -47.9057  -22.6722    8.7146 C.2       3 UNK         0.4961 
     71 O         -48.5492  -22.5418    9.7539 O.2       3 UNK        -0.5105 
     72 CA        -48.6517  -22.7107    7.3713 C.3       3 UNK         0.0299 
     73 CB        -48.6480  -21.3238    6.7096 C.3       3 UNK        -0.1972 
     74 N         -48.1088  -23.7070    6.4422 N.am      3 UNK        -0.4305 
     75 C         -48.0946  -25.0263    6.6733 C.2       2 UNK         0.5006 
     76 O         -48.5317  -25.5506    7.7022 O.2       2 UNK        -0.5106 
     77 CA        -47.4363  -25.8969    5.6001 C.3       2 UNK         0.0296 
     78 CB        -45.9213  -26.0140    5.8443 C.3       2 UNK        -0.2002 
     79 N         -48.0440  -27.2211    5.6455 N.am      2 UNK        -0.4032 
     80 C         -48.2496  -28.0294    4.6013 C.2       1 UNK         0.5000 
     81 O         -47.8991  -27.7478    3.4508 O.2       1 UNK        -0.5238 
     82 H82       -49.3071  -31.6754    1.6345 H         1 UNK         0.0889 
     83 H83       -48.0490  -32.7994    2.1517 H         1 UNK         0.0889 
     84 H84       -47.6306  -31.4022    1.1560 H         1 UNK         0.0889 
     85 H85       -49.9301  -30.2615    3.2264 H         1 UNK         0.3028 
     86 H86       -50.0643  -29.0326    5.0078 H         1 UNK         0.0864 
     87 H87       -48.9305  -31.1098    6.1748 H         1 UNK         0.0720 
     88 H88       -47.5053  -30.1202    6.2713 H         1 UNK         0.0720 
     89 H89       -50.7716  -31.1601    7.9795 H         1 UNK         0.0814 
     90 H90       -51.4276  -29.9612    6.8869 H         1 UNK         0.0814 
     91 H91       -52.2238  -27.7220    7.8276 H         1 UNK         0.1469 
     92 H92       -53.6887  -27.8468   11.8593 H         1 UNK         0.1381 
     93 H93       -51.3166  -31.0774   10.3325 H         1 UNK         0.1206 
     94 H94       -51.6763  -30.7121   12.8206 H         1 UNK         0.0813 
     95 H95       -52.9059  -29.6002   13.3613 H         1 UNK         0.0813 
     96 H96       -56.0701  -31.4100   13.3974 H         1 UNK         0.0638 
     97 H97       -55.1618  -29.9521   13.5510 H         1 UNK         0.0638 
     98 H98       -55.4119  -30.1732   10.7510 H         1 UNK         0.0568 
     99 H99       -58.4676  -29.4811   10.5212 H         1 UNK         0.3450 
    100 H100      -59.1273  -31.0661   10.2015 H         1 UNK         0.3450 
    101 H101      -55.9527  -28.1104   11.1143 H         1 UNK         0.2987 
    102 H102      -56.4314  -26.2706   12.1741 H         1 UNK         0.0766 
    103 H103      -58.5294  -24.9874   12.5659 H         1 UNK         0.0798 
    104 H104      -59.3438  -26.4449   13.1355 H         1 UNK         0.0798 
    105 H105      -58.8264  -26.3184   11.4603 H         1 UNK         0.0798 
    106 H106      -57.5753  -25.9945   14.8096 H         1 UNK         0.3198 
    107 H107      -56.2166  -25.4849   16.5548 H         1 UNK         0.0843 
    108 H108      -55.0493  -28.3151   16.8292 H         1 UNK         0.0831 
    109 H109      -56.7596  -27.9118   16.8706 H         1 UNK         0.0831 
    110 H110      -55.6979  -27.3394   18.1479 H         1 UNK         0.0831 
    111 H111      -53.4693  -26.4366   16.9253 H         1 UNK         0.3133 
    112 H112      -51.9621  -23.3454   16.0304 H         1 UNK         0.0566 
    113 H113      -50.9150  -23.6426   18.2575 H         1 UNK         0.0814 
    114 H114      -52.5673  -23.0649   18.4098 H         1 UNK         0.0814 
    115 H115      -52.2000  -24.7493   18.7423 H         1 UNK         0.0814 
    116 H116      -50.8321  -25.0226   15.2397 H         1 UNK         0.3091 
    117 H117      -49.6101  -28.0613   16.5337 H         1 UNK         0.0702 
    118 H118      -51.4121  -28.8053   15.0163 H         1 UNK         0.0785 
    119 H119      -49.8843  -28.7525   14.1485 H         1 UNK         0.0785 
    120 H120      -51.0822  -27.4818   13.9062 H         1 UNK         0.0785 
    121 H121      -48.8320  -26.4128   14.3145 H         1 UNK         0.2998 
    122 H122      -46.5883  -24.3181   16.1892 H         1 UNK         0.0697 
    123 H123      -46.1308  -26.4836   14.0685 H         1 UNK         0.0825 
    124 H124      -45.3255  -26.3901   15.6277 H         1 UNK         0.0825 
    125 H125      -45.0488  -25.1398   14.4251 H         1 UNK         0.0825 
    126 H126      -47.2691  -24.3282   13.4240 H         1 UNK         0.3029 
    127 H127      -50.0852  -22.1183   13.6743 H         1 UNK         0.0897 
    128 H128      -48.7272  -20.8563   12.0232 H         1 UNK         0.0792 
    129 H129      -47.2778  -21.7353   12.5061 H         1 UNK         0.0792 
    130 H130      -48.0702  -20.6506   13.6393 H         1 UNK         0.0792 
    131 H131      -48.9530  -23.2805   11.3749 H         1 UNK         0.3086 
    132 H132      -50.7668  -26.4081   11.5033 H         1 UNK         0.0583 
    133 H133      -51.0062  -23.8973    9.7721 H         1 UNK         0.1020 
    134 H134      -51.1748  -25.5054    9.1327 H         1 UNK         0.1020 
    135 H135      -54.7898  -26.4048    9.8444 H         1 UNK         0.0694 
    136 H136      -53.7013  -26.0223    8.5375 H         1 UNK         0.0694 
    137 H137      -48.7951  -25.5188    9.6744 H         1 UNK         0.2989 
    138 H138      -45.9690  -26.7631   11.4991 H         1 UNK         0.1055 
    139 H139      -46.9201  -28.6592   10.1384 H         1 UNK         0.0806 
    140 H140      -45.5574  -27.8765    9.3531 H         1 UNK         0.0806 
    141 H141      -47.1980  -27.5466    8.8078 H         1 UNK         0.0806 
    142 H142      -46.3187  -25.2859    9.0331 H         1 UNK         0.3061 
    143 H143      -45.9054  -22.0569   10.4782 H         1 UNK         0.0734 
    144 H144      -44.0027  -21.9763    8.8891 H         1 UNK         0.0832 
    145 H145      -43.5787  -22.9469   10.2884 H         1 UNK         0.0832 
    146 H146      -43.9860  -23.7368    8.7720 H         1 UNK         0.0832 
    147 H147      -46.1322  -22.9320    7.7714 H         1 UNK         0.3156 
    148 H148      -49.6883  -22.9843    7.5798 H         1 UNK         0.0589 
    149 H149      -47.6400  -21.0011    6.4460 H         1 UNK         0.0808 
    150 H150      -49.2522  -21.3151    5.8022 H         1 UNK         0.0808 
    151 H151      -49.0655  -20.5716    7.3807 H         1 UNK         0.0808 
    152 H152      -47.7256  -23.3588    5.5746 H         1 UNK         0.3098 
    153 H153      -47.6181  -25.4409    4.6245 H         1 UNK         0.0720 
    154 H154      -45.4449  -26.6221    5.0749 H         1 UNK         0.0791 
    155 H155      -45.7020  -26.4703    6.8105 H         1 UNK         0.0791 
    156 H156      -45.4404  -25.0353    5.8249 H         1 UNK         0.0791 
    157 H157      -48.4129  -27.4869    6.5531 H         1 UNK         0.3028 
@<TRIPOS>BOND
     1    1    2 1    
     2    1   82 1    
     3    1   83 1    
     4    1   84 1    
     5    2    3 2    
     6    2    4 am   BACKBONE|DICT|INTERRES
     7    4    5 1    
     8    4   85 1    
     9    5    6 1    
    10    5   80 1    
    11    5   86 1    
    12    6    7 1    
    13    6   87 1    
    14    6   88 1    
    15    7    8 1    
    16    8    9 1    
    17    8   89 1    
    18    8   90 1    
    19    9   10 ar   
    20    9   14 ar   
    21   10   11 ar   
    22   10   91 1    
    23   11   12 ar   
    24   11   58 1    
    25   12   13 ar   
    26   12   92 1    
    27   13   14 ar   
    28   13   15 1    
    29   14   93 1    
    30   15   16 1    
    31   15   94 1    
    32   15   95 1    
    33   16   17 1    
    34   17   18 1    
    35   17   96 1    
    36   17   97 1    
    37   18   19 1    
    38   18   22 1    
    39   18   98 1    
    40   19   20 am   BACKBONE|DICT|INTERRES
    41   19   21 2    
    42   20   99 1    
    43   20  100 1    
    44   22   23 am   BACKBONE|DICT|INTERRES
    45   22  101 1    
    46   23   24 2    
    47   23   25 1    
    48   25   26 1    
    49   25   27 1    
    50   25  102 1    
    51   26  103 1    
    52   26  104 1    
    53   26  105 1    
    54   27   28 am   BACKBONE|DICT|INTERRES
    55   27  106 1    
    56   28   29 2    
    57   28   30 1    
    58   30   31 1    
    59   30   32 1    
    60   30  107 1    
    61   31  108 1    
    62   31  109 1    
    63   31  110 1    
    64   32   33 am   BACKBONE|DICT|INTERRES
    65   32  111 1    
    66   33   34 2    
    67   33   35 1    
    68   35   36 1    
    69   35   37 1    
    70   35  112 1    
    71   36  113 1    
    72   36  114 1    
    73   36  115 1    
    74   37   38 am   BACKBONE|DICT|INTERRES
    75   37  116 1    
    76   38   39 2    
    77   38   40 1    
    78   40   41 1    
    79   40   42 1    
    80   40  117 1    
    81   41  118 1    
    82   41  119 1    
    83   41  120 1    
    84   42   43 am   BACKBONE|DICT|INTERRES
    85   42  121 1    
    86   43   44 2    
    87   43   45 1    
    88   45   46 1    
    89   45   47 1    
    90   45  122 1    
    91   46  123 1    
    92   46  124 1    
    93   46  125 1    
    94   47   48 am   BACKBONE|DICT|INTERRES
    95   47  126 1    
    96   48   49 2    
    97   48   50 1    
    98   50   51 1    
    99   50   52 1    
   100   50  127 1    
   101   51  128 1    
   102   51  129 1    
   103   51  130 1    
   104   52   53 am   BACKBONE|DICT|INTERRES
   105   52  131 1    
   106   53   54 2    
   107   53   55 1    
   108   55   56 1    
   109   55   59 1    
   110   55  132 1    
   111   56   57 1    
   112   56  133 1    
   113   56  134 1    
   114   57   58 1    
   115   58  135 1    
   116   58  136 1    
   117   59   60 am   BACKBONE|DICT|INTERRES
   118   59  137 1    
   119   60   61 2    
   120   60   62 1    
   121   62   63 1    
   122   62   64 1    
   123   62  138 1    
   124   63  139 1    
   125   63  140 1    
   126   63  141 1    
   127   64   65 am   BACKBONE|DICT|INTERRES
   128   64  142 1    
   129   65   66 2    
   130   65   67 1    
   131   67   68 1    
   132   67   69 1    
   133   67  143 1    
   134   68  144 1    
   135   68  145 1    
   136   68  146 1    
   137   69   70 am   BACKBONE|DICT|INTERRES
   138   69  147 1    
   139   70   71 2    
   140   70   72 1    
   141   72   73 1    
   142   72   74 1    
   143   72  148 1    
   144   73  149 1    
   145   73  150 1    
   146   73  151 1    
   147   74   75 am   BACKBONE|DICT|INTERRES
   148   74  152 1    
   149   75   76 2    
   150   75   77 1    
   151   77   78 1    
   152   77   79 1    
   153   77  153 1    
   154   78  154 1    
   155   78  155 1    
   156   78  156 1    
   157   79   80 am   BACKBONE|DICT|INTERRES
   158   79  157 1    
   159   80   81 2    
@<TRIPOS>SUBSTRUCTURE
     1 UNK         1 GROUP             0       ****    0 ROOT    
