@<TRIPOS>MOLECULE
3R207
157   159    1
SMALL
USER_CHARGES


@<TRIPOS>ATOM
      1 CA        -50.6411  -32.3181    6.3044 C.3       0 UNK        -0.1975 
      2 C         -50.3914  -30.8178    6.2776 C.2       0 UNK         0.4852 
      3 O         -50.2367  -30.2088    7.3364 O.2       0 UNK        -0.5216 
      4 N         -50.3286  -30.2272    5.0749 N.am      1 UNK        -0.4461 
      5 CA        -50.1662  -28.7956    4.7596 C.3       1 UNK         0.0864 
      6 C6        -51.2944  -27.8944    5.3281 C.3       14 UNK        -0.0898 
      7 S7        -52.9544  -28.3554    4.7236 S.3       14 UNK        -0.2598 
      8 C8        -53.9074  -26.8442    5.0920 C.3       14 UNK         0.0286 
      9 C9        -54.0689  -26.6335    6.5909 C.ar      14 UNK        -0.0844 
     10 C10       -53.1095  -25.9128    7.3046 C.ar      14 UNK        -0.0881 
     11 C11       -53.2103  -25.7687    8.6904 C.ar      14 UNK        -0.0643 
     12 C12       -54.3023  -26.3246    9.3634 C.ar      14 UNK        -0.0930 
     13 C13       -55.2923  -27.0160    8.6556 C.ar      14 UNK        -0.0827 
     14 C14       -55.1688  -27.1655    7.2688 C.ar      14 UNK        -0.1249 
     15 C15       -56.5051  -27.5734    9.3925 C.3       14 UNK         0.0141 
     16 S16       -56.8548  -29.3187    8.9967 S.3       14 UNK        -0.2313 
     17 C17       -55.4041  -30.1732    9.6982 C.3       14 UNK        -0.0915 
     18 CA        -55.7284  -30.8320   11.0641 C.3       13 UNK         0.0968 
     19 C         -54.6407  -31.8656   11.4823 C.2       13 UNK         0.5732 
     20 N         -54.0711  -31.7934   12.6796 N.am      13 UNK        -0.7310 
     21 O         -54.3186  -32.7664   10.7111 O.2       13 UNK        -0.5035 
     22 N         -56.0140  -29.8119   12.0854 N.am      13 UNK        -0.4233 
     23 C         -56.8371  -29.9624   13.1269 C.2       13 UNK         0.4989 
     24 O         -57.4939  -30.9824   13.3425 O.2       13 UNK        -0.4996 
     25 CA        -56.8911  -28.7786   14.1117 C.3       12 UNK         0.0216 
     26 CB        -57.9620  -28.9614   15.2038 C.3       12 UNK        -0.1964 
     27 N         -55.5879  -28.5741   14.7503 N.am      12 UNK        -0.4276 
     28 C         -54.5441  -27.9488   14.1924 C.2       12 UNK         0.5020 
     29 O         -54.5753  -27.4272   13.0746 O.2       12 UNK        -0.5489 
     30 CA        -53.2295  -27.9778   14.9824 C.3       11 UNK         0.0294 
     31 CB        -52.1468  -28.7530   14.2133 C.3       11 UNK        -0.2019 
     32 N         -52.7451  -26.6302   15.2625 N.am      11 UNK        -0.4493 
     33 C         -53.2144  -25.8331   16.2304 C.2       11 UNK         0.4932 
     34 O         -54.1828  -26.1115   16.9404 O.2       11 UNK        -0.5029 
     35 CA        -52.4095  -24.5398   16.4724 C.3       10 UNK         0.0280 
     36 CB        -52.8719  -23.7504   17.7151 C.3       10 UNK        -0.1976 
     37 N         -50.9671  -24.8165   16.5220 N.am      10 UNK        -0.4242 
     38 C         -50.3211  -25.6346   17.3696 C.2       10 UNK         0.5072 
     39 O         -50.8388  -26.1567   18.3580 O.2       10 UNK        -0.5224 
     40 CA        -48.8548  -25.9738   17.0427 C.3       9 UNK         0.0343 
     41 CB        -48.7710  -27.3642   16.3917 C.3       9 UNK        -0.2003 
     42 N         -48.2067  -25.0006   16.1615 N.am      9 UNK        -0.4272 
     43 C         -47.8011  -23.7835   16.5483 C.2       9 UNK         0.4988 
     44 O         -47.8867  -23.3659   17.7038 O.2       9 UNK        -0.5108 
     45 CA        -47.2179  -22.8702   15.4575 C.3       8 UNK         0.0248 
     46 CB        -45.7433  -23.2160   15.1956 C.3       8 UNK        -0.2001 
     47 N         -47.9738  -22.9184   14.2011 N.am      8 UNK        -0.4140 
     48 C         -49.2499  -22.5224   14.0698 C.2       8 UNK         0.5028 
     49 O         -49.9212  -22.0542   14.9893 O.2       8 UNK        -0.5428 
     50 CA        -49.9048  -22.7049   12.6924 C.3       7 UNK         0.0264 
     51 CB        -49.4491  -21.6061   11.7206 C.3       7 UNK        -0.1988 
     52 N         -49.6421  -24.0247   12.1180 N.am      7 UNK        -0.4454 
     53 C         -50.1228  -25.1763   12.6137 C.2       7 UNK         0.5027 
     54 O         -50.8819  -25.2428   13.5806 O.2       7 UNK        -0.5083 
     55 CA        -49.6421  -26.4851   11.9552 C.3       6 UNK         0.0844 
     56 C56       -50.5795  -26.9515   10.8127 C.3       14 UNK        -0.0967 
     57 S57       -50.5351  -25.8727    9.3467 S.3       14 UNK        -0.2604 
     58 C58       -52.1312  -25.0067    9.4421 C.3       14 UNK         0.0134 
     59 N         -48.2280  -26.4220   11.5672 N.am      6 UNK        -0.4116 
     60 C         -47.2241  -26.2946   12.4486 C.2       5 UNK         0.5034 
     61 O         -47.3839  -26.2257   13.6675 O.2       5 UNK        -0.5045 
     62 CA        -45.8046  -26.1860   11.8818 C.3       5 UNK         0.0224 
     63 CB        -45.2836  -27.5613   11.4352 C.3       5 UNK        -0.1978 
     64 N         -45.7173  -25.2344   10.7751 N.am      5 UNK        -0.4737 
     65 C         -45.8284  -23.9061   10.9048 C.2       4 UNK         0.5027 
     66 O         -46.0809  -23.3405   11.9680 O.2       4 UNK        -0.5211 
     67 CA        -45.6275  -23.0714    9.6303 C.3       4 UNK         0.0297 
     68 CB        -44.1305  -22.8751    9.3427 C.3       4 UNK        -0.1993 
     69 N         -46.2805  -23.6661    8.4625 N.am      4 UNK        -0.4486 
     70 C         -47.6078  -23.6768    8.2870 C.2       3 UNK         0.4961 
     71 O         -48.4037  -23.1623    9.0715 O.2       3 UNK        -0.5105 
     72 CA        -48.1414  -24.3764    7.0259 C.3       3 UNK         0.0299 
     73 CB        -48.0224  -23.4468    5.8074 C.3       3 UNK        -0.1972 
     74 N         -47.5471  -25.6793    6.6996 N.am      3 UNK        -0.4305 
     75 C         -47.3005  -26.7067    7.5271 C.2       2 UNK         0.5006 
     76 O         -47.3616  -26.6519    8.7561 O.2       2 UNK        -0.5106 
     77 CA        -46.9837  -28.0467    6.8401 C.3       2 UNK         0.0296 
     78 CB        -46.3768  -29.0793    7.8079 C.3       2 UNK        -0.2002 
     79 N         -48.2083  -28.6019    6.2625 N.am      2 UNK        -0.4032 
     80 C         -48.7825  -28.2076    5.1194 C.2       1 UNK         0.5000 
     81 O         -48.2643  -27.3862    4.3591 O.2       1 UNK        -0.5238 
     82 H82       -50.7585  -32.7313    5.3027 H         1 UNK         0.0889 
     83 H83       -51.5475  -32.5353    6.8688 H         1 UNK         0.0889 
     84 H84       -49.8082  -32.8285    6.7872 H         1 UNK         0.0889 
     85 H85       -50.4344  -30.8132    4.2583 H         1 UNK         0.3028 
     86 H86       -50.2293  -28.7391    3.6715 H         1 UNK         0.0864 
     87 H87       -51.2994  -27.9245    6.4192 H         1 UNK         0.0720 
     88 H88       -51.1161  -26.8534    5.0513 H         1 UNK         0.0720 
     89 H89       -54.8886  -26.9237    4.6217 H         1 UNK         0.0814 
     90 H90       -53.4218  -25.9808    4.6345 H         1 UNK         0.0814 
     91 H91       -52.2602  -25.4874    6.7879 H         1 UNK         0.1469 
     92 H92       -54.3852  -26.2113   10.4364 H         1 UNK         0.1381 
     93 H93       -55.9240  -27.7096    6.7181 H         1 UNK         0.1206 
     94 H94       -57.3768  -26.9758    9.1231 H         1 UNK         0.0813 
     95 H95       -56.3872  -27.4705   10.4721 H         1 UNK         0.0813 
     96 H96       -54.5623  -29.4846    9.7881 H         1 UNK         0.0638 
     97 H97       -55.1023  -30.9236    8.9654 H         1 UNK         0.0638 
     98 H98       -56.6327  -31.4276   10.9265 H         1 UNK         0.0568 
     99 H99       -53.3775  -32.4785   12.9346 H         1 UNK         0.3450 
    100 H100      -54.3548  -31.0884   13.3374 H         1 UNK         0.3450 
    101 H101      -55.4691  -28.9576   12.0363 H         1 UNK         0.2987 
    102 H102      -57.1515  -27.8865   13.5374 H         1 UNK         0.0766 
    103 H103      -58.0157  -28.0892   15.8558 H         1 UNK         0.0798 
    104 H104      -57.7631  -29.8343   15.8271 H         1 UNK         0.0798 
    105 H105      -58.9507  -29.0944   14.7623 H         1 UNK         0.0798 
    106 H106      -55.4706  -28.9875   15.6649 H         1 UNK         0.3198 
    107 H107      -53.3918  -28.4869   15.9352 H         1 UNK         0.0843 
    108 H108      -51.2128  -28.7935   14.7731 H         1 UNK         0.0831 
    109 H109      -51.9392  -28.3009   13.2437 H         1 UNK         0.0831 
    110 H110      -52.4563  -29.7822   14.0316 H         1 UNK         0.0831 
    111 H111      -52.0037  -26.2674   14.6669 H         1 UNK         0.3133 
    112 H112      -52.5694  -23.9063   15.5985 H         1 UNK         0.0566 
    113 H113      -52.2854  -22.8410   17.8455 H         1 UNK         0.0814 
    114 H114      -53.9166  -23.4525   17.6193 H         1 UNK         0.0814 
    115 H115      -52.7857  -24.3397   18.6284 H         1 UNK         0.0814 
    116 H116      -50.4436  -24.4668   15.7296 H         1 UNK         0.3091 
    117 H117      -48.3060  -26.0050   17.9864 H         1 UNK         0.0702 
    118 H118      -49.2296  -28.1247   17.0254 H         1 UNK         0.0785 
    119 H119      -47.7356  -27.6618   16.2246 H         1 UNK         0.0785 
    120 H120      -49.2835  -27.3864   15.4293 H         1 UNK         0.0785 
    121 H121      -48.0336  -25.2969   15.2035 H         1 UNK         0.2998 
    122 H122      -47.2633  -21.8443   15.8288 H         1 UNK         0.0697 
    123 H123      -45.6320  -24.2143   14.7706 H         1 UNK         0.0825 
    124 H124      -45.1634  -23.1861   16.1191 H         1 UNK         0.0825 
    125 H125      -45.2874  -22.5067   14.5047 H         1 UNK         0.0825 
    126 H126      -47.4698  -23.2471   13.3817 H         1 UNK         0.3029 
    127 H127      -50.9848  -22.6097   12.8258 H         1 UNK         0.0897 
    128 H128      -49.9875  -21.6686   10.7747 H         1 UNK         0.0792 
    129 H129      -49.6366  -20.6146   12.1347 H         1 UNK         0.0792 
    130 H130      -48.3824  -21.6740   11.5025 H         1 UNK         0.0792 
    131 H131      -49.0506  -24.0578   11.2968 H         1 UNK         0.3086 
    132 H132      -49.7050  -27.2501   12.7322 H         1 UNK         0.0583 
    133 H133      -50.2883  -27.9528   10.4917 H         1 UNK         0.1020 
    134 H134      -51.6072  -27.0487   11.1684 H         1 UNK         0.1020 
    135 H135      -52.4094  -24.8391   10.4837 H         1 UNK         0.0694 
    136 H136      -52.0170  -24.0190    8.9933 H         1 UNK         0.0694 
    137 H137      -48.0161  -26.4539   10.5719 H         1 UNK         0.2989 
    138 H138      -45.1581  -25.8249   12.6851 H         1 UNK         0.1055 
    139 H139      -45.2973  -28.2696   12.2647 H         1 UNK         0.0806 
    140 H140      -44.2552  -27.5005   11.0790 H         1 UNK         0.0806 
    141 H141      -45.8915  -27.9862   10.6363 H         1 UNK         0.0806 
    142 H142      -45.6364  -25.6241    9.8458 H         1 UNK         0.3061 
    143 H143      -46.0682  -22.0875    9.8070 H         1 UNK         0.0734 
    144 H144      -43.9735  -22.2181    8.4871 H         1 UNK         0.0832 
    145 H145      -43.6281  -22.4178   10.1965 H         1 UNK         0.0832 
    146 H146      -43.6275  -23.8210    9.1380 H         1 UNK         0.0832 
    147 H147      -45.6955  -24.1132    7.7717 H         1 UNK         0.3156 
    148 H148      -49.2043  -24.5571    7.1869 H         1 UNK         0.0589 
    149 H149      -46.9816  -23.2714    5.5326 H         1 UNK         0.0808 
    150 H150      -48.5334  -23.8629    4.9389 H         1 UNK         0.0808 
    151 H151      -48.4748  -22.4749    6.0108 H         1 UNK         0.0808 
    152 H152      -47.5013  -25.8953    5.7103 H         1 UNK         0.3098 
    153 H153      -46.2580  -27.8614    6.0453 H         1 UNK         0.0720 
    154 H154      -46.1275  -30.0062    7.2913 H         1 UNK         0.0791 
    155 H155      -47.0617  -29.3243    8.6211 H         1 UNK         0.0791 
    156 H156      -45.4572  -28.7002    8.2550 H         1 UNK         0.0791 
    157 H157      -48.7563  -29.2252    6.8524 H         1 UNK         0.3028 
@<TRIPOS>BOND
     1    1    2 1    
     2    1   82 1    
     3    1   83 1    
     4    1   84 1    
     5    2    3 2    
     6    2    4 am   BACKBONE|DICT|INTERRES
     7    4    5 1    
     8    4   85 1    
     9    5    6 1    
    10    5   80 1    
    11    5   86 1    
    12    6    7 1    
    13    6   87 1    
    14    6   88 1    
    15    7    8 1    
    16    8    9 1    
    17    8   89 1    
    18    8   90 1    
    19    9   10 ar   
    20    9   14 ar   
    21   10   11 ar   
    22   10   91 1    
    23   11   12 ar   
    24   11   58 1    
    25   12   13 ar   
    26   12   92 1    
    27   13   14 ar   
    28   13   15 1    
    29   14   93 1    
    30   15   16 1    
    31   15   94 1    
    32   15   95 1    
    33   16   17 1    
    34   17   18 1    
    35   17   96 1    
    36   17   97 1    
    37   18   19 1    
    38   18   22 1    
    39   18   98 1    
    40   19   20 am   BACKBONE|DICT|INTERRES
    41   19   21 2    
    42   20   99 1    
    43   20  100 1    
    44   22   23 am   BACKBONE|DICT|INTERRES
    45   22  101 1    
    46   23   24 2    
    47   23   25 1    
    48   25   26 1    
    49   25   27 1    
    50   25  102 1    
    51   26  103 1    
    52   26  104 1    
    53   26  105 1    
    54   27   28 am   BACKBONE|DICT|INTERRES
    55   27  106 1    
    56   28   29 2    
    57   28   30 1    
    58   30   31 1    
    59   30   32 1    
    60   30  107 1    
    61   31  108 1    
    62   31  109 1    
    63   31  110 1    
    64   32   33 am   BACKBONE|DICT|INTERRES
    65   32  111 1    
    66   33   34 2    
    67   33   35 1    
    68   35   36 1    
    69   35   37 1    
    70   35  112 1    
    71   36  113 1    
    72   36  114 1    
    73   36  115 1    
    74   37   38 am   BACKBONE|DICT|INTERRES
    75   37  116 1    
    76   38   39 2    
    77   38   40 1    
    78   40   41 1    
    79   40   42 1    
    80   40  117 1    
    81   41  118 1    
    82   41  119 1    
    83   41  120 1    
    84   42   43 am   BACKBONE|DICT|INTERRES
    85   42  121 1    
    86   43   44 2    
    87   43   45 1    
    88   45   46 1    
    89   45   47 1    
    90   45  122 1    
    91   46  123 1    
    92   46  124 1    
    93   46  125 1    
    94   47   48 am   BACKBONE|DICT|INTERRES
    95   47  126 1    
    96   48   49 2    
    97   48   50 1    
    98   50   51 1    
    99   50   52 1    
   100   50  127 1    
   101   51  128 1    
   102   51  129 1    
   103   51  130 1    
   104   52   53 am   BACKBONE|DICT|INTERRES
   105   52  131 1    
   106   53   54 2    
   107   53   55 1    
   108   55   56 1    
   109   55   59 1    
   110   55  132 1    
   111   56   57 1    
   112   56  133 1    
   113   56  134 1    
   114   57   58 1    
   115   58  135 1    
   116   58  136 1    
   117   59   60 am   BACKBONE|DICT|INTERRES
   118   59  137 1    
   119   60   61 2    
   120   60   62 1    
   121   62   63 1    
   122   62   64 1    
   123   62  138 1    
   124   63  139 1    
   125   63  140 1    
   126   63  141 1    
   127   64   65 am   BACKBONE|DICT|INTERRES
   128   64  142 1    
   129   65   66 2    
   130   65   67 1    
   131   67   68 1    
   132   67   69 1    
   133   67  143 1    
   134   68  144 1    
   135   68  145 1    
   136   68  146 1    
   137   69   70 am   BACKBONE|DICT|INTERRES
   138   69  147 1    
   139   70   71 2    
   140   70   72 1    
   141   72   73 1    
   142   72   74 1    
   143   72  148 1    
   144   73  149 1    
   145   73  150 1    
   146   73  151 1    
   147   74   75 am   BACKBONE|DICT|INTERRES
   148   74  152 1    
   149   75   76 2    
   150   75   77 1    
   151   77   78 1    
   152   77   79 1    
   153   77  153 1    
   154   78  154 1    
   155   78  155 1    
   156   78  156 1    
   157   79   80 am   BACKBONE|DICT|INTERRES
   158   79  157 1    
   159   80   81 2    
@<TRIPOS>SUBSTRUCTURE
     1 UNK         1 GROUP             0       ****    0 ROOT    
