@<TRIPOS>MOLECULE
3R207
157   159    1
SMALL
USER_CHARGES


@<TRIPOS>ATOM
      1 CA        -44.4737  -29.4783    5.0957 C.3       0 UNK        -0.1975 
      2 C         -45.2174  -29.7290    6.4056 C.2       0 UNK         0.4852 
      3 O         -44.5772  -29.7949    7.4527 O.2       0 UNK        -0.5216 
      4 N         -46.5506  -29.8851    6.4099 N.am      1 UNK        -0.4461 
      5 CA        -47.4663  -29.8135    5.2629 C.3       1 UNK         0.0864 
      6 C6        -48.8506  -30.4211    5.5981 C.3       14 UNK        -0.0898 
      7 S7        -49.7066  -29.6365    7.0110 S.3       14 UNK        -0.2598 
      8 C8        -51.1461  -28.9227    6.1607 C.3       14 UNK         0.0286 
      9 C9        -52.1449  -28.3173    7.1351 C.ar      14 UNK        -0.0844 
     10 C10       -52.3228  -26.9322    7.1981 C.ar      14 UNK        -0.0881 
     11 C11       -53.2993  -26.3799    8.0339 C.ar      14 UNK        -0.0643 
     12 C12       -54.0847  -27.2228    8.8270 C.ar      14 UNK        -0.0930 
     13 C13       -53.9104  -28.6091    8.7773 C.ar      14 UNK        -0.0827 
     14 C14       -52.9385  -29.1496    7.9304 C.ar      14 UNK        -0.1249 
     15 C15       -54.8118  -29.5280    9.5873 C.3       14 UNK         0.0141 
     16 S16       -54.1388  -29.8745   11.2423 S.3       14 UNK        -0.2313 
     17 C17       -55.3779  -31.0767   11.8316 C.3       14 UNK        -0.0915 
     18 CA        -56.5009  -30.4233   12.6851 C.3       13 UNK         0.0968 
     19 C         -57.7861  -31.2903   12.6702 C.2       13 UNK         0.5732 
     20 N         -58.6152  -31.1527   11.6449 N.am      13 UNK        -0.7310 
     21 O         -58.0265  -32.1040   13.5621 O.2       13 UNK        -0.5035 
     22 N         -56.0828  -30.2083   14.0744 N.am      13 UNK        -0.4233 
     23 C         -55.6437  -29.0637   14.6018 C.2       13 UNK         0.4989 
     24 O         -55.4326  -28.0363   13.9541 O.2       13 UNK        -0.4996 
     25 CA        -55.3895  -29.0942   16.1197 C.3       12 UNK         0.0216 
     26 CB        -54.0904  -29.8500   16.4493 C.3       12 UNK        -0.1964 
     27 N         -55.3284  -27.7460   16.6898 N.am      12 UNK        -0.4276 
     28 C         -56.4036  -26.9790   16.9252 C.2       12 UNK         0.5020 
     29 O         -57.5622  -27.3629   16.7530 O.2       12 UNK        -0.5489 
     30 CA        -56.1710  -25.5542   17.4633 C.3       11 UNK         0.0294 
     31 CB        -56.4181  -25.5067   18.9803 C.3       11 UNK        -0.2019 
     32 N         -54.8302  -25.0390   17.1836 N.am      11 UNK        -0.4493 
     33 C         -54.4172  -24.5804   15.9948 C.2       11 UNK         0.4932 
     34 O         -55.1474  -24.4704   15.0099 O.2       11 UNK        -0.5029 
     35 CA        -52.9354  -24.1763   15.8834 C.3       10 UNK         0.0280 
     36 CB        -52.3301  -23.6644   17.2098 C.3       10 UNK        -0.1976 
     37 N         -52.1129  -25.2510   15.3213 N.am      10 UNK        -0.4242 
     38 C         -51.9675  -26.4997   15.7897 C.2       10 UNK         0.5072 
     39 O         -52.5384  -26.9343   16.7917 O.2       10 UNK        -0.5224 
     40 CA        -50.9984  -27.4154   15.0241 C.3       9 UNK         0.0343 
     41 CB        -51.6384  -27.9325   13.7241 C.3       9 UNK        -0.2003 
     42 N         -49.7258  -26.7568   14.7208 N.am      9 UNK        -0.4272 
     43 C         -48.8240  -26.3647   15.6336 C.2       9 UNK         0.4988 
     44 O         -48.9304  -26.5796   16.8416 O.2       9 UNK        -0.5108 
     45 CA        -47.5943  -25.5963   15.1161 C.3       8 UNK         0.0248 
     46 CB        -46.5288  -26.5648   14.5784 C.3       8 UNK        -0.2001 
     47 N         -47.9362  -24.6079   14.0896 N.am      8 UNK        -0.4140 
     48 C         -48.6544  -23.4988   14.3218 C.2       8 UNK         0.5028 
     49 O         -49.0262  -23.1444   15.4408 O.2       8 UNK        -0.5428 
     50 CA        -49.0450  -22.6448   13.1034 C.3       7 UNK         0.0264 
     51 CB        -47.9249  -21.6530   12.7516 C.3       7 UNK        -0.1988 
     52 N         -49.3860  -23.4398   11.9213 N.am      7 UNK        -0.4454 
     53 C         -50.4164  -24.2957   11.8434 C.2       7 UNK         0.5027 
     54 O         -51.2120  -24.4881   12.7628 O.2       7 UNK        -0.5083 
     55 CA        -50.5446  -25.1119   10.5378 C.3       6 UNK         0.0844 
     56 C56       -51.1430  -24.2608    9.3915 C.3       14 UNK        -0.0967 
     57 S57       -52.9494  -24.0722    9.5520 S.3       14 UNK        -0.2604 
     58 C58       -53.5485  -24.8781    8.0360 C.3       14 UNK         0.0134 
     59 N         -49.2685  -25.7248   10.1576 N.am      6 UNK        -0.4116 
     60 C         -48.5740  -26.5840   10.9178 C.2       5 UNK         0.5034 
     61 O         -48.9729  -27.0333   11.9901 O.2       5 UNK        -0.5045 
     62 CA        -47.1643  -26.9530   10.4370 C.3       5 UNK         0.0224 
     63 CB        -47.2066  -28.1405    9.4662 C.3       5 UNK        -0.1978 
     64 N         -46.4895  -25.8121    9.8141 N.am      5 UNK        -0.4737 
     65 C         -46.0269  -24.7552   10.4965 C.2       4 UNK         0.5027 
     66 O         -46.0678  -24.6660   11.7233 O.2       4 UNK        -0.5211 
     67 CA        -45.4700  -23.5846    9.6671 C.3       4 UNK         0.0297 
     68 CB        -44.0098  -23.8505    9.2689 C.3       4 UNK        -0.1993 
     69 N         -46.2668  -23.3107    8.4668 N.am      4 UNK        -0.4486 
     70 C         -47.5360  -22.8790    8.4863 C.2       3 UNK         0.4961 
     71 O         -48.1456  -22.6075    9.5191 O.2       3 UNK        -0.5105 
     72 CA        -48.2724  -22.7757    7.1376 C.3       3 UNK         0.0299 
     73 CB        -48.1099  -21.3660    6.5486 C.3       3 UNK        -0.1972 
     74 N         -47.8662  -23.7737    6.1403 N.am      3 UNK        -0.4305 
     75 C         -47.8967  -25.1030    6.3106 C.2       2 UNK         0.5006 
     76 O         -48.2559  -25.6497    7.3572 O.2       2 UNK        -0.5106 
     77 CA        -47.4127  -25.9538    5.1280 C.3       2 UNK         0.0296 
     78 CB        -45.9782  -25.5796    4.6998 C.3       2 UNK        -0.2002 
     79 N         -47.4509  -27.3652    5.4998 N.am      2 UNK        -0.4032 
     80 C         -47.5803  -28.3968    4.6574 C.2       1 UNK         0.5000 
     81 O         -47.7354  -28.2722    3.4416 O.2       1 UNK        -0.5238 
     82 H82       -44.7867  -30.1685    4.3139 H         1 UNK         0.0889 
     83 H83       -43.4020  -29.6161    5.2382 H         1 UNK         0.0889 
     84 H84       -44.6314  -28.4572    4.7513 H         1 UNK         0.0889 
     85 H85       -47.0052  -30.0677    7.2933 H         1 UNK         0.3028 
     86 H86       -47.0449  -30.4438    4.4777 H         1 UNK         0.0864 
     87 H87       -49.4919  -30.4075    4.7146 H         1 UNK         0.0720 
     88 H88       -48.7274  -31.4775    5.8422 H         1 UNK         0.0720 
     89 H89       -51.6472  -29.6997    5.5811 H         1 UNK         0.0814 
     90 H90       -50.8023  -28.1752    5.4436 H         1 UNK         0.0814 
     91 H91       -51.7211  -26.2856    6.5739 H         1 UNK         0.1469 
     92 H92       -54.8449  -26.7984    9.4688 H         1 UNK         0.1381 
     93 H93       -52.8098  -30.2222    7.8751 H         1 UNK         0.1206 
     94 H94       -55.8028  -29.0830    9.6895 H         1 UNK         0.0813 
     95 H95       -54.9524  -30.4665    9.0487 H         1 UNK         0.0813 
     96 H96       -55.7901  -31.5894   10.9604 H         1 UNK         0.0638 
     97 H97       -54.8638  -31.8500   12.4050 H         1 UNK         0.0638 
     98 H98       -56.7733  -29.4618   12.2445 H         1 UNK         0.0568 
     99 H99       -58.4277  -30.4957   10.9039 H         1 UNK         0.3450 
    100 H100      -59.4504  -31.7162   11.6139 H         1 UNK         0.3450 
    101 H101      -56.2716  -30.9933   14.6833 H         1 UNK         0.2987 
    102 H102      -56.2190  -29.6255   16.5919 H         1 UNK         0.0766 
    103 H103      -53.9015  -29.8641   17.5229 H         1 UNK         0.0798 
    104 H104      -53.2239  -29.4020   15.9657 H         1 UNK         0.0798 
    105 H105      -54.1432  -30.8878   16.1183 H         1 UNK         0.0798 
    106 H106      -54.4001  -27.3464   16.8093 H         1 UNK         0.3198 
    107 H107      -56.9000  -24.9005   16.9791 H         1 UNK         0.0843 
    108 H108      -55.7157  -26.1392   19.5247 H         1 UNK         0.0831 
    109 H109      -57.4235  -25.8544   19.2222 H         1 UNK         0.0831 
    110 H110      -56.3272  -24.4913   19.3666 H         1 UNK         0.0831 
    111 H111      -54.1429  -25.1291   17.9186 H         1 UNK         0.3133 
    112 H112      -52.8912  -23.3547   15.1667 H         1 UNK         0.0566 
    113 H113      -51.3373  -23.2455   17.0440 H         1 UNK         0.0814 
    114 H114      -52.9430  -22.8726   17.6425 H         1 UNK         0.0814 
    115 H115      -52.2276  -24.4519   17.9567 H         1 UNK         0.0814 
    116 H116      -51.6541  -25.0205   14.4401 H         1 UNK         0.3091 
    117 H117      -50.7840  -28.2760   15.6609 H         1 UNK         0.0702 
    118 H118      -52.5954  -28.4174   13.9164 H         1 UNK         0.0785 
    119 H119      -50.9985  -28.6646   13.2315 H         1 UNK         0.0785 
    120 H120      -51.8258  -27.1266   13.0141 H         1 UNK         0.0785 
    121 H121      -49.5174  -26.6101   13.7360 H         1 UNK         0.2998 
    122 H122      -47.1605  -25.0578   15.9614 H         1 UNK         0.0697 
    123 H123      -46.9020  -27.1546   13.7416 H         1 UNK         0.0825 
    124 H124      -46.2139  -27.2646   15.3535 H         1 UNK         0.0825 
    125 H125      -45.6397  -26.0310   14.2420 H         1 UNK         0.0825 
    126 H126      -47.5968  -24.7812   13.1495 H         1 UNK         0.3029 
    127 H127      -49.9330  -22.0717   13.3786 H         1 UNK         0.0897 
    128 H128      -48.2255  -20.9863   11.9430 H         1 UNK         0.0792 
    129 H129      -47.0146  -22.1659   12.4397 H         1 UNK         0.0792 
    130 H130      -47.6715  -21.0292   13.6098 H         1 UNK         0.0792 
    131 H131      -48.8124  -23.2895   11.0928 H         1 UNK         0.3086 
    132 H132      -51.2248  -25.9437   10.7355 H         1 UNK         0.0583 
    133 H133      -50.6945  -23.2673    9.3499 H         1 UNK         0.1020 
    134 H134      -50.9187  -24.7213    8.4287 H         1 UNK         0.1020 
    135 H135      -54.6200  -24.6948    7.9442 H         1 UNK         0.0694 
    136 H136      -53.0861  -24.4039    7.1688 H         1 UNK         0.0694 
    137 H137      -48.8748  -25.4588    9.2614 H         1 UNK         0.2989 
    138 H138      -46.5844  -27.2556   11.3116 H         1 UNK         0.1055 
    139 H139      -47.6651  -29.0109    9.9378 H         1 UNK         0.0806 
    140 H140      -46.2028  -28.4300    9.1574 H         1 UNK         0.0806 
    141 H141      -47.7879  -27.9144    8.5739 H         1 UNK         0.0806 
    142 H142      -46.4923  -25.7754    8.8042 H         1 UNK         0.3061 
    143 H143      -45.4950  -22.6927   10.2972 H         1 UNK         0.0734 
    144 H144      -43.5764  -22.9937    8.7529 H         1 UNK         0.0832 
    145 H145      -43.3954  -24.0398   10.1504 H         1 UNK         0.0832 
    146 H146      -43.9177  -24.7193    8.6159 H         1 UNK         0.0832 
    147 H147      -45.8370  -23.4987    7.5732 H         1 UNK         0.3156 
    148 H148      -49.3335  -22.9365    7.3346 H         1 UNK         0.0589 
    149 H149      -47.0725  -21.1530    6.2874 H         1 UNK         0.0808 
    150 H150      -48.7166  -21.2366    5.6520 H         1 UNK         0.0808 
    151 H151      -48.4283  -20.6056    7.2635 H         1 UNK         0.0808 
    152 H152      -47.5592  -23.4120    5.2486 H         1 UNK         0.3098 
    153 H153      -48.1008  -25.7808    4.2979 H         1 UNK         0.0720 
    154 H154      -45.6419  -26.1954    3.8654 H         1 UNK         0.0791 
    155 H155      -45.2672  -25.7121    5.5165 H         1 UNK         0.0791 
    156 H156      -45.9108  -24.5430    4.3690 H         1 UNK         0.0791 
    157 H157      -47.4292  -27.5409    6.4955 H         1 UNK         0.3028 
@<TRIPOS>BOND
     1    1    2 1    
     2    1   82 1    
     3    1   83 1    
     4    1   84 1    
     5    2    3 2    
     6    2    4 am   BACKBONE|DICT|INTERRES
     7    4    5 1    
     8    4   85 1    
     9    5    6 1    
    10    5   80 1    
    11    5   86 1    
    12    6    7 1    
    13    6   87 1    
    14    6   88 1    
    15    7    8 1    
    16    8    9 1    
    17    8   89 1    
    18    8   90 1    
    19    9   10 ar   
    20    9   14 ar   
    21   10   11 ar   
    22   10   91 1    
    23   11   12 ar   
    24   11   58 1    
    25   12   13 ar   
    26   12   92 1    
    27   13   14 ar   
    28   13   15 1    
    29   14   93 1    
    30   15   16 1    
    31   15   94 1    
    32   15   95 1    
    33   16   17 1    
    34   17   18 1    
    35   17   96 1    
    36   17   97 1    
    37   18   19 1    
    38   18   22 1    
    39   18   98 1    
    40   19   20 am   BACKBONE|DICT|INTERRES
    41   19   21 2    
    42   20   99 1    
    43   20  100 1    
    44   22   23 am   BACKBONE|DICT|INTERRES
    45   22  101 1    
    46   23   24 2    
    47   23   25 1    
    48   25   26 1    
    49   25   27 1    
    50   25  102 1    
    51   26  103 1    
    52   26  104 1    
    53   26  105 1    
    54   27   28 am   BACKBONE|DICT|INTERRES
    55   27  106 1    
    56   28   29 2    
    57   28   30 1    
    58   30   31 1    
    59   30   32 1    
    60   30  107 1    
    61   31  108 1    
    62   31  109 1    
    63   31  110 1    
    64   32   33 am   BACKBONE|DICT|INTERRES
    65   32  111 1    
    66   33   34 2    
    67   33   35 1    
    68   35   36 1    
    69   35   37 1    
    70   35  112 1    
    71   36  113 1    
    72   36  114 1    
    73   36  115 1    
    74   37   38 am   BACKBONE|DICT|INTERRES
    75   37  116 1    
    76   38   39 2    
    77   38   40 1    
    78   40   41 1    
    79   40   42 1    
    80   40  117 1    
    81   41  118 1    
    82   41  119 1    
    83   41  120 1    
    84   42   43 am   BACKBONE|DICT|INTERRES
    85   42  121 1    
    86   43   44 2    
    87   43   45 1    
    88   45   46 1    
    89   45   47 1    
    90   45  122 1    
    91   46  123 1    
    92   46  124 1    
    93   46  125 1    
    94   47   48 am   BACKBONE|DICT|INTERRES
    95   47  126 1    
    96   48   49 2    
    97   48   50 1    
    98   50   51 1    
    99   50   52 1    
   100   50  127 1    
   101   51  128 1    
   102   51  129 1    
   103   51  130 1    
   104   52   53 am   BACKBONE|DICT|INTERRES
   105   52  131 1    
   106   53   54 2    
   107   53   55 1    
   108   55   56 1    
   109   55   59 1    
   110   55  132 1    
   111   56   57 1    
   112   56  133 1    
   113   56  134 1    
   114   57   58 1    
   115   58  135 1    
   116   58  136 1    
   117   59   60 am   BACKBONE|DICT|INTERRES
   118   59  137 1    
   119   60   61 2    
   120   60   62 1    
   121   62   63 1    
   122   62   64 1    
   123   62  138 1    
   124   63  139 1    
   125   63  140 1    
   126   63  141 1    
   127   64   65 am   BACKBONE|DICT|INTERRES
   128   64  142 1    
   129   65   66 2    
   130   65   67 1    
   131   67   68 1    
   132   67   69 1    
   133   67  143 1    
   134   68  144 1    
   135   68  145 1    
   136   68  146 1    
   137   69   70 am   BACKBONE|DICT|INTERRES
   138   69  147 1    
   139   70   71 2    
   140   70   72 1    
   141   72   73 1    
   142   72   74 1    
   143   72  148 1    
   144   73  149 1    
   145   73  150 1    
   146   73  151 1    
   147   74   75 am   BACKBONE|DICT|INTERRES
   148   74  152 1    
   149   75   76 2    
   150   75   77 1    
   151   77   78 1    
   152   77   79 1    
   153   77  153 1    
   154   78  154 1    
   155   78  155 1    
   156   78  156 1    
   157   79   80 am   BACKBONE|DICT|INTERRES
   158   79  157 1    
   159   80   81 2    
@<TRIPOS>SUBSTRUCTURE
     1 UNK         1 GROUP             0       ****    0 ROOT    
