@<TRIPOS>MOLECULE
3R207
157   159    1
SMALL
USER_CHARGES


@<TRIPOS>ATOM
      1 CA        -48.7386  -28.8529   -0.3373 C.3       0 UNK        -0.1975 
      2 C         -48.9399  -28.9730    1.1667 C.2       0 UNK         0.4852 
      3 O         -47.9654  -29.1749    1.8926 O.2       0 UNK        -0.5216 
      4 N         -50.1966  -28.8591    1.6233 N.am      1 UNK        -0.4461 
      5 CA        -50.6435  -28.8811    3.0244 C.3       1 UNK         0.0864 
      6 C6        -50.1786  -30.1562    3.7864 C.3       14 UNK        -0.0898 
      7 S7        -51.2588  -30.5978    5.1920 S.3       14 UNK        -0.2598 
      8 C8        -50.0974  -30.4431    6.5950 C.3       14 UNK         0.0286 
      9 C9        -50.6957  -29.8771    7.8830 C.ar      14 UNK        -0.0844 
     10 C10       -50.0215  -30.1121    9.0849 C.ar      14 UNK        -0.0881 
     11 C11       -50.4604  -29.5383   10.2818 C.ar      14 UNK        -0.0643 
     12 C12       -51.6075  -28.7404   10.2780 C.ar      14 UNK        -0.0930 
     13 C13       -52.3103  -28.5153    9.0913 C.ar      14 UNK        -0.0827 
     14 C14       -51.8503  -29.0830    7.9004 C.ar      14 UNK        -0.1249 
     15 C15       -53.5477  -27.6296    9.0838 C.3       14 UNK         0.0141 
     16 S16       -55.0936  -28.5939    9.0316 S.3       14 UNK        -0.2313 
     17 C17       -55.1728  -29.3190   10.7068 C.3       14 UNK        -0.0915 
     18 CA        -56.2522  -28.6553   11.6146 C.3       13 UNK         0.0968 
     19 C         -56.4488  -29.4177   12.9626 C.2       13 UNK         0.5732 
     20 N         -56.6817  -28.7443   14.0836 N.am      13 UNK        -0.7310 
     21 O         -56.4309  -30.6463   12.9897 O.2       13 UNK        -0.5035 
     22 N         -56.0794  -27.1975   11.7533 N.am      13 UNK        -0.4233 
     23 C         -55.0315  -26.5842   12.3163 C.2       13 UNK         0.4989 
     24 O         -54.0493  -27.1753   12.7663 O.2       13 UNK        -0.4996 
     25 CA        -55.0531  -25.0480   12.3758 C.3       12 UNK         0.0216 
     26 CB        -56.3376  -24.3811   11.8289 C.3       12 UNK        -0.1964 
     27 N         -54.7344  -24.6036   13.7331 N.am      12 UNK        -0.4276 
     28 C         -55.4777  -24.7553   14.8369 C.2       12 UNK         0.5020 
     29 O         -56.6285  -25.1989   14.8505 O.2       12 UNK        -0.5489 
     30 CA        -54.7646  -24.3847   16.1472 C.3       11 UNK         0.0294 
     31 CB        -55.7189  -24.2403   17.3525 C.3       11 UNK        -0.2019 
     32 N         -53.6777  -25.3329   16.4148 N.am      11 UNK        -0.4493 
     33 C         -53.7783  -26.6385   16.7108 C.2       11 UNK         0.4932 
     34 O         -54.8414  -27.2250   16.9155 O.2       11 UNK        -0.5029 
     35 CA        -52.4704  -27.4472   16.7919 C.3       10 UNK         0.0280 
     36 CB        -52.3337  -28.3672   15.5670 C.3       10 UNK        -0.1976 
     37 N         -51.2620  -26.6264   16.9020 N.am      10 UNK        -0.4242 
     38 C         -50.8748  -25.9542   17.9946 C.2       10 UNK         0.5072 
     39 O         -51.5078  -25.9348   19.0507 O.2       10 UNK        -0.5224 
     40 CA        -49.5587  -25.1679   17.8869 C.3       9 UNK         0.0343 
     41 CB        -48.3489  -26.1023   18.0550 C.3       9 UNK        -0.2003 
     42 N         -49.4521  -24.4566   16.6116 N.am      9 UNK        -0.4272 
     43 C         -49.9947  -23.2557   16.3658 C.2       9 UNK         0.4988 
     44 O         -50.6188  -22.6024   17.2021 O.2       9 UNK        -0.5108 
     45 CA        -49.8169  -22.6814   14.9475 C.3       8 UNK         0.0248 
     46 CB        -48.5183  -21.8640   14.8609 C.3       8 UNK        -0.2001 
     47 N         -49.8233  -23.7059   13.8990 N.am      8 UNK        -0.4140 
     48 C         -50.8897  -24.4610   13.5977 C.2       8 UNK         0.5028 
     49 O         -51.9945  -24.3110   14.1205 O.2       8 UNK        -0.5428 
     50 CA        -50.6929  -25.6005   12.5824 C.3       7 UNK         0.0264 
     51 CB        -50.9820  -25.1126   11.1557 C.3       7 UNK        -0.1988 
     52 N         -49.3669  -26.2290   12.6385 N.am      7 UNK        -0.4454 
     53 C         -48.8740  -26.8550   13.7208 C.2       7 UNK         0.5027 
     54 O         -49.4745  -26.9206   14.7923 O.2       7 UNK        -0.5083 
     55 CA        -47.4738  -27.4862   13.6295 C.3       6 UNK         0.0844 
     56 C56       -47.5128  -28.9690   13.1834 C.3       14 UNK        -0.0967 
     57 S57       -47.9624  -29.2148   11.4358 S.3       14 UNK        -0.2604 
     58 C58       -49.6919  -29.7708   11.5754 C.3       14 UNK         0.0134 
     59 N         -46.5744  -26.6553   12.8272 N.am      6 UNK        -0.4116 
     60 C         -45.8159  -25.6766   13.3402 C.2       5 UNK         0.5034 
     61 O         -45.7445  -25.4163   14.5421 O.2       5 UNK        -0.5045 
     62 CA        -45.0097  -24.8242   12.3466 C.3       5 UNK         0.0224 
     63 CB        -43.7188  -25.5493   11.9326 C.3       5 UNK        -0.1978 
     64 N         -45.7598  -24.4392   11.1486 N.am      5 UNK        -0.4737 
     65 C         -46.9001  -23.7343   11.1434 C.2       4 UNK         0.5027 
     66 O         -47.4840  -23.3574   12.1588 O.2       4 UNK        -0.5211 
     67 CA        -47.5055  -23.4127    9.7671 C.3       4 UNK         0.0297 
     68 CB        -46.9108  -22.1061    9.2186 C.3       4 UNK        -0.1993 
     69 N         -47.3582  -24.4739    8.7636 N.am      4 UNK        -0.4486 
     70 C         -47.7323  -25.7525    8.9076 C.2       3 UNK         0.4961 
     71 O         -48.1771  -26.2285    9.9534 O.2       3 UNK        -0.5105 
     72 CA        -47.6099  -26.6358    7.6554 C.3       3 UNK         0.0299 
     73 CB        -47.0243  -28.0185    7.9809 C.3       3 UNK        -0.1972 
     74 N         -48.9198  -26.7981    7.0262 N.am      3 UNK        -0.4305 
     75 C         -49.5338  -25.8498    6.3062 C.2       2 UNK         0.5006 
     76 O         -49.0249  -24.7591    6.0377 O.2       2 UNK        -0.5106 
     77 CA        -50.9481  -26.1929    5.8020 C.3       2 UNK         0.0296 
     78 CB        -51.6515  -24.9982    5.1229 C.3       2 UNK        -0.2002 
     79 N         -50.9731  -27.3731    4.9264 N.am      2 UNK        -0.4032 
     80 C         -50.3270  -27.5555    3.7641 C.2       1 UNK         0.5000 
     81 O         -49.5676  -26.7213    3.2638 O.2       1 UNK        -0.5238 
     82 H82       -49.6788  -28.6928   -0.8649 H         1 UNK         0.0889 
     83 H83       -48.2814  -29.7614   -0.7284 H         1 UNK         0.0889 
     84 H84       -48.0782  -28.0154   -0.5606 H         1 UNK         0.0889 
     85 H85       -50.9311  -28.6715    0.9547 H         1 UNK         0.3028 
     86 H86       -51.7317  -28.9235    2.9493 H         1 UNK         0.0864 
     87 H87       -49.1385  -30.0667    4.1029 H         1 UNK         0.0720 
     88 H88       -50.2000  -31.0123    3.1101 H         1 UNK         0.0720 
     89 H89       -49.2626  -29.7986    6.3191 H         1 UNK         0.0814 
     90 H90       -49.6712  -31.4293    6.7864 H         1 UNK         0.0814 
     91 H91       -49.1256  -30.7185    9.0890 H         1 UNK         0.1469 
     92 H92       -51.9536  -28.2901   11.1987 H         1 UNK         0.1381 
     93 H93       -52.4013  -28.8890    6.9926 H         1 UNK         0.1206 
     94 H94       -53.5184  -26.9780    8.2096 H         1 UNK         0.0813 
     95 H95       -53.5488  -26.9659    9.9473 H         1 UNK         0.0813 
     96 H96       -54.1930  -29.2815   11.1812 H         1 UNK         0.0638 
     97 H97       -55.3928  -30.3795   10.5738 H         1 UNK         0.0638 
     98 H98       -57.2083  -28.7745   11.1041 H         1 UNK         0.0568 
     99 H99       -56.8117  -29.2509   14.9444 H         1 UNK         0.3450 
    100 H100      -56.6868  -27.7354   14.0895 H         1 UNK         0.3450 
    101 H101      -56.8483  -26.6334   11.4232 H         1 UNK         0.2987 
    102 H102      -54.2263  -24.7129   11.7501 H         1 UNK         0.0766 
    103 H103      -56.2792  -23.2961   11.9168 H         1 UNK         0.0798 
    104 H104      -57.2354  -24.7036   12.3568 H         1 UNK         0.0798 
    105 H105      -56.4766  -24.6044   10.7703 H         1 UNK         0.0798 
    106 H106      -53.7542  -24.3515   13.8743 H         1 UNK         0.3198 
    107 H107      -54.2930  -23.4130   15.9896 H         1 UNK         0.0843 
    108 H108      -56.2783  -25.1548   17.5502 H         1 UNK         0.0831 
    109 H109      -56.4503  -23.4522   17.1705 H         1 UNK         0.0831 
    110 H110      -55.1748  -23.9770   18.2594 H         1 UNK         0.0831 
    111 H111      -52.7514  -24.9899   16.1935 H         1 UNK         0.3133 
    112 H112      -52.5335  -28.0761   17.6823 H         1 UNK         0.0566 
    113 H113      -51.4668  -29.0220   15.6552 H         1 UNK         0.0814 
    114 H114      -53.2127  -29.0027   15.4498 H         1 UNK         0.0814 
    115 H115      -52.2255  -27.7927   14.6469 H         1 UNK         0.0814 
    116 H116      -50.6418  -26.6313   16.0924 H         1 UNK         0.3091 
    117 H117      -49.5347  -24.4412   18.7021 H         1 UNK         0.0702 
    118 H118      -47.4125  -25.5445   18.0331 H         1 UNK         0.0785 
    119 H119      -48.3047  -26.8591   17.2709 H         1 UNK         0.0785 
    120 H120      -48.3919  -26.6260   19.0110 H         1 UNK         0.0785 
    121 H121      -48.9978  -24.9482   15.8538 H         1 UNK         0.2998 
    122 H122      -50.6554  -22.0075   14.7593 H         1 UNK         0.0697 
    123 H123      -47.6363  -22.4933   14.9891 H         1 UNK         0.0825 
    124 H124      -48.4870  -21.0930   15.6319 H         1 UNK         0.0825 
    125 H125      -48.4313  -21.3613   13.8974 H         1 UNK         0.0825 
    126 H126      -48.9624  -23.8303   13.3721 H         1 UNK         0.3029 
    127 H127      -51.4238  -26.3739   12.8253 H         1 UNK         0.0897 
    128 H128      -50.2927  -24.3253   10.8579 H         1 UNK         0.0792 
    129 H129      -51.9900  -24.7073   11.0749 H         1 UNK         0.0792 
    130 H130      -50.8981  -25.9222   10.4309 H         1 UNK         0.0792 
    131 H131      -48.8361  -26.2426   11.7700 H         1 UNK         0.3086 
    132 H132      -47.0962  -27.5069   14.6544 H         1 UNK         0.0583 
    133 H133      -46.5250  -29.4087   13.3291 H         1 UNK         0.1020 
    134 H134      -48.1800  -29.5472   13.8260 H         1 UNK         0.1020 
    135 H135      -49.7112  -30.8324   11.8251 H         1 UNK         0.0694 
    136 H136      -50.1772  -29.2468   12.4002 H         1 UNK         0.0694 
    137 H137      -46.6152  -26.7813   11.8246 H         1 UNK         0.2989 
    138 H138      -44.7330  -23.9033   12.8648 H         1 UNK         0.1055 
    139 H139      -43.1335  -25.8344   12.8082 H         1 UNK         0.0806 
    140 H140      -43.0846  -24.9111   11.3170 H         1 UNK         0.0806 
    141 H141      -43.9272  -26.4600   11.3696 H         1 UNK         0.0806 
    142 H142      -45.3713  -24.7117   10.2574 H         1 UNK         0.3061 
    143 H143      -48.5740  -23.2527    9.9100 H         1 UNK         0.0734 
    144 H144      -47.4110  -21.7954    8.3011 H         1 UNK         0.0832 
    145 H145      -47.0256  -21.2933    9.9376 H         1 UNK         0.0832 
    146 H146      -45.8456  -22.2040    9.0054 H         1 UNK         0.0832 
    147 H147      -47.0484  -24.1794    7.8478 H         1 UNK         0.3156 
    148 H148      -46.9340  -26.1526    6.9465 H         1 UNK         0.0589 
    149 H149      -47.6882  -28.5944    8.6228 H         1 UNK         0.0808 
    150 H150      -46.8499  -28.5988    7.0748 H         1 UNK         0.0808 
    151 H151      -46.0690  -27.9276    8.4993 H         1 UNK         0.0808 
    152 H152      -49.4285  -27.6387    7.2594 H         1 UNK         0.3098 
    153 H153      -51.5325  -26.4465    6.6870 H         1 UNK         0.0720 
    154 H154      -52.6722  -25.2501    4.8356 H         1 UNK         0.0791 
    155 H155      -51.1226  -24.6699    4.2274 H         1 UNK         0.0791 
    156 H156      -51.7069  -24.1435    5.7983 H         1 UNK         0.0791 
    157 H157      -51.5478  -28.1407    5.2472 H         1 UNK         0.3028 
@<TRIPOS>BOND
     1    1    2 1    
     2    1   82 1    
     3    1   83 1    
     4    1   84 1    
     5    2    3 2    
     6    2    4 am   BACKBONE|DICT|INTERRES
     7    4    5 1    
     8    4   85 1    
     9    5    6 1    
    10    5   80 1    
    11    5   86 1    
    12    6    7 1    
    13    6   87 1    
    14    6   88 1    
    15    7    8 1    
    16    8    9 1    
    17    8   89 1    
    18    8   90 1    
    19    9   10 ar   
    20    9   14 ar   
    21   10   11 ar   
    22   10   91 1    
    23   11   12 ar   
    24   11   58 1    
    25   12   13 ar   
    26   12   92 1    
    27   13   14 ar   
    28   13   15 1    
    29   14   93 1    
    30   15   16 1    
    31   15   94 1    
    32   15   95 1    
    33   16   17 1    
    34   17   18 1    
    35   17   96 1    
    36   17   97 1    
    37   18   19 1    
    38   18   22 1    
    39   18   98 1    
    40   19   20 am   BACKBONE|DICT|INTERRES
    41   19   21 2    
    42   20   99 1    
    43   20  100 1    
    44   22   23 am   BACKBONE|DICT|INTERRES
    45   22  101 1    
    46   23   24 2    
    47   23   25 1    
    48   25   26 1    
    49   25   27 1    
    50   25  102 1    
    51   26  103 1    
    52   26  104 1    
    53   26  105 1    
    54   27   28 am   BACKBONE|DICT|INTERRES
    55   27  106 1    
    56   28   29 2    
    57   28   30 1    
    58   30   31 1    
    59   30   32 1    
    60   30  107 1    
    61   31  108 1    
    62   31  109 1    
    63   31  110 1    
    64   32   33 am   BACKBONE|DICT|INTERRES
    65   32  111 1    
    66   33   34 2    
    67   33   35 1    
    68   35   36 1    
    69   35   37 1    
    70   35  112 1    
    71   36  113 1    
    72   36  114 1    
    73   36  115 1    
    74   37   38 am   BACKBONE|DICT|INTERRES
    75   37  116 1    
    76   38   39 2    
    77   38   40 1    
    78   40   41 1    
    79   40   42 1    
    80   40  117 1    
    81   41  118 1    
    82   41  119 1    
    83   41  120 1    
    84   42   43 am   BACKBONE|DICT|INTERRES
    85   42  121 1    
    86   43   44 2    
    87   43   45 1    
    88   45   46 1    
    89   45   47 1    
    90   45  122 1    
    91   46  123 1    
    92   46  124 1    
    93   46  125 1    
    94   47   48 am   BACKBONE|DICT|INTERRES
    95   47  126 1    
    96   48   49 2    
    97   48   50 1    
    98   50   51 1    
    99   50   52 1    
   100   50  127 1    
   101   51  128 1    
   102   51  129 1    
   103   51  130 1    
   104   52   53 am   BACKBONE|DICT|INTERRES
   105   52  131 1    
   106   53   54 2    
   107   53   55 1    
   108   55   56 1    
   109   55   59 1    
   110   55  132 1    
   111   56   57 1    
   112   56  133 1    
   113   56  134 1    
   114   57   58 1    
   115   58  135 1    
   116   58  136 1    
   117   59   60 am   BACKBONE|DICT|INTERRES
   118   59  137 1    
   119   60   61 2    
   120   60   62 1    
   121   62   63 1    
   122   62   64 1    
   123   62  138 1    
   124   63  139 1    
   125   63  140 1    
   126   63  141 1    
   127   64   65 am   BACKBONE|DICT|INTERRES
   128   64  142 1    
   129   65   66 2    
   130   65   67 1    
   131   67   68 1    
   132   67   69 1    
   133   67  143 1    
   134   68  144 1    
   135   68  145 1    
   136   68  146 1    
   137   69   70 am   BACKBONE|DICT|INTERRES
   138   69  147 1    
   139   70   71 2    
   140   70   72 1    
   141   72   73 1    
   142   72   74 1    
   143   72  148 1    
   144   73  149 1    
   145   73  150 1    
   146   73  151 1    
   147   74   75 am   BACKBONE|DICT|INTERRES
   148   74  152 1    
   149   75   76 2    
   150   75   77 1    
   151   77   78 1    
   152   77   79 1    
   153   77  153 1    
   154   78  154 1    
   155   78  155 1    
   156   78  156 1    
   157   79   80 am   BACKBONE|DICT|INTERRES
   158   79  157 1    
   159   80   81 2    
@<TRIPOS>SUBSTRUCTURE
     1 UNK         1 GROUP             0       ****    0 ROOT    
