@<TRIPOS>MOLECULE
3R207
157   159    1
SMALL
USER_CHARGES


@<TRIPOS>ATOM
      1 CA        -47.3481  -32.6835    3.9451 C.3       0 UNK        -0.1975 
      2 C         -47.8744  -31.2560    3.9478 C.2       0 UNK         0.4852 
      3 O         -47.9643  -30.6353    2.8880 O.2       0 UNK        -0.5216 
      4 N         -48.2198  -30.7303    5.1315 N.am      1 UNK        -0.4461 
      5 CA        -48.7681  -29.3787    5.3268 C.3       1 UNK         0.0864 
      6 C6        -49.4734  -29.2310    6.6983 C.3       14 UNK        -0.0898 
      7 S7        -50.7819  -30.4845    6.9356 S.3       14 UNK        -0.2598 
      8 C8        -52.2936  -29.5557    6.5228 C.3       14 UNK         0.0286 
      9 C9        -52.7203  -28.6501    7.6675 C.ar      14 UNK        -0.0844 
     10 C10       -52.4767  -27.2753    7.6128 C.ar      14 UNK        -0.0881 
     11 C11       -52.8202  -26.4518    8.6894 C.ar      14 UNK        -0.0643 
     12 C12       -53.4469  -27.0070    9.8100 C.ar      14 UNK        -0.0930 
     13 C13       -53.7153  -28.3773    9.8652 C.ar      14 UNK        -0.0827 
     14 C14       -53.3479  -29.1938    8.7921 C.ar      14 UNK        -0.1249 
     15 C15       -54.3638  -28.9863   11.0976 C.3       14 UNK         0.0141 
     16 S16       -56.1430  -29.2529   10.8641 S.3       14 UNK        -0.2313 
     17 C17       -56.5605  -30.0592   12.4475 C.3       14 UNK        -0.0915 
     18 CA        -57.3999  -29.1426   13.3749 C.3       13 UNK         0.0968 
     19 C         -57.9817  -29.9270   14.5877 C.2       13 UNK         0.5732 
     20 N         -57.7965  -29.4960   15.8300 N.am      13 UNK        -0.7310 
     21 O         -58.6404  -30.9471   14.3970 O.2       13 UNK        -0.5035 
     22 N         -56.6588  -27.9305   13.7585 N.am      13 UNK        -0.4233 
     23 C         -57.2091  -26.7149   13.8766 C.2       13 UNK         0.4989 
     24 O         -58.3817  -26.4697   13.5855 O.2       13 UNK        -0.4996 
     25 CA        -56.3085  -25.5750   14.4034 C.3       12 UNK         0.0216 
     26 CB        -57.1185  -24.4448   15.0723 C.3       12 UNK        -0.1964 
     27 N         -55.2255  -26.0063   15.2961 N.am      12 UNK        -0.4276 
     28 C         -55.3215  -26.7435   16.4095 C.2       12 UNK         0.5020 
     29 O         -56.3842  -27.1939   16.8430 O.2       12 UNK        -0.5489 
     30 CA        -53.9945  -27.0620   17.1292 C.3       11 UNK         0.0294 
     31 CB        -54.1848  -28.0670   18.2839 C.3       11 UNK        -0.2019 
     32 N         -52.9106  -27.5333   16.2515 N.am      11 UNK        -0.4493 
     33 C         -52.9626  -28.4881   15.3071 C.2       11 UNK         0.4932 
     34 O         -54.0077  -28.9975   14.8973 O.2       11 UNK        -0.5029 
     35 CA        -51.6131  -28.9783   14.7478 C.3       10 UNK         0.0280 
     36 CB        -51.7113  -29.5057   13.3066 C.3       10 UNK        -0.1976 
     37 N         -50.5799  -27.9422   14.8048 N.am      10 UNK        -0.4242 
     38 C         -49.4914  -27.9818   15.5844 C.2       10 UNK         0.5072 
     39 O         -49.2416  -28.8931   16.3746 O.2       10 UNK        -0.5224 
     40 CA        -48.5130  -26.7994   15.4779 C.3       9 UNK         0.0343 
     41 CB        -47.5493  -27.0006   14.2977 C.3       9 UNK        -0.2003 
     42 N         -49.1659  -25.4939   15.3559 N.am      9 UNK        -0.4272 
     43 C         -49.9665  -24.9426   16.2802 C.2       9 UNK         0.4988 
     44 O         -50.3036  -25.5004   17.3249 O.2       9 UNK        -0.5108 
     45 CA        -50.4922  -23.5328   15.9747 C.3       8 UNK         0.0248 
     46 CB        -49.3966  -22.4756   16.1916 C.3       8 UNK        -0.2001 
     47 N         -51.0056  -23.4466   14.6082 N.am      8 UNK        -0.4140 
     48 C         -52.1951  -23.9344   14.2330 C.2       8 UNK         0.5028 
     49 O         -53.0019  -24.4367   15.0121 O.2       8 UNK        -0.5428 
     50 CA        -52.5368  -23.8937   12.7353 C.3       7 UNK         0.0264 
     51 CB        -53.1915  -22.5557   12.3607 C.3       7 UNK        -0.1988 
     52 N         -51.3774  -24.1355   11.8755 N.am      7 UNK        -0.4454 
     53 C         -50.6929  -25.2880   11.8388 C.2       7 UNK         0.5027 
     54 O         -50.9698  -26.2672   12.5310 O.2       7 UNK        -0.5083 
     55 CA        -49.4619  -25.3428   10.9125 C.3       6 UNK         0.0844 
     56 C56       -49.8436  -25.8454    9.4995 C.3       14 UNK        -0.0967 
     57 S57       -50.7006  -24.6204    8.4361 S.3       14 UNK        -0.2604 
     58 C58       -52.4836  -24.9673    8.6611 C.3       14 UNK         0.0134 
     59 N         -48.6728  -24.1042   10.8859 N.am      6 UNK        -0.4116 
     60 C         -48.1741  -23.4708   11.9592 C.2       5 UNK         0.5034 
     61 O         -48.3597  -23.8476   13.1182 O.2       5 UNK        -0.5045 
     62 CA        -47.3286  -22.2144   11.6945 C.3       5 UNK         0.0224 
     63 CB        -46.4700  -21.8174   12.9105 C.3       5 UNK        -0.1978 
     64 N         -46.4523  -22.4261   10.5423 N.am      5 UNK        -0.4737 
     65 C         -46.5312  -21.7791    9.3734 C.2       4 UNK         0.5027 
     66 O         -47.3476  -20.8898    9.1337 O.2       4 UNK        -0.5211 
     67 CA        -45.5343  -22.2050    8.2806 C.3       4 UNK         0.0297 
     68 CB        -44.3128  -21.2716    8.2780 C.3       4 UNK        -0.1993 
     69 N         -45.0823  -23.5955    8.4118 N.am      4 UNK        -0.4486 
     70 C         -45.8574  -24.6656    8.1928 C.2       3 UNK         0.4961 
     71 O         -47.0452  -24.5998    7.8758 O.2       3 UNK        -0.5105 
     72 CA        -45.2034  -26.0424    8.3943 C.3       3 UNK         0.0299 
     73 CB        -45.7280  -26.7113    9.6766 C.3       3 UNK        -0.1972 
     74 N         -45.4361  -26.9262    7.2493 N.am      3 UNK        -0.4305 
     75 C         -44.9405  -26.7237    6.0194 C.2       2 UNK         0.5006 
     76 O         -44.2030  -25.7798    5.7301 O.2       2 UNK        -0.5106 
     77 CA        -45.2818  -27.7520    4.9258 C.3       2 UNK         0.0296 
     78 CB        -44.0600  -28.6369    4.6246 C.3       2 UNK        -0.2002 
     79 N         -46.4226  -28.6180    5.2365 N.am      2 UNK        -0.4032 
     80 C         -47.7126  -28.2674    5.1205 C.2       1 UNK         0.5000 
     81 O         -48.0848  -27.1284    4.8351 O.2       1 UNK        -0.5238 
     82 H82       -46.3361  -32.7096    3.5420 H         1 UNK         0.0889 
     83 H83       -47.9802  -33.3146    3.3210 H         1 UNK         0.0889 
     84 H84       -47.3256  -33.1122    4.9469 H         1 UNK         0.0889 
     85 H85       -48.1585  -31.2989    5.9648 H         1 UNK         0.3028 
     86 H86       -49.5245  -29.2226    4.5541 H         1 UNK         0.0864 
     87 H87       -49.9022  -28.2335    6.8068 H         1 UNK         0.0720 
     88 H88       -48.7543  -29.3386    7.5124 H         1 UNK         0.0720 
     89 H89       -53.0946  -30.2647    6.3080 H         1 UNK         0.0814 
     90 H90       -52.1380  -28.9853    5.6057 H         1 UNK         0.0814 
     91 H91       -51.9864  -26.8461    6.7496 H         1 UNK         0.1469 
     92 H92       -53.7112  -26.3769   10.6479 H         1 UNK         0.1381 
     93 H93       -53.5378  -30.2577    8.8381 H         1 UNK         0.1206 
     94 H94       -54.2135  -28.3454   11.9676 H         1 UNK         0.0813 
     95 H95       -53.8868  -29.9410   11.3218 H         1 UNK         0.0813 
     96 H96       -55.6530  -30.3887   12.9567 H         1 UNK         0.0638 
     97 H97       -57.1138  -30.9670   12.2005 H         1 UNK         0.0638 
     98 H98       -58.2771  -28.8446   12.7980 H         1 UNK         0.0568 
     99 H99       -57.2713  -28.6480   16.0292 H         1 UNK         0.3450 
    100 H100      -58.1929  -30.0221   16.5914 H         1 UNK         0.3450 
    101 H101      -55.7095  -28.0812   14.0820 H         1 UNK         0.2987 
    102 H102      -55.8198  -25.1533   13.5241 H         1 UNK         0.0766 
    103 H103      -56.4680  -23.6351   15.4035 H         1 UNK         0.0798 
    104 H104      -57.6714  -24.8073   15.9397 H         1 UNK         0.0798 
    105 H105      -57.8419  -24.0124   14.3800 H         1 UNK         0.0798 
    106 H106      -54.3059  -25.6128   15.0874 H         1 UNK         0.3198 
    107 H107      -53.6516  -26.1197   17.5600 H         1 UNK         0.0843 
    108 H108      -54.5400  -29.0320   17.9198 H         1 UNK         0.0831 
    109 H109      -54.9148  -27.7019   19.0075 H         1 UNK         0.0831 
    110 H110      -53.2527  -28.2340   18.8237 H         1 UNK         0.0831 
    111 H111      -51.9979  -27.1501   16.4615 H         1 UNK         0.3133 
    112 H112      -51.3313  -29.8247   15.3766 H         1 UNK         0.0566 
    113 H113      -50.7613  -29.9265   12.9776 H         1 UNK         0.0814 
    114 H114      -52.4569  -30.2971   13.2245 H         1 UNK         0.0814 
    115 H115      -51.9788  -28.7143   12.6080 H         1 UNK         0.0814 
    116 H116      -50.6918  -27.1713   14.1479 H         1 UNK         0.3091 
    117 H117      -47.9224  -26.7791   16.3961 H         1 UNK         0.0702 
    118 H118      -46.8192  -26.1931   14.2368 H         1 UNK         0.0785 
    119 H119      -48.0819  -27.0434   13.3481 H         1 UNK         0.0785 
    120 H120      -46.9944  -27.9339   14.4021 H         1 UNK         0.0785 
    121 H121      -48.9309  -24.9446   14.5324 H         1 UNK         0.2998 
    122 H122      -51.3068  -23.3180   16.6701 H         1 UNK         0.0697 
    123 H123      -48.5391  -22.6340   15.5372 H         1 UNK         0.0825 
    124 H124      -49.0297  -22.5030   17.2185 H         1 UNK         0.0825 
    125 H125      -49.7751  -21.4696   16.0103 H         1 UNK         0.0825 
    126 H126      -50.3656  -23.1170   13.8986 H         1 UNK         0.3029 
    127 H127      -53.2598  -24.6903   12.5468 H         1 UNK         0.0897 
    128 H128      -52.5092  -21.7165   12.5017 H         1 UNK         0.0792 
    129 H129      -54.0716  -22.3674   12.9778 H         1 UNK         0.0792 
    130 H130      -53.5207  -22.5511   11.3215 H         1 UNK         0.0792 
    131 H131      -51.0828  -23.3828   11.2700 H         1 UNK         0.3086 
    132 H132      -48.8013  -26.0979   11.3410 H         1 UNK         0.0583 
    133 H133      -48.9331  -26.1227    8.9685 H         1 UNK         0.1020 
    134 H134      -50.4054  -26.7778    9.5649 H         1 UNK         0.1020 
    135 H135      -52.8269  -24.4778    9.5724 H         1 UNK         0.0694 
    136 H136      -53.0339  -24.4976    7.8450 H         1 UNK         0.0694 
    137 H137      -48.4706  -23.7332    9.9672 H         1 UNK         0.2989 
    138 H138      -48.0317  -21.4018   11.4992 H         1 UNK         0.1055 
    139 H139      -47.0952  -21.5801   13.7721 H         1 UNK         0.0806 
    140 H140      -45.8686  -20.9333   12.6985 H         1 UNK         0.0806 
    141 H141      -45.7939  -22.6199   13.2078 H         1 UNK         0.0806 
    142 H142      -45.7592  -23.1557   10.6326 H         1 UNK         0.3061 
    143 H143      -46.0421  -22.1049    7.3186 H         1 UNK         0.0734 
    144 H144      -43.7519  -21.3351    9.2113 H         1 UNK         0.0832 
    145 H145      -43.6333  -21.5078    7.4589 H         1 UNK         0.0832 
    146 H146      -44.6178  -20.2316    8.1525 H         1 UNK         0.0832 
    147 H147      -44.1129  -23.7374    8.6592 H         1 UNK         0.3156 
    148 H148      -44.1244  -25.9095    8.4989 H         1 UNK         0.0589 
    149 H149      -46.7931  -26.9331    9.6128 H         1 UNK         0.0808 
    150 H150      -45.2042  -27.6458    9.8785 H         1 UNK         0.0808 
    151 H151      -45.5820  -26.0666   10.5445 H         1 UNK         0.0808 
    152 H152      -46.0498  -27.7129    7.3947 H         1 UNK         0.3098 
    153 H153      -45.5193  -27.1881    4.0210 H         1 UNK         0.0720 
    154 H154      -44.2564  -29.3158    3.7943 H         1 UNK         0.0791 
    155 H155      -43.7713  -29.2361    5.4891 H         1 UNK         0.0791 
    156 H156      -43.1966  -28.0309    4.3459 H         1 UNK         0.0791 
    157 H157      -46.2138  -29.5779    5.4699 H         1 UNK         0.3028 
@<TRIPOS>BOND
     1    1    2 1    
     2    1   82 1    
     3    1   83 1    
     4    1   84 1    
     5    2    3 2    
     6    2    4 am   BACKBONE|DICT|INTERRES
     7    4    5 1    
     8    4   85 1    
     9    5    6 1    
    10    5   80 1    
    11    5   86 1    
    12    6    7 1    
    13    6   87 1    
    14    6   88 1    
    15    7    8 1    
    16    8    9 1    
    17    8   89 1    
    18    8   90 1    
    19    9   10 ar   
    20    9   14 ar   
    21   10   11 ar   
    22   10   91 1    
    23   11   12 ar   
    24   11   58 1    
    25   12   13 ar   
    26   12   92 1    
    27   13   14 ar   
    28   13   15 1    
    29   14   93 1    
    30   15   16 1    
    31   15   94 1    
    32   15   95 1    
    33   16   17 1    
    34   17   18 1    
    35   17   96 1    
    36   17   97 1    
    37   18   19 1    
    38   18   22 1    
    39   18   98 1    
    40   19   20 am   BACKBONE|DICT|INTERRES
    41   19   21 2    
    42   20   99 1    
    43   20  100 1    
    44   22   23 am   BACKBONE|DICT|INTERRES
    45   22  101 1    
    46   23   24 2    
    47   23   25 1    
    48   25   26 1    
    49   25   27 1    
    50   25  102 1    
    51   26  103 1    
    52   26  104 1    
    53   26  105 1    
    54   27   28 am   BACKBONE|DICT|INTERRES
    55   27  106 1    
    56   28   29 2    
    57   28   30 1    
    58   30   31 1    
    59   30   32 1    
    60   30  107 1    
    61   31  108 1    
    62   31  109 1    
    63   31  110 1    
    64   32   33 am   BACKBONE|DICT|INTERRES
    65   32  111 1    
    66   33   34 2    
    67   33   35 1    
    68   35   36 1    
    69   35   37 1    
    70   35  112 1    
    71   36  113 1    
    72   36  114 1    
    73   36  115 1    
    74   37   38 am   BACKBONE|DICT|INTERRES
    75   37  116 1    
    76   38   39 2    
    77   38   40 1    
    78   40   41 1    
    79   40   42 1    
    80   40  117 1    
    81   41  118 1    
    82   41  119 1    
    83   41  120 1    
    84   42   43 am   BACKBONE|DICT|INTERRES
    85   42  121 1    
    86   43   44 2    
    87   43   45 1    
    88   45   46 1    
    89   45   47 1    
    90   45  122 1    
    91   46  123 1    
    92   46  124 1    
    93   46  125 1    
    94   47   48 am   BACKBONE|DICT|INTERRES
    95   47  126 1    
    96   48   49 2    
    97   48   50 1    
    98   50   51 1    
    99   50   52 1    
   100   50  127 1    
   101   51  128 1    
   102   51  129 1    
   103   51  130 1    
   104   52   53 am   BACKBONE|DICT|INTERRES
   105   52  131 1    
   106   53   54 2    
   107   53   55 1    
   108   55   56 1    
   109   55   59 1    
   110   55  132 1    
   111   56   57 1    
   112   56  133 1    
   113   56  134 1    
   114   57   58 1    
   115   58  135 1    
   116   58  136 1    
   117   59   60 am   BACKBONE|DICT|INTERRES
   118   59  137 1    
   119   60   61 2    
   120   60   62 1    
   121   62   63 1    
   122   62   64 1    
   123   62  138 1    
   124   63  139 1    
   125   63  140 1    
   126   63  141 1    
   127   64   65 am   BACKBONE|DICT|INTERRES
   128   64  142 1    
   129   65   66 2    
   130   65   67 1    
   131   67   68 1    
   132   67   69 1    
   133   67  143 1    
   134   68  144 1    
   135   68  145 1    
   136   68  146 1    
   137   69   70 am   BACKBONE|DICT|INTERRES
   138   69  147 1    
   139   70   71 2    
   140   70   72 1    
   141   72   73 1    
   142   72   74 1    
   143   72  148 1    
   144   73  149 1    
   145   73  150 1    
   146   73  151 1    
   147   74   75 am   BACKBONE|DICT|INTERRES
   148   74  152 1    
   149   75   76 2    
   150   75   77 1    
   151   77   78 1    
   152   77   79 1    
   153   77  153 1    
   154   78  154 1    
   155   78  155 1    
   156   78  156 1    
   157   79   80 am   BACKBONE|DICT|INTERRES
   158   79  157 1    
   159   80   81 2    
@<TRIPOS>SUBSTRUCTURE
     1 UNK         1 GROUP             0       ****    0 ROOT    
