@<TRIPOS>MOLECULE
3R207
157   159    1
SMALL
USER_CHARGES


@<TRIPOS>ATOM
      1 CA        -52.3111  -24.7131    1.3986 C.3       0 UNK        -0.1975 
      2 C         -51.7764  -24.6273    2.8206 C.2       0 UNK         0.4852 
      3 O         -51.6378  -23.5263    3.3545 O.2       0 UNK        -0.5216 
      4 N         -51.4810  -25.7812    3.4361 N.am      1 UNK        -0.4461 
      5 CA        -50.9318  -25.9009    4.7921 C.3       1 UNK         0.0864 
      6 C6        -50.9961  -27.3706    5.2804 C.3       14 UNK        -0.0898 
      7 S7        -50.5728  -27.5620    7.0410 S.3       14 UNK        -0.2598 
      8 C8        -51.5182  -29.0536    7.4805 C.3       14 UNK         0.0286 
      9 C9        -51.1834  -29.5235    8.8891 C.ar      14 UNK        -0.0844 
     10 C10       -49.8886  -29.9564    9.1855 C.ar      14 UNK        -0.0881 
     11 C11       -49.5550  -30.3807   10.4731 C.ar      14 UNK        -0.0643 
     12 C12       -50.5387  -30.4032   11.4658 C.ar      14 UNK        -0.0930 
     13 C13       -51.8457  -29.9904   11.1806 C.ar      14 UNK        -0.0827 
     14 C14       -52.1571  -29.5354    9.8934 C.ar      14 UNK        -0.1249 
     15 C15       -52.9024  -30.0002   12.2786 C.3       14 UNK         0.0141 
     16 S16       -54.3917  -30.9428   11.8264 S.3       14 UNK        -0.2313 
     17 C17       -55.4221  -30.7017   13.3158 C.3       14 UNK        -0.0915 
     18 CA        -56.5005  -29.6017   13.1175 C.3       13 UNK         0.0968 
     19 C         -57.5844  -29.6197   14.2356 C.2       13 UNK         0.5732 
     20 N         -57.9681  -28.4918   14.8248 N.am      13 UNK        -0.7310 
     21 O         -58.1164  -30.6794   14.5591 O.2       13 UNK        -0.5035 
     22 N         -55.8828  -28.2794   12.9526 N.am      13 UNK        -0.4233 
     23 C         -56.1390  -27.4226   11.9573 C.2       13 UNK         0.4989 
     24 O         -56.8831  -27.6785   11.0088 O.2       13 UNK        -0.4996 
     25 CA        -55.4398  -26.0483   12.0212 C.3       12 UNK         0.0216 
     26 CB        -56.2623  -24.9325   11.3429 C.3       12 UNK        -0.1964 
     27 N         -55.0333  -25.6392   13.3721 N.am      12 UNK        -0.4276 
     28 C         -55.8139  -25.4558   14.4452 C.2       12 UNK         0.5020 
     29 O         -57.0337  -25.6376   14.4426 O.2       12 UNK        -0.5489 
     30 CA        -55.0909  -25.0539   15.7479 C.3       11 UNK         0.0294 
     31 CB        -56.0372  -25.0353   16.9665 C.3       11 UNK        -0.2019 
     32 N         -53.9073  -25.8734   16.0489 N.am      11 UNK        -0.4493 
     33 C         -53.8410  -27.2122   16.1267 C.2       11 UNK         0.4932 
     34 O         -54.7817  -27.9565   15.8468 O.2       11 UNK        -0.5029 
     35 CA        -52.5113  -27.8408   16.5882 C.3       10 UNK         0.0280 
     36 CB        -52.1946  -29.1258   15.8090 C.3       10 UNK        -0.1976 
     37 N         -51.3670  -26.9329   16.4744 N.am      10 UNK        -0.4242 
     38 C         -50.8938  -26.1623   17.4626 C.2       10 UNK         0.5072 
     39 O         -51.3943  -26.1025   18.5862 O.2       10 UNK        -0.5224 
     40 CA        -49.6616  -25.2975   17.1414 C.3       9 UNK         0.0343 
     41 CB        -48.3745  -26.1302   17.2494 C.3       9 UNK        -0.2003 
     42 N         -49.7234  -24.6571   15.8246 N.am      9 UNK        -0.4272 
     43 C         -50.6454  -23.7526   15.4610 C.2       9 UNK         0.4988 
     44 O         -51.5467  -23.3534   16.1994 O.2       9 UNK        -0.5108 
     45 CA        -50.5727  -23.2314   14.0161 C.3       8 UNK         0.0248 
     46 CB        -49.4574  -22.1848   13.8632 C.3       8 UNK        -0.2001 
     47 N         -50.3830  -24.3061   13.0404 N.am      8 UNK        -0.4140 
     48 C         -51.2546  -25.3036   12.8380 C.2       8 UNK         0.5028 
     49 O         -52.3371  -25.3926   13.4129 O.2       8 UNK        -0.5428 
     50 CA        -50.8355  -26.4173   11.8714 C.3       7 UNK         0.0264 
     51 CB        -51.0089  -25.9785   10.4126 C.3       7 UNK        -0.1988 
     52 N         -49.4640  -26.8679   12.1061 N.am      7 UNK        -0.4454 
     53 C         -49.0568  -27.4802   13.2278 C.2       7 UNK         0.5027 
     54 O         -49.8057  -27.7604   14.1629 O.2       7 UNK        -0.5083 
     55 CA        -47.5515  -27.7731   13.3689 C.3       6 UNK         0.0844 
     56 C56       -47.1726  -29.1988   12.8992 C.3       14 UNK        -0.0967 
     57 S57       -47.0402  -29.3972   11.0878 S.3       14 UNK        -0.2604 
     58 C58       -48.1308  -30.8214   10.7708 C.3       14 UNK         0.0134 
     59 N         -46.7239  -26.7252   12.7660 N.am      6 UNK        -0.4116 
     60 C         -46.6459  -25.4722   13.2330 C.2       5 UNK         0.5034 
     61 O         -47.2392  -25.0727   14.2362 O.2       5 UNK        -0.5045 
     62 CA        -45.7929  -24.4918   12.4175 C.3       5 UNK         0.0224 
     63 CB        -44.2940  -24.7843   12.5925 C.3       5 UNK        -0.1978 
     64 N         -46.1290  -24.4726   10.9905 N.am      5 UNK        -0.4737 
     65 C         -47.3066  -24.0988   10.4775 C.2       4 UNK         0.5027 
     66 O         -48.2965  -23.8549   11.1650 O.2       4 UNK        -0.5211 
     67 CA        -47.3937  -23.9204    8.9508 C.3       4 UNK         0.0297 
     68 CB        -46.5205  -22.7398    8.4836 C.3       4 UNK        -0.1993 
     69 N         -47.1270  -25.1155    8.1412 N.am      4 UNK        -0.4486 
     70 C         -46.0136  -25.8620    8.0649 C.2       3 UNK         0.4961 
     71 O         -45.0147  -25.7007    8.7670 O.2       3 UNK        -0.5105 
     72 CA        -45.9971  -26.9598    6.9840 C.3       3 UNK         0.0299 
     73 CB        -46.5999  -28.2621    7.5313 C.3       3 UNK        -0.1972 
     74 N         -46.7055  -26.5694    5.7607 N.am      3 UNK        -0.4305 
     75 C         -46.3286  -25.5736    4.9426 C.2       2 UNK         0.5006 
     76 O         -45.2829  -24.9377    5.0813 O.2       2 UNK        -0.5106 
     77 CA        -47.2650  -25.2092    3.7719 C.3       2 UNK         0.0296 
     78 CB        -46.6946  -25.7368    2.4448 C.3       2 UNK        -0.2002 
     79 N         -48.6532  -25.6668    3.9079 N.am      2 UNK        -0.4032 
     80 C         -49.5021  -25.3225    4.8891 C.2       1 UNK         0.5000 
     81 O         -49.1961  -24.5970    5.8377 O.2       1 UNK        -0.5238 
     82 H82       -53.3005  -24.2598    1.3421 H         1 UNK         0.0889 
     83 H83       -52.3905  -25.7436    1.0530 H         1 UNK         0.0889 
     84 H84       -51.6512  -24.1770    0.7171 H         1 UNK         0.0889 
     85 H85       -51.6361  -26.6507    2.9452 H         1 UNK         0.3028 
     86 H86       -51.5654  -25.3006    5.4492 H         1 UNK         0.0864 
     87 H87       -50.3387  -28.0125    4.6909 H         1 UNK         0.0720 
     88 H88       -52.0066  -27.7557    5.1330 H         1 UNK         0.0720 
     89 H89       -51.2887  -29.8520    6.7733 H         1 UNK         0.0814 
     90 H90       -52.5848  -28.8448    7.3836 H         1 UNK         0.0814 
     91 H91       -49.1325  -29.9470    8.4128 H         1 UNK         0.1469 
     92 H92       -50.2827  -30.7347   12.4627 H         1 UNK         0.1381 
     93 H93       -53.1615  -29.1995    9.6748 H         1 UNK         0.1206 
     94 H94       -53.1766  -28.9733   12.5205 H         1 UNK         0.0813 
     95 H95       -52.4945  -30.4479   13.1845 H         1 UNK         0.0813 
     96 H96       -55.8892  -31.6646   13.5296 H         1 UNK         0.0638 
     97 H97       -54.7923  -30.4741   14.1775 H         1 UNK         0.0638 
     98 H98       -57.0501  -29.8582   12.2105 H         1 UNK         0.0568 
     99 H99       -57.5562  -27.5984   14.5778 H         1 UNK         0.3450 
    100 H100      -58.6764  -28.5321   15.5393 H         1 UNK         0.3450 
    101 H101      -55.3236  -27.9684   13.7379 H         1 UNK         0.2987 
    102 H102      -54.5134  -26.1632   11.4564 H         1 UNK         0.0766 
    103 H103      -55.7378  -23.9776   11.3767 H         1 UNK         0.0798 
    104 H104      -57.2331  -24.7997   11.8214 H         1 UNK         0.0798 
    105 H105      -56.4457  -25.1611   10.2923 H         1 UNK         0.0798 
    106 H106      -54.0236  -25.5091   13.4929 H         1 UNK         0.3198 
    107 H107      -54.7280  -24.0365   15.5924 H         1 UNK         0.0843 
    108 H108      -56.4532  -26.0235   17.1674 H         1 UNK         0.0831 
    109 H109      -56.8749  -24.3564   16.8023 H         1 UNK         0.0831 
    110 H110      -55.5206  -24.6993   17.8656 H         1 UNK         0.0831 
    111 H111      -53.0571  -25.3559   16.2314 H         1 UNK         0.3133 
    112 H112      -52.6491  -28.1215   17.6342 H         1 UNK         0.0566 
    113 H113      -51.2723  -29.5880   16.1611 H         1 UNK         0.0814 
    114 H114      -52.9884  -29.8665   15.9121 H         1 UNK         0.0814 
    115 H115      -52.0748  -28.9082   14.7502 H         1 UNK         0.0814 
    116 H116      -50.8703  -26.9530   15.5868 H         1 UNK         0.3091 
    117 H117      -49.6134  -24.5027   17.8887 H         1 UNK         0.0702 
    118 H118      -47.4887  -25.5145   17.0913 H         1 UNK         0.0785 
    119 H119      -48.3552  -26.9382   16.5178 H         1 UNK         0.0785 
    120 H120      -48.2836  -26.5823   18.2379 H         1 UNK         0.0785 
    121 H121      -48.9901  -24.8979   15.1635 H         1 UNK         0.2998 
    122 H122      -51.5253  -22.7474   13.7906 H         1 UNK         0.0697 
    123 H123      -48.4706  -22.6151   14.0374 H         1 UNK         0.0825 
    124 H124      -49.5884  -21.3667   14.5726 H         1 UNK         0.0825 
    125 H125      -49.4577  -21.7510   12.8630 H         1 UNK         0.0825 
    126 H126      -49.5351  -24.2718   12.4769 H         1 UNK         0.3029 
    127 H127      -51.4946  -27.2686   12.0469 H         1 UNK         0.0897 
    128 H128      -50.3999  -25.1098   10.1640 H         1 UNK         0.0792 
    129 H129      -52.0479  -25.7224   10.2022 H         1 UNK         0.0792 
    130 H130      -50.7312  -26.7853    9.7389 H         1 UNK         0.0792 
    131 H131      -48.7818  -26.6605   11.3926 H         1 UNK         0.3086 
    132 H132      -47.3468  -27.7453   14.4413 H         1 UNK         0.0583 
    133 H133      -46.2008  -29.4619   13.3197 H         1 UNK         0.1020 
    134 H134      -47.8675  -29.9316   13.3137 H         1 UNK         0.1020 
    135 H135      -47.7386  -31.3704    9.9132 H         1 UNK         0.0694 
    136 H136      -48.1032  -31.5196   11.6085 H         1 UNK         0.0694 
    137 H137      -46.2225  -26.9724   11.9249 H         1 UNK         0.2989 
    138 H138      -45.9905  -23.4926   12.8122 H         1 UNK         0.1055 
    139 H139      -44.0202  -24.8066   13.6484 H         1 UNK         0.0806 
    140 H140      -43.6840  -24.0152   12.1182 H         1 UNK         0.0806 
    141 H141      -44.0132  -25.7457   12.1607 H         1 UNK         0.0806 
    142 H142      -45.4057  -24.7438   10.3278 H         1 UNK         0.3061 
    143 H143      -48.4301  -23.6558    8.7335 H         1 UNK         0.0734 
    144 H144      -45.4567  -22.9375    8.6185 H         1 UNK         0.0832 
    145 H145      -46.6870  -22.5220    7.4285 H         1 UNK         0.0832 
    146 H146      -46.7568  -21.8335    9.0429 H         1 UNK         0.0832 
    147 H147      -47.8685  -25.3368    7.4861 H         1 UNK         0.3156 
    148 H148      -44.9556  -27.1516    6.7177 H         1 UNK         0.0589 
    149 H149      -47.6264  -28.1212    7.8714 H         1 UNK         0.0808 
    150 H150      -46.5967  -29.0533    6.7815 H         1 UNK         0.0808 
    151 H151      -46.0219  -28.6239    8.3821 H         1 UNK         0.0808 
    152 H152      -47.5712  -27.0484    5.5621 H         1 UNK         0.3098 
    153 H153      -47.2918  -24.1188    3.7202 H         1 UNK         0.0720 
    154 H154      -47.2827  -25.3928    1.5936 H         1 UNK         0.0791 
    155 H155      -46.6714  -26.8271    2.4208 H         1 UNK         0.0791 
    156 H156      -45.6729  -25.3862    2.2905 H         1 UNK         0.0791 
    157 H157      -49.0013  -26.2627    3.1709 H         1 UNK         0.3028 
@<TRIPOS>BOND
     1    1    2 1    
     2    1   82 1    
     3    1   83 1    
     4    1   84 1    
     5    2    3 2    
     6    2    4 am   BACKBONE|DICT|INTERRES
     7    4    5 1    
     8    4   85 1    
     9    5    6 1    
    10    5   80 1    
    11    5   86 1    
    12    6    7 1    
    13    6   87 1    
    14    6   88 1    
    15    7    8 1    
    16    8    9 1    
    17    8   89 1    
    18    8   90 1    
    19    9   10 ar   
    20    9   14 ar   
    21   10   11 ar   
    22   10   91 1    
    23   11   12 ar   
    24   11   58 1    
    25   12   13 ar   
    26   12   92 1    
    27   13   14 ar   
    28   13   15 1    
    29   14   93 1    
    30   15   16 1    
    31   15   94 1    
    32   15   95 1    
    33   16   17 1    
    34   17   18 1    
    35   17   96 1    
    36   17   97 1    
    37   18   19 1    
    38   18   22 1    
    39   18   98 1    
    40   19   20 am   BACKBONE|DICT|INTERRES
    41   19   21 2    
    42   20   99 1    
    43   20  100 1    
    44   22   23 am   BACKBONE|DICT|INTERRES
    45   22  101 1    
    46   23   24 2    
    47   23   25 1    
    48   25   26 1    
    49   25   27 1    
    50   25  102 1    
    51   26  103 1    
    52   26  104 1    
    53   26  105 1    
    54   27   28 am   BACKBONE|DICT|INTERRES
    55   27  106 1    
    56   28   29 2    
    57   28   30 1    
    58   30   31 1    
    59   30   32 1    
    60   30  107 1    
    61   31  108 1    
    62   31  109 1    
    63   31  110 1    
    64   32   33 am   BACKBONE|DICT|INTERRES
    65   32  111 1    
    66   33   34 2    
    67   33   35 1    
    68   35   36 1    
    69   35   37 1    
    70   35  112 1    
    71   36  113 1    
    72   36  114 1    
    73   36  115 1    
    74   37   38 am   BACKBONE|DICT|INTERRES
    75   37  116 1    
    76   38   39 2    
    77   38   40 1    
    78   40   41 1    
    79   40   42 1    
    80   40  117 1    
    81   41  118 1    
    82   41  119 1    
    83   41  120 1    
    84   42   43 am   BACKBONE|DICT|INTERRES
    85   42  121 1    
    86   43   44 2    
    87   43   45 1    
    88   45   46 1    
    89   45   47 1    
    90   45  122 1    
    91   46  123 1    
    92   46  124 1    
    93   46  125 1    
    94   47   48 am   BACKBONE|DICT|INTERRES
    95   47  126 1    
    96   48   49 2    
    97   48   50 1    
    98   50   51 1    
    99   50   52 1    
   100   50  127 1    
   101   51  128 1    
   102   51  129 1    
   103   51  130 1    
   104   52   53 am   BACKBONE|DICT|INTERRES
   105   52  131 1    
   106   53   54 2    
   107   53   55 1    
   108   55   56 1    
   109   55   59 1    
   110   55  132 1    
   111   56   57 1    
   112   56  133 1    
   113   56  134 1    
   114   57   58 1    
   115   58  135 1    
   116   58  136 1    
   117   59   60 am   BACKBONE|DICT|INTERRES
   118   59  137 1    
   119   60   61 2    
   120   60   62 1    
   121   62   63 1    
   122   62   64 1    
   123   62  138 1    
   124   63  139 1    
   125   63  140 1    
   126   63  141 1    
   127   64   65 am   BACKBONE|DICT|INTERRES
   128   64  142 1    
   129   65   66 2    
   130   65   67 1    
   131   67   68 1    
   132   67   69 1    
   133   67  143 1    
   134   68  144 1    
   135   68  145 1    
   136   68  146 1    
   137   69   70 am   BACKBONE|DICT|INTERRES
   138   69  147 1    
   139   70   71 2    
   140   70   72 1    
   141   72   73 1    
   142   72   74 1    
   143   72  148 1    
   144   73  149 1    
   145   73  150 1    
   146   73  151 1    
   147   74   75 am   BACKBONE|DICT|INTERRES
   148   74  152 1    
   149   75   76 2    
   150   75   77 1    
   151   77   78 1    
   152   77   79 1    
   153   77  153 1    
   154   78  154 1    
   155   78  155 1    
   156   78  156 1    
   157   79   80 am   BACKBONE|DICT|INTERRES
   158   79  157 1    
   159   80   81 2    
@<TRIPOS>SUBSTRUCTURE
     1 UNK         1 GROUP             0       ****    0 ROOT    
