@<TRIPOS>MOLECULE
3R207
157   159    1
SMALL
USER_CHARGES


@<TRIPOS>ATOM
      1 CA        -52.2737  -24.4908    3.1922 C.3       0 UNK        -0.1975 
      2 C         -51.2833  -24.5853    4.3437 C.2       0 UNK         0.4852 
      3 O         -50.9716  -23.5689    4.9665 O.2       0 UNK        -0.5216 
      4 N         -50.7950  -25.7976    4.6355 N.am      1 UNK        -0.4461 
      5 CA        -49.7974  -26.0686    5.6747 C.3       1 UNK         0.0864 
      6 C6        -49.7316  -27.5775    6.0232 C.3       14 UNK        -0.0898 
      7 S7        -51.0305  -28.0253    7.2155 S.3       14 UNK        -0.2598 
      8 C8        -50.9111  -29.8398    7.1912 C.3       14 UNK         0.0286 
      9 C9        -51.7005  -30.4454    8.3416 C.ar      14 UNK        -0.0844 
     10 C10       -51.0380  -30.9970    9.4444 C.ar      14 UNK        -0.0881 
     11 C11       -51.7654  -31.5131   10.5226 C.ar      14 UNK        -0.0643 
     12 C12       -53.1618  -31.4932   10.4789 C.ar      14 UNK        -0.0930 
     13 C13       -53.8340  -30.9447    9.3847 C.ar      14 UNK        -0.0827 
     14 C14       -53.0988  -30.4309    8.3135 C.ar      14 UNK        -0.1249 
     15 C15       -55.3525  -30.8882    9.3794 C.3       14 UNK         0.0141 
     16 S16       -55.9386  -29.2682    9.9676 S.3       14 UNK        -0.2313 
     17 C17       -57.6482  -29.6602   10.4755 C.3       14 UNK        -0.0915 
     18 CA        -57.9232  -29.3373   11.9702 C.3       13 UNK         0.0968 
     19 C         -59.4105  -29.6233   12.3311 C.2       13 UNK         0.5732 
     20 N         -59.7145  -30.5726   13.2085 N.am      13 UNK        -0.7310 
     21 O         -60.3063  -28.9657   11.8064 O.2       13 UNK        -0.5035 
     22 N         -56.9324  -29.9644   12.8630 N.am      13 UNK        -0.4233 
     23 C         -56.6817  -29.5829   14.1219 C.2       13 UNK         0.4989 
     24 O         -57.3085  -28.6940   14.7034 O.2       13 UNK        -0.4996 
     25 CA        -55.5571  -30.3264   14.8772 C.3       12 UNK         0.0216 
     26 CB        -54.6265  -31.1634   13.9673 C.3       12 UNK        -0.1964 
     27 N         -54.7655  -29.4217   15.7227 N.am      12 UNK        -0.4276 
     28 C         -54.0476  -28.3666   15.3113 C.2       12 UNK         0.5020 
     29 O         -53.9346  -28.0241   14.1319 O.2       12 UNK        -0.5489 
     30 CA        -53.2974  -27.5941   16.4060 C.3       11 UNK         0.0294 
     31 CB        -51.9804  -28.3070   16.7593 C.3       11 UNK        -0.2019 
     32 N         -52.9779  -26.2539   15.9234 N.am      11 UNK        -0.4493 
     33 C         -53.3825  -25.1019   16.4684 C.2       11 UNK         0.4932 
     34 O         -54.0537  -25.0267   17.4996 O.2       11 UNK        -0.5029 
     35 CA        -52.9563  -23.8221   15.7230 C.3       10 UNK         0.0280 
     36 CB        -53.2782  -22.5230   16.4927 C.3       10 UNK        -0.1976 
     37 N         -51.5494  -23.8689   15.3112 N.am      10 UNK        -0.4242 
     38 C         -50.4574  -23.9031   16.0907 C.2       10 UNK         0.5072 
     39 O         -50.4813  -23.8100   17.3187 O.2       10 UNK        -0.5224 
     40 CA        -49.0957  -24.0902   15.3883 C.3       9 UNK         0.0343 
     41 CB        -48.5505  -25.5041   15.6486 C.3       9 UNK        -0.2003 
     42 N         -49.1359  -23.8585   13.9408 N.am      9 UNK        -0.4272 
     43 C         -49.2827  -22.6598   13.3582 C.2       9 UNK         0.4988 
     44 O         -49.3336  -21.5975   13.9786 O.2       9 UNK        -0.5108 
     45 CA        -49.4320  -22.6465   11.8290 C.3       8 UNK         0.0248 
     46 CB        -48.0581  -22.5900   11.1454 C.3       8 UNK        -0.2001 
     47 N         -50.1840  -23.8059   11.3408 N.am      8 UNK        -0.4140 
     48 C         -51.5196  -23.9151   11.4014 C.2       8 UNK         0.5028 
     49 O         -52.2588  -23.0266   11.8255 O.2       8 UNK        -0.5428 
     50 CA        -52.1410  -25.2462   10.9392 C.3       7 UNK         0.0264 
     51 CB        -52.3795  -25.2346    9.4205 C.3       7 UNK        -0.1988 
     52 N         -51.3457  -26.4233   11.2949 N.am      7 UNK        -0.4454 
     53 C         -51.0628  -26.8073   12.5493 C.2       7 UNK         0.5027 
     54 O         -51.4401  -26.2027   13.5512 O.2       7 UNK        -0.5083 
     55 CA        -50.1483  -28.0390   12.7078 C.3       6 UNK         0.0844 
     56 C56       -50.9906  -29.3422   12.6857 C.3       14 UNK        -0.0967 
     57 S57       -49.9644  -30.8557   12.5800 S.3       14 UNK        -0.2604 
     58 C58       -51.0598  -32.0644   11.7568 C.3       14 UNK         0.0134 
     59 N         -49.0474  -28.0544   11.7359 N.am      6 UNK        -0.4116 
     60 C         -48.1506  -27.0799   11.5327 C.2       5 UNK         0.5034 
     61 O         -48.1753  -25.9871   12.1055 O.2       5 UNK        -0.5045 
     62 CA        -47.0933  -27.3727   10.4580 C.3       5 UNK         0.0224 
     63 CB        -47.7400  -27.3710    9.0642 C.3       5 UNK        -0.1978 
     64 N         -45.9984  -26.3987   10.4825 N.am      5 UNK        -0.4737 
     65 C         -44.9461  -26.4790   11.3102 C.2       4 UNK         0.5027 
     66 O         -44.8073  -27.3862   12.1322 O.2       4 UNK        -0.5211 
     67 CA        -43.8406  -25.4101   11.1981 C.3       4 UNK         0.0297 
     68 CB        -42.4678  -26.0682   10.9682 C.3       4 UNK        -0.1993 
     69 N         -44.0815  -24.4552   10.1134 N.am      4 UNK        -0.4486 
     70 C         -44.4469  -23.1777   10.2763 C.2       3 UNK         0.4961 
     71 O         -44.5823  -22.6378   11.3746 O.2       3 UNK        -0.5105 
     72 CA        -44.7076  -22.3476    9.0015 C.3       3 UNK         0.0299 
     73 CB        -43.5038  -21.4381    8.7050 C.3       3 UNK        -0.1972 
     74 N         -45.0337  -23.1196    7.7925 N.am      3 UNK        -0.4305 
     75 C         -46.0765  -23.9499    7.6681 C.2       2 UNK         0.5006 
     76 O         -46.8303  -24.2438    8.6002 O.2       2 UNK        -0.5106 
     77 CA        -46.3018  -24.5905    6.2926 C.3       2 UNK         0.0296 
     78 CB        -45.2649  -25.6964    6.0169 C.3       2 UNK        -0.2002 
     79 N         -47.6466  -25.1495    6.3175 N.am      2 UNK        -0.4032 
     80 C         -48.4050  -25.5302    5.2869 C.2       1 UNK         0.5000 
     81 O         -48.0457  -25.4999    4.1064 O.2       1 UNK        -0.5238 
     82 H82       -52.4692  -25.4636    2.7412 H         1 UNK         0.0889 
     83 H83       -51.8858  -23.8298    2.4176 H         1 UNK         0.0889 
     84 H84       -53.2213  -24.0843    3.5447 H         1 UNK         0.0889 
     85 H85       -51.0745  -26.5926    4.0794 H         1 UNK         0.3028 
     86 H86       -50.1060  -25.5180    6.5671 H         1 UNK         0.0864 
     87 H87       -48.7760  -27.8491    6.4747 H         1 UNK         0.0720 
     88 H88       -49.8220  -28.1932    5.1263 H         1 UNK         0.0720 
     89 H89       -49.8626  -30.1367    7.2481 H         1 UNK         0.0814 
     90 H90       -51.2917  -30.2176    6.2411 H         1 UNK         0.0814 
     91 H91       -49.9573  -31.0051    9.4786 H         1 UNK         0.1469 
     92 H92       -53.7297  -31.8916   11.3069 H         1 UNK         0.1381 
     93 H93       -53.6141  -29.9926    7.4695 H         1 UNK         0.1206 
     94 H94       -55.7526  -31.6831   10.0107 H         1 UNK         0.0813 
     95 H95       -55.7353  -31.0696    8.3740 H         1 UNK         0.0813 
     96 H96       -57.8661  -30.7091   10.2677 H         1 UNK         0.0638 
     97 H97       -58.3170  -29.0827    9.8346 H         1 UNK         0.0638 
     98 H98       -57.8025  -28.2584   12.0863 H         1 UNK         0.0568 
     99 H99       -60.6815  -30.7435   13.4349 H         1 UNK         0.3450 
    100 H100      -58.9890  -31.1163   13.6465 H         1 UNK         0.3450 
    101 H101      -56.3724  -30.6967   12.4559 H         1 UNK         0.2987 
    102 H102      -56.0593  -31.0159   15.5574 H         1 UNK         0.0766 
    103 H103      -54.1470  -30.5471   13.2057 H         1 UNK         0.0798 
    104 H104      -53.8354  -31.6391   14.5472 H         1 UNK         0.0798 
    105 H105      -55.1702  -31.9632   13.4634 H         1 UNK         0.0798 
    106 H106      -54.8170  -29.6035   16.7157 H         1 UNK         0.3198 
    107 H107      -53.9313  -27.5441   17.2938 H         1 UNK         0.0843 
    108 H108      -51.3193  -28.3834   15.8951 H         1 UNK         0.0831 
    109 H109      -52.1625  -29.3189   17.1232 H         1 UNK         0.0831 
    110 H110      -51.4419  -27.7730   17.5425 H         1 UNK         0.0831 
    111 H111      -52.4851  -26.2268   15.0300 H         1 UNK         0.3133 
    112 H112      -53.5354  -23.8043   14.7985 H         1 UNK         0.0566 
    113 H113      -52.9693  -21.6423   15.9297 H         1 UNK         0.0814 
    114 H114      -54.3502  -22.4334   16.6722 H         1 UNK         0.0814 
    115 H115      -52.7846  -22.4912   17.4643 H         1 UNK         0.0814 
    116 H116      -51.3995  -24.0357   14.3245 H         1 UNK         0.3091 
    117 H117      -48.4009  -23.3702   15.8254 H         1 UNK         0.0702 
    118 H118      -47.5856  -25.6564   15.1641 H         1 UNK         0.0785 
    119 H119      -49.2348  -26.2700   15.2844 H         1 UNK         0.0785 
    120 H120      -48.4098  -25.6772   16.7163 H         1 UNK         0.0785 
    121 H121      -49.0309  -24.6741   13.3445 H         1 UNK         0.2998 
    122 H122      -49.9758  -21.7387   11.5583 H         1 UNK         0.0697 
    123 H123      -48.1606  -22.4656   10.0677 H         1 UNK         0.0825 
    124 H124      -47.4708  -21.7471   11.5122 H         1 UNK         0.0825 
    125 H125      -47.4744  -23.4937   11.3249 H         1 UNK         0.0825 
    126 H126      -49.6393  -24.6035   11.0408 H         1 UNK         0.3029 
    127 H127      -53.1086  -25.3444   11.4368 H         1 UNK         0.0897 
    128 H128      -52.9053  -26.1326    9.0945 H         1 UNK         0.0792 
    129 H129      -52.9905  -24.3796    9.1277 H         1 UNK         0.0792 
    130 H130      -51.4441  -25.1728    8.8630 H         1 UNK         0.0792 
    131 H131      -50.9953  -26.9828   10.5309 H         1 UNK         0.3086 
    132 H132      -49.6801  -27.9689   13.6909 H         1 UNK         0.0583 
    133 H133      -51.6058  -29.4088   13.5844 H         1 UNK         0.1020 
    134 H134      -51.6943  -29.3143   11.8532 H         1 UNK         0.1020 
    135 H135      -50.4695  -32.9351   11.4687 H         1 UNK         0.0694 
    136 H136      -51.7865  -32.4178   12.4902 H         1 UNK         0.0694 
    137 H137      -48.9447  -28.9221   11.2302 H         1 UNK         0.2989 
    138 H138      -46.6820  -28.3675   10.6457 H         1 UNK         0.1055 
    139 H139      -48.4372  -28.2024    8.9559 H         1 UNK         0.0806 
    140 H140      -46.9928  -27.4774    8.2782 H         1 UNK         0.0806 
    141 H141      -48.3004  -26.4543    8.8814 H         1 UNK         0.0806 
    142 H142      -46.1140  -25.5750    9.9008 H         1 UNK         0.3061 
    143 H143      -43.8086  -24.8929   12.1593 H         1 UNK         0.0734 
    144 H144      -41.6743  -25.3223   10.9192 H         1 UNK         0.0832 
    145 H145      -42.2164  -26.7497   11.7820 H         1 UNK         0.0832 
    146 H146      -42.4456  -26.6441   10.0422 H         1 UNK         0.0832 
    147 H147      -43.9963  -24.8095    9.1718 H         1 UNK         0.3156 
    148 H148      -45.5680  -21.7096    9.2140 H         1 UNK         0.0589 
    149 H149      -42.6151  -22.0162    8.4484 H         1 UNK         0.0808 
    150 H150      -43.2536  -20.8248    9.5720 H         1 UNK         0.0808 
    151 H151      -43.7127  -20.7561    7.8805 H         1 UNK         0.0808 
    152 H152      -44.4530  -22.9505    6.9832 H         1 UNK         0.3098 
    153 H153      -46.2473  -23.8167    5.5243 H         1 UNK         0.0720 
    154 H154      -45.2853  -26.4704    6.7850 H         1 UNK         0.0791 
    155 H155      -44.2531  -25.2907    5.9879 H         1 UNK         0.0791 
    156 H156      -45.4427  -26.1780    5.0553 H         1 UNK         0.0791 
    157 H157      -48.0309  -25.1584    7.2553 H         1 UNK         0.3028 
@<TRIPOS>BOND
     1    1    2 1    
     2    1   82 1    
     3    1   83 1    
     4    1   84 1    
     5    2    3 2    
     6    2    4 am   BACKBONE|DICT|INTERRES
     7    4    5 1    
     8    4   85 1    
     9    5    6 1    
    10    5   80 1    
    11    5   86 1    
    12    6    7 1    
    13    6   87 1    
    14    6   88 1    
    15    7    8 1    
    16    8    9 1    
    17    8   89 1    
    18    8   90 1    
    19    9   10 ar   
    20    9   14 ar   
    21   10   11 ar   
    22   10   91 1    
    23   11   12 ar   
    24   11   58 1    
    25   12   13 ar   
    26   12   92 1    
    27   13   14 ar   
    28   13   15 1    
    29   14   93 1    
    30   15   16 1    
    31   15   94 1    
    32   15   95 1    
    33   16   17 1    
    34   17   18 1    
    35   17   96 1    
    36   17   97 1    
    37   18   19 1    
    38   18   22 1    
    39   18   98 1    
    40   19   20 am   BACKBONE|DICT|INTERRES
    41   19   21 2    
    42   20   99 1    
    43   20  100 1    
    44   22   23 am   BACKBONE|DICT|INTERRES
    45   22  101 1    
    46   23   24 2    
    47   23   25 1    
    48   25   26 1    
    49   25   27 1    
    50   25  102 1    
    51   26  103 1    
    52   26  104 1    
    53   26  105 1    
    54   27   28 am   BACKBONE|DICT|INTERRES
    55   27  106 1    
    56   28   29 2    
    57   28   30 1    
    58   30   31 1    
    59   30   32 1    
    60   30  107 1    
    61   31  108 1    
    62   31  109 1    
    63   31  110 1    
    64   32   33 am   BACKBONE|DICT|INTERRES
    65   32  111 1    
    66   33   34 2    
    67   33   35 1    
    68   35   36 1    
    69   35   37 1    
    70   35  112 1    
    71   36  113 1    
    72   36  114 1    
    73   36  115 1    
    74   37   38 am   BACKBONE|DICT|INTERRES
    75   37  116 1    
    76   38   39 2    
    77   38   40 1    
    78   40   41 1    
    79   40   42 1    
    80   40  117 1    
    81   41  118 1    
    82   41  119 1    
    83   41  120 1    
    84   42   43 am   BACKBONE|DICT|INTERRES
    85   42  121 1    
    86   43   44 2    
    87   43   45 1    
    88   45   46 1    
    89   45   47 1    
    90   45  122 1    
    91   46  123 1    
    92   46  124 1    
    93   46  125 1    
    94   47   48 am   BACKBONE|DICT|INTERRES
    95   47  126 1    
    96   48   49 2    
    97   48   50 1    
    98   50   51 1    
    99   50   52 1    
   100   50  127 1    
   101   51  128 1    
   102   51  129 1    
   103   51  130 1    
   104   52   53 am   BACKBONE|DICT|INTERRES
   105   52  131 1    
   106   53   54 2    
   107   53   55 1    
   108   55   56 1    
   109   55   59 1    
   110   55  132 1    
   111   56   57 1    
   112   56  133 1    
   113   56  134 1    
   114   57   58 1    
   115   58  135 1    
   116   58  136 1    
   117   59   60 am   BACKBONE|DICT|INTERRES
   118   59  137 1    
   119   60   61 2    
   120   60   62 1    
   121   62   63 1    
   122   62   64 1    
   123   62  138 1    
   124   63  139 1    
   125   63  140 1    
   126   63  141 1    
   127   64   65 am   BACKBONE|DICT|INTERRES
   128   64  142 1    
   129   65   66 2    
   130   65   67 1    
   131   67   68 1    
   132   67   69 1    
   133   67  143 1    
   134   68  144 1    
   135   68  145 1    
   136   68  146 1    
   137   69   70 am   BACKBONE|DICT|INTERRES
   138   69  147 1    
   139   70   71 2    
   140   70   72 1    
   141   72   73 1    
   142   72   74 1    
   143   72  148 1    
   144   73  149 1    
   145   73  150 1    
   146   73  151 1    
   147   74   75 am   BACKBONE|DICT|INTERRES
   148   74  152 1    
   149   75   76 2    
   150   75   77 1    
   151   77   78 1    
   152   77   79 1    
   153   77  153 1    
   154   78  154 1    
   155   78  155 1    
   156   78  156 1    
   157   79   80 am   BACKBONE|DICT|INTERRES
   158   79  157 1    
   159   80   81 2    
@<TRIPOS>SUBSTRUCTURE
     1 UNK         1 GROUP             0       ****    0 ROOT    
