@<TRIPOS>MOLECULE
3R207
157   159    1
SMALL
USER_CHARGES


@<TRIPOS>ATOM
      1 CA        -50.5449  -31.0263    2.2885 C.3       0 UNK        -0.1975 
      2 C         -50.5389  -29.8570    3.2626 C.2       0 UNK         0.4852 
      3 O         -51.3987  -28.9809    3.1657 O.2       0 UNK        -0.5216 
      4 N         -49.5833  -29.8497    4.2009 N.am      1 UNK        -0.4461 
      5 CA        -49.3817  -28.7970    5.1994 C.3       1 UNK         0.0864 
      6 C6        -48.6384  -29.3355    6.4530 C.3       14 UNK        -0.0898 
      7 S7        -49.7140  -30.3573    7.5118 S.3       14 UNK        -0.2598 
      8 C8        -49.7894  -29.3560    9.0350 C.3       14 UNK         0.0286 
      9 C9        -50.8875  -28.3006    8.9934 C.ar      14 UNK        -0.0844 
     10 C10       -50.7913  -27.1958    8.1435 C.ar      14 UNK        -0.0881 
     11 C11       -51.7762  -26.2043    8.1465 C.ar      14 UNK        -0.0643 
     12 C12       -52.8698  -26.3268    9.0106 C.ar      14 UNK        -0.0930 
     13 C13       -52.9805  -27.4227    9.8747 C.ar      14 UNK        -0.0827 
     14 C14       -51.9832  -28.4046    9.8535 C.ar      14 UNK        -0.1249 
     15 C15       -54.1435  -27.4843   10.8657 C.3       14 UNK         0.0141 
     16 S16       -54.9214  -29.1266   11.0360 S.3       14 UNK        -0.2313 
     17 C17       -53.8695  -29.9334   12.2941 C.3       14 UNK        -0.0915 
     18 CA        -54.6715  -30.4505   13.5187 C.3       13 UNK         0.0968 
     19 C         -53.8317  -31.4158   14.4084 C.2       13 UNK         0.5732 
     20 N         -53.9065  -31.3530   15.7330 N.am      13 UNK        -0.7310 
     21 O         -53.1071  -32.2619   13.8897 O.2       13 UNK        -0.5035 
     22 N         -55.2678  -29.3456   14.2865 N.am      13 UNK        -0.4233 
     23 C         -56.5438  -29.2981   14.6893 C.2       13 UNK         0.4989 
     24 O         -57.3945  -30.1303   14.3671 O.2       13 UNK        -0.4996 
     25 CA        -56.9337  -28.1314   15.6224 C.3       12 UNK         0.0216 
     26 CB        -58.2789  -28.3649   16.3426 C.3       12 UNK        -0.1964 
     27 N         -55.8929  -27.7758   16.5967 N.am      12 UNK        -0.4276 
     28 C         -55.3000  -28.5827   17.4934 C.2       12 UNK         0.5020 
     29 O         -55.5711  -29.7785   17.6108 O.2       12 UNK        -0.5489 
     30 CA        -54.1917  -27.9818   18.3814 C.3       11 UNK         0.0294 
     31 CB        -52.9566  -28.9006   18.4231 C.3       11 UNK        -0.2019 
     32 N         -53.7714  -26.6660   17.9007 N.am      11 UNK        -0.4493 
     33 C         -54.1074  -25.4882   18.4446 C.2       11 UNK         0.4932 
     34 O         -54.7446  -25.3720   19.4912 O.2       11 UNK        -0.5029 
     35 CA        -53.6899  -24.2200   17.6729 C.3       10 UNK         0.0280 
     36 CB        -52.4127  -23.6197   18.2805 C.3       10 UNK        -0.1976 
     37 N         -53.4874  -24.4571   16.2379 N.am      10 UNK        -0.4242 
     38 C         -54.4672  -24.8076   15.3873 C.2       10 UNK         0.5072 
     39 O         -55.6510  -24.8859   15.7152 O.2       10 UNK        -0.5224 
     40 CA        -54.0701  -25.2318   13.9620 C.3       9 UNK         0.0343 
     41 CB        -54.2508  -24.0669   12.9782 C.3       9 UNK        -0.2003 
     42 N         -52.7029  -25.7540   13.8723 N.am      9 UNK        -0.4272 
     43 C         -52.2738  -26.8644   14.4952 C.2       9 UNK         0.4988 
     44 O         -53.0334  -27.6218   15.1006 O.2       9 UNK        -0.5108 
     45 CA        -50.7620  -27.1741   14.4971 C.3       8 UNK         0.0248 
     46 CB        -50.4602  -28.3685   13.5791 C.3       8 UNK        -0.2001 
     47 N         -49.9027  -26.0480   14.1162 N.am      8 UNK        -0.4140 
     48 C         -49.8477  -24.8564   14.7359 C.2       8 UNK         0.5028 
     49 O         -50.4604  -24.6019   15.7732 O.2       8 UNK        -0.5428 
     50 CA        -49.0571  -23.7301   14.0355 C.3       7 UNK         0.0264 
     51 CB        -47.6401  -23.6261   14.6194 C.3       7 UNK        -0.1988 
     52 N         -48.9701  -23.8911   12.5783 N.am      7 UNK        -0.4454 
     53 C         -50.0253  -24.0354   11.7580 C.2       7 UNK         0.5027 
     54 O         -51.1858  -23.8627   12.1295 O.2       7 UNK        -0.5083 
     55 CA        -49.7818  -24.5419   10.3208 C.3       6 UNK         0.0844 
     56 C56       -50.2830  -23.5123    9.2753 C.3       14 UNK        -0.0967 
     57 S57       -50.0773  -24.0711    7.5490 S.3       14 UNK        -0.2604 
     58 C58       -51.6313  -24.9817    7.2478 C.3       14 UNK         0.0134 
     59 N         -48.4137  -25.0052   10.0644 N.am      6 UNK        -0.4116 
     60 C         -47.7970  -26.0303   10.6720 C.2       5 UNK         0.5034 
     61 O         -48.3371  -26.7529   11.5105 O.2       5 UNK        -0.5045 
     62 CA        -46.3042  -26.2353   10.3499 C.3       5 UNK         0.0224 
     63 CB        -46.1115  -27.4058    9.3738 C.3       5 UNK        -0.1978 
     64 N         -45.6503  -25.0340    9.8130 N.am      5 UNK        -0.4737 
     65 C         -45.4965  -23.8780   10.4745 C.2       4 UNK         0.5027 
     66 O         -45.8615  -23.7169   11.6393 O.2       4 UNK        -0.5211 
     67 CA        -44.9144  -22.6795    9.7025 C.3       4 UNK         0.0297 
     68 CB        -43.3782  -22.6295    9.8174 C.3       4 UNK        -0.1993 
     69 N         -45.3767  -22.5834    8.3071 N.am      4 UNK        -0.4486 
     70 C         -45.0659  -23.3657    7.2641 C.2       3 UNK         0.4961 
     71 O         -44.2538  -24.2923    7.3139 O.2       3 UNK        -0.5105 
     72 CA        -45.8060  -23.0537    5.9488 C.3       3 UNK         0.0299 
     73 CB        -45.0961  -21.9182    5.1931 C.3       3 UNK        -0.1972 
     74 N         -45.9245  -24.2143    5.0594 N.am      3 UNK        -0.4305 
     75 C         -46.5204  -25.3746    5.3685 C.2       2 UNK         0.5006 
     76 O         -47.0762  -25.5961    6.4474 O.2       2 UNK        -0.5106 
     77 CA        -46.4487  -26.4757    4.2909 C.3       2 UNK         0.0296 
     78 CB        -45.0079  -26.9962    4.1399 C.3       2 UNK        -0.2002 
     79 N         -47.3172  -27.6090    4.6138 N.am      2 UNK        -0.4032 
     80 C         -48.6567  -27.5924    4.5626 C.2       1 UNK         0.5000 
     81 O         -49.3103  -26.6754    4.0611 O.2       1 UNK        -0.5238 
     82 H82       -51.4886  -31.5669    2.3575 H         1 UNK         0.0889 
     83 H83       -49.7367  -31.7296    2.4885 H         1 UNK         0.0889 
     84 H84       -50.4335  -30.6640    1.2669 H         1 UNK         0.0889 
     85 H85       -48.9152  -30.6067    4.2243 H         1 UNK         0.3028 
     86 H86       -50.3610  -28.4324    5.5178 H         1 UNK         0.0864 
     87 H87       -47.7773  -29.9420    6.1669 H         1 UNK         0.0720 
     88 H88       -48.2338  -28.5177    7.0512 H         1 UNK         0.0720 
     89 H89       -49.9536  -30.0347    9.8734 H         1 UNK         0.0814 
     90 H90       -48.8291  -28.8792    9.2314 H         1 UNK         0.0814 
     91 H91       -49.9320  -27.0760    7.5011 H         1 UNK         0.1469 
     92 H92       -53.6229  -25.5510    9.0296 H         1 UNK         0.1381 
     93 H93       -52.0407  -29.2489   10.5216 H         1 UNK         0.1206 
     94 H94       -54.9236  -26.7816   10.5694 H         1 UNK         0.0813 
     95 H95       -53.7903  -27.1510   11.8376 H         1 UNK         0.0813 
     96 H96       -53.3622  -30.7575   11.7896 H         1 UNK         0.0638 
     97 H97       -53.0884  -29.2494   12.6239 H         1 UNK         0.0638 
     98 H98       -55.4665  -31.0834   13.1215 H         1 UNK         0.0568 
     99 H99       -53.3579  -31.9972   16.2787 H         1 UNK         0.3450 
    100 H100      -54.5395  -30.7143   16.2020 H         1 UNK         0.3450 
    101 H101      -54.6080  -28.6560   14.6350 H         1 UNK         0.2987 
    102 H102      -57.0542  -27.2611   14.9756 H         1 UNK         0.0766 
    103 H103      -58.5473  -27.5124   16.9666 H         1 UNK         0.0798 
    104 H104      -59.0894  -28.5071   15.6267 H         1 UNK         0.0798 
    105 H105      -58.2467  -29.2498   16.9792 H         1 UNK         0.0798 
    106 H106      -55.6061  -26.8038   16.5715 H         1 UNK         0.3198 
    107 H107      -54.5967  -27.9059   19.3926 H         1 UNK         0.0843 
    108 H108      -52.5430  -29.0667   17.4274 H         1 UNK         0.0831 
    109 H109      -53.2064  -29.8776   18.8388 H         1 UNK         0.0831 
    110 H110      -52.1691  -28.4784   19.0474 H         1 UNK         0.0831 
    111 H111      -53.2683  -26.6702   17.0213 H         1 UNK         0.3133 
    112 H112      -54.4939  -23.4889   17.7800 H         1 UNK         0.0566 
    113 H113      -51.5756  -24.3172   18.2305 H         1 UNK         0.0814 
    114 H114      -52.5625  -23.3668   19.3311 H         1 UNK         0.0814 
    115 H115      -52.1179  -22.7051   17.7657 H         1 UNK         0.0814 
    116 H116      -52.5262  -24.4398   15.9088 H         1 UNK         0.3091 
    117 H117      -54.7521  -26.0319   13.6676 H         1 UNK         0.0702 
    118 H118      -54.0211  -24.3701   11.9564 H         1 UNK         0.0785 
    119 H119      -53.6062  -23.2238   13.2300 H         1 UNK         0.0785 
    120 H120      -55.2798  -23.7050   12.9861 H         1 UNK         0.0785 
    121 H121      -52.0363  -25.1750   13.3701 H         1 UNK         0.2998 
    122 H122      -50.4971  -27.4523   15.5189 H         1 UNK         0.0697 
    123 H123      -50.7089  -28.1494   12.5398 H         1 UNK         0.0825 
    124 H124      -51.0305  -29.2485   13.8794 H         1 UNK         0.0825 
    125 H125      -49.4055  -28.6420   13.6169 H         1 UNK         0.0825 
    126 H126      -49.3611  -26.1726   13.2669 H         1 UNK         0.3029 
    127 H127      -49.5834  -22.7938   14.2324 H         1 UNK         0.0897 
    128 H128      -47.0993  -22.7775   14.1995 H         1 UNK         0.0792 
    129 H129      -47.6715  -23.4870   15.7010 H         1 UNK         0.0792 
    130 H130      -47.0552  -24.5254   14.4210 H         1 UNK         0.0792 
    131 H131      -48.0396  -24.0172   12.1971 H         1 UNK         0.3086 
    132 H132      -50.4096  -25.4281   10.2503 H         1 UNK         0.0583 
    133 H133      -51.3367  -23.2786    9.4416 H         1 UNK         0.1020 
    134 H134      -49.7455  -22.5689    9.3868 H         1 UNK         0.1020 
    135 H135      -52.4741  -24.3001    7.3725 H         1 UNK         0.0694 
    136 H136      -51.6485  -25.3079    6.2069 H         1 UNK         0.0694 
    137 H137      -47.8982  -24.4970    9.3610 H         1 UNK         0.2989 
    138 H138      -45.8072  -26.4879   11.2892 H         1 UNK         0.1055 
    139 H139      -45.0565  -27.5750    9.1578 H         1 UNK         0.0806 
    140 H140      -46.6236  -27.2310    8.4282 H         1 UNK         0.0806 
    141 H141      -46.5065  -28.3315    9.7940 H         1 UNK         0.0806 
    142 H142      -45.3062  -25.0767    8.8581 H         1 UNK         0.3061 
    143 H143      -45.3001  -21.7845   10.1938 H         1 UNK         0.0734 
    144 H144      -43.0723  -22.5580   10.8619 H         1 UNK         0.0832 
    145 H145      -42.9045  -23.5213    9.4066 H         1 UNK         0.0832 
    146 H146      -42.9688  -21.7621    9.2997 H         1 UNK         0.0832 
    147 H147      -46.0615  -21.8569    8.1452 H         1 UNK         0.3156 
    148 H148      -46.8200  -22.7314    6.1954 H         1 UNK         0.0589 
    149 H149      -44.0827  -22.1999    4.9034 H         1 UNK         0.0808 
    150 H150      -45.6395  -21.6400    4.2898 H         1 UNK         0.0808 
    151 H151      -45.0195  -21.0214    5.8095 H         1 UNK         0.0808 
    152 H152      -45.4662  -24.1365    4.1635 H         1 UNK         0.3098 
    153 H153      -46.7743  -26.0483    3.3401 H         1 UNK         0.0720 
    154 H154      -44.9456  -27.7800    3.3846 H         1 UNK         0.0791 
    155 H155      -44.3278  -26.2014    3.8312 H         1 UNK         0.0791 
    156 H156      -44.6262  -27.4022    5.0780 H         1 UNK         0.0791 
    157 H157      -46.8667  -28.3970    5.0537 H         1 UNK         0.3028 
@<TRIPOS>BOND
     1    1    2 1    
     2    1   82 1    
     3    1   83 1    
     4    1   84 1    
     5    2    3 2    
     6    2    4 am   BACKBONE|DICT|INTERRES
     7    4    5 1    
     8    4   85 1    
     9    5    6 1    
    10    5   80 1    
    11    5   86 1    
    12    6    7 1    
    13    6   87 1    
    14    6   88 1    
    15    7    8 1    
    16    8    9 1    
    17    8   89 1    
    18    8   90 1    
    19    9   10 ar   
    20    9   14 ar   
    21   10   11 ar   
    22   10   91 1    
    23   11   12 ar   
    24   11   58 1    
    25   12   13 ar   
    26   12   92 1    
    27   13   14 ar   
    28   13   15 1    
    29   14   93 1    
    30   15   16 1    
    31   15   94 1    
    32   15   95 1    
    33   16   17 1    
    34   17   18 1    
    35   17   96 1    
    36   17   97 1    
    37   18   19 1    
    38   18   22 1    
    39   18   98 1    
    40   19   20 am   BACKBONE|DICT|INTERRES
    41   19   21 2    
    42   20   99 1    
    43   20  100 1    
    44   22   23 am   BACKBONE|DICT|INTERRES
    45   22  101 1    
    46   23   24 2    
    47   23   25 1    
    48   25   26 1    
    49   25   27 1    
    50   25  102 1    
    51   26  103 1    
    52   26  104 1    
    53   26  105 1    
    54   27   28 am   BACKBONE|DICT|INTERRES
    55   27  106 1    
    56   28   29 2    
    57   28   30 1    
    58   30   31 1    
    59   30   32 1    
    60   30  107 1    
    61   31  108 1    
    62   31  109 1    
    63   31  110 1    
    64   32   33 am   BACKBONE|DICT|INTERRES
    65   32  111 1    
    66   33   34 2    
    67   33   35 1    
    68   35   36 1    
    69   35   37 1    
    70   35  112 1    
    71   36  113 1    
    72   36  114 1    
    73   36  115 1    
    74   37   38 am   BACKBONE|DICT|INTERRES
    75   37  116 1    
    76   38   39 2    
    77   38   40 1    
    78   40   41 1    
    79   40   42 1    
    80   40  117 1    
    81   41  118 1    
    82   41  119 1    
    83   41  120 1    
    84   42   43 am   BACKBONE|DICT|INTERRES
    85   42  121 1    
    86   43   44 2    
    87   43   45 1    
    88   45   46 1    
    89   45   47 1    
    90   45  122 1    
    91   46  123 1    
    92   46  124 1    
    93   46  125 1    
    94   47   48 am   BACKBONE|DICT|INTERRES
    95   47  126 1    
    96   48   49 2    
    97   48   50 1    
    98   50   51 1    
    99   50   52 1    
   100   50  127 1    
   101   51  128 1    
   102   51  129 1    
   103   51  130 1    
   104   52   53 am   BACKBONE|DICT|INTERRES
   105   52  131 1    
   106   53   54 2    
   107   53   55 1    
   108   55   56 1    
   109   55   59 1    
   110   55  132 1    
   111   56   57 1    
   112   56  133 1    
   113   56  134 1    
   114   57   58 1    
   115   58  135 1    
   116   58  136 1    
   117   59   60 am   BACKBONE|DICT|INTERRES
   118   59  137 1    
   119   60   61 2    
   120   60   62 1    
   121   62   63 1    
   122   62   64 1    
   123   62  138 1    
   124   63  139 1    
   125   63  140 1    
   126   63  141 1    
   127   64   65 am   BACKBONE|DICT|INTERRES
   128   64  142 1    
   129   65   66 2    
   130   65   67 1    
   131   67   68 1    
   132   67   69 1    
   133   67  143 1    
   134   68  144 1    
   135   68  145 1    
   136   68  146 1    
   137   69   70 am   BACKBONE|DICT|INTERRES
   138   69  147 1    
   139   70   71 2    
   140   70   72 1    
   141   72   73 1    
   142   72   74 1    
   143   72  148 1    
   144   73  149 1    
   145   73  150 1    
   146   73  151 1    
   147   74   75 am   BACKBONE|DICT|INTERRES
   148   74  152 1    
   149   75   76 2    
   150   75   77 1    
   151   77   78 1    
   152   77   79 1    
   153   77  153 1    
   154   78  154 1    
   155   78  155 1    
   156   78  156 1    
   157   79   80 am   BACKBONE|DICT|INTERRES
   158   79  157 1    
   159   80   81 2    
@<TRIPOS>SUBSTRUCTURE
     1 UNK         1 GROUP             0       ****    0 ROOT    
