@<TRIPOS>MOLECULE
3R207
157   159    1
SMALL
USER_CHARGES


@<TRIPOS>ATOM
      1 CA        -49.0511  -24.9378    2.0228 C.3       0 UNK        -0.1975 
      2 C         -48.8588  -25.0865    3.5242 C.2       0 UNK         0.4852 
      3 O         -47.7936  -25.5251    3.9594 O.2       0 UNK        -0.5216 
      4 N         -49.8733  -24.7017    4.3150 N.am      1 UNK        -0.4461 
      5 CA        -49.9417  -24.8148    5.7827 C.3       1 UNK         0.0864 
      6 C6        -50.1953  -26.2704    6.2641 C.3       14 UNK        -0.0898 
      7 S7        -51.8067  -26.9091    5.7029 S.3       14 UNK        -0.2598 
      8 C8        -52.8841  -26.4049    7.0935 C.3       14 UNK         0.0286 
      9 C9        -52.8328  -27.2717    8.3563 C.ar      14 UNK        -0.0844 
     10 C10       -51.9574  -28.3561    8.5158 C.ar      14 UNK        -0.0881 
     11 C11       -51.9868  -29.1352    9.6773 C.ar      14 UNK        -0.0643 
     12 C12       -52.8923  -28.8238   10.6935 C.ar      14 UNK        -0.0930 
     13 C13       -53.7742  -27.7512   10.5486 C.ar      14 UNK        -0.0827 
     14 C14       -53.7321  -26.9760    9.3866 C.ar      14 UNK        -0.1249 
     15 C15       -54.7989  -27.4611   11.6315 C.3       14 UNK         0.0141 
     16 S16       -56.2864  -28.4766   11.3828 S.3       14 UNK        -0.2313 
     17 C17       -57.2896  -28.0552   12.8498 C.3       14 UNK        -0.0915 
     18 CA        -57.7694  -29.2894   13.6601 C.3       13 UNK         0.0968 
     19 C         -58.7707  -30.1754   12.8593 C.2       13 UNK         0.5732 
     20 N         -58.4529  -31.4264   12.5471 N.am      13 UNK        -0.7310 
     21 O         -59.8634  -29.7199   12.5287 O.2       13 UNK        -0.5035 
     22 N         -56.6417  -30.0003   14.2821 N.am      13 UNK        -0.4233 
     23 C         -56.7361  -30.8625   15.3011 C.2       13 UNK         0.4989 
     24 O         -57.8008  -31.1810   15.8317 O.2       13 UNK        -0.4996 
     25 CA        -55.4246  -31.4545   15.8502 C.3       12 UNK         0.0216 
     26 CB        -54.8687  -32.5554   14.9237 C.3       12 UNK        -0.1964 
     27 N         -54.4106  -30.4409   16.1813 N.am      12 UNK        -0.4276 
     28 C         -53.7368  -29.6368   15.3482 C.2       12 UNK         0.5020 
     29 O         -53.8183  -29.6924   14.1191 O.2       12 UNK        -0.5489 
     30 CA        -52.8178  -28.5933   16.0031 C.3       11 UNK         0.0294 
     31 CB        -51.3621  -29.0857   16.0034 C.3       11 UNK        -0.2019 
     32 N         -52.8957  -27.3037   15.3135 N.am      11 UNK        -0.4493 
     33 C         -53.9755  -26.5114   15.3027 C.2       11 UNK         0.4932 
     34 O         -55.0195  -26.7727   15.9045 O.2       11 UNK        -0.5029 
     35 CA        -53.8514  -25.2000   14.4995 C.3       10 UNK         0.0280 
     36 CB        -55.2176  -24.5372   14.2255 C.3       10 UNK        -0.1976 
     37 N         -52.9440  -24.2280   15.1227 N.am      10 UNK        -0.4242 
     38 C         -52.9688  -23.7624   16.3850 C.2       10 UNK         0.5072 
     39 O         -53.7995  -24.1023   17.2288 O.2       10 UNK        -0.5224 
     40 CA        -51.9161  -22.6993   16.7736 C.3       9 UNK         0.0343 
     41 CB        -51.4465  -22.8369   18.2385 C.3       9 UNK        -0.2003 
     42 N         -50.7726  -22.6201   15.8560 N.am      9 UNK        -0.4272 
     43 C         -49.8532  -23.5660   15.6192 C.2       9 UNK         0.4988 
     44 O         -49.7918  -24.6473   16.2067 O.2       9 UNK        -0.5108 
     45 CA        -48.8732  -23.2655   14.4748 C.3       8 UNK         0.0248 
     46 CB        -47.4129  -23.4482   14.9212 C.3       8 UNK        -0.2001 
     47 N         -49.1561  -24.1199   13.3191 N.am      8 UNK        -0.4140 
     48 C         -50.2874  -24.0729   12.5954 C.2       8 UNK         0.5028 
     49 O         -51.2067  -23.2843   12.8234 O.2       8 UNK        -0.5428 
     50 CA        -50.4440  -25.0734   11.4362 C.3       7 UNK         0.0264 
     51 CB        -50.0552  -24.4209   10.1037 C.3       7 UNK        -0.1988 
     52 N         -49.6735  -26.3036   11.6229 N.am      7 UNK        -0.4454 
     53 C         -49.9680  -27.2216   12.5545 C.2       7 UNK         0.5027 
     54 O         -50.9444  -27.1311   13.2989 O.2       7 UNK        -0.5083 
     55 CA        -49.0065  -28.4166   12.7289 C.3       6 UNK         0.0844 
     56 C56       -49.5951  -29.7288   12.1516 C.3       14 UNK        -0.0967 
     57 S57       -49.4014  -29.8923   10.3408 S.3       14 UNK        -0.2604 
     58 C58       -51.0769  -30.3466    9.8050 C.3       14 UNK         0.0134 
     59 N         -47.6427  -28.1675   12.2485 N.am      6 UNK        -0.4116 
     60 C         -46.7869  -27.2670   12.7489 C.2       5 UNK         0.5034 
     61 O         -47.0619  -26.5033   13.6722 O.2       5 UNK        -0.5045 
     62 CA        -45.3950  -27.1924   12.0983 C.3       5 UNK         0.0224 
     63 CB        -44.4025  -28.0945   12.8494 C.3       5 UNK        -0.1978 
     64 N         -45.3989  -27.5508   10.6752 N.am      5 UNK        -0.4737 
     65 C         -45.9329  -26.7866    9.7143 C.2       4 UNK         0.5027 
     66 O         -46.4863  -25.7084    9.9348 O.2       4 UNK        -0.5211 
     67 CA        -45.8743  -27.3479    8.2881 C.3       4 UNK         0.0297 
     68 CB        -47.1845  -28.0748    7.9478 C.3       4 UNK        -0.1993 
     69 N         -45.6758  -26.2643    7.3271 N.am      4 UNK        -0.4486 
     70 C         -44.5278  -26.0254    6.6765 C.2       3 UNK         0.4961 
     71 O         -43.5020  -26.6857    6.8500 O.2       3 UNK        -0.5105 
     72 CA        -44.4936  -24.8879    5.6370 C.3       3 UNK         0.0299 
     73 CB        -44.3513  -25.4623    4.2172 C.3       3 UNK        -0.1972 
     74 N         -45.6762  -24.0278    5.6833 N.am      3 UNK        -0.4305 
     75 C         -45.8095  -22.9729    6.5009 C.2       2 UNK         0.5006 
     76 O         -44.9151  -22.5753    7.2488 O.2       2 UNK        -0.5106 
     77 CA        -47.1593  -22.2247    6.4996 C.3       2 UNK         0.0296 
     78 CB        -47.0442  -20.9159    5.7004 C.3       2 UNK        -0.2002 
     79 N         -48.3001  -22.9946    5.9907 N.am      2 UNK        -0.4032 
     80 C         -48.7355  -24.1598    6.4927 C.2       1 UNK         0.5000 
     81 O         -48.1927  -24.7271    7.4395 O.2       1 UNK        -0.5238 
     82 H82       -50.0297  -24.5275    1.7744 H         1 UNK         0.0889 
     83 H83       -48.9571  -25.9086    1.5369 H         1 UNK         0.0889 
     84 H84       -48.2899  -24.2755    1.6112 H         1 UNK         0.0889 
     85 H85       -50.7126  -24.3436    3.8803 H         1 UNK         0.3028 
     86 H86       -50.7993  -24.2149    6.0908 H         1 UNK         0.0864 
     87 H87       -50.1670  -26.3428    7.3515 H         1 UNK         0.0720 
     88 H88       -49.4104  -26.9350    5.8994 H         1 UNK         0.0720 
     89 H89       -53.9108  -26.4045    6.7246 H         1 UNK         0.0814 
     90 H90       -52.6591  -25.3721    7.3629 H         1 UNK         0.0814 
     91 H91       -51.2569  -28.6188    7.7366 H         1 UNK         0.1469 
     92 H92       -52.9336  -29.4301   11.5885 H         1 UNK         0.1381 
     93 H93       -54.4241  -26.1525    9.2727 H         1 UNK         0.1206 
     94 H94       -55.0718  -26.4051   11.6251 H         1 UNK         0.0813 
     95 H95       -54.3693  -27.6693   12.6103 H         1 UNK         0.0813 
     96 H96       -58.1432  -27.4608   12.5195 H         1 UNK         0.0638 
     97 H97       -56.7135  -27.4021   13.5055 H         1 UNK         0.0638 
     98 H98       -58.3586  -28.8929   14.4891 H         1 UNK         0.0568 
     99 H99       -57.5569  -31.8033   12.8090 H         1 UNK         0.3450 
    100 H100      -59.1112  -31.9907   12.0341 H         1 UNK         0.3450 
    101 H101      -55.7137  -29.7978   13.9184 H         1 UNK         0.2987 
    102 H102      -55.6747  -31.9327   16.7988 H         1 UNK         0.0766 
    103 H103      -53.9710  -33.0091   15.3436 H         1 UNK         0.0798 
    104 H104      -54.6185  -32.1759   13.9327 H         1 UNK         0.0798 
    105 H105      -55.6008  -33.3524   14.7874 H         1 UNK         0.0798 
    106 H106      -54.2764  -30.2942   17.1728 H         1 UNK         0.3198 
    107 H107      -53.1317  -28.4347   17.0370 H         1 UNK         0.0843 
    108 H108      -51.0183  -29.3154   14.9947 H         1 UNK         0.0831 
    109 H109      -51.2578  -29.9953   16.5961 H         1 UNK         0.0831 
    110 H110      -50.6881  -28.3407   16.4270 H         1 UNK         0.0831 
    111 H111      -52.1152  -27.0784   14.6978 H         1 UNK         0.3133 
    112 H112      -53.4092  -25.4577   13.5357 H         1 UNK         0.0566 
    113 H113      -55.8908  -25.2203   13.7091 H         1 UNK         0.0814 
    114 H114      -55.7118  -24.2311   15.1484 H         1 UNK         0.0814 
    115 H115      -55.1090  -23.6541   13.5959 H         1 UNK         0.0814 
    116 H116      -52.2257  -23.8614   14.5055 H         1 UNK         0.3091 
    117 H117      -52.4275  -21.7395   16.6876 H         1 UNK         0.0702 
    118 H118      -50.7099  -22.0750   18.4932 H         1 UNK         0.0785 
    119 H119      -51.0015  -23.8133   18.4321 H         1 UNK         0.0785 
    120 H120      -52.2817  -22.7205   18.9303 H         1 UNK         0.0785 
    121 H121      -50.7460  -21.7899   15.2788 H         1 UNK         0.2998 
    122 H122      -48.9959  -22.2275   14.1580 H         1 UNK         0.0697 
    123 H123      -47.2263  -24.4539   15.2989 H         1 UNK         0.0825 
    124 H124      -47.1638  -22.7523   15.7232 H         1 UNK         0.0825 
    125 H125      -46.7180  -23.2631   14.1020 H         1 UNK         0.0825 
    126 H126      -48.4826  -24.8506   13.1257 H         1 UNK         0.3029 
    127 H127      -51.5015  -25.3438   11.3817 H         1 UNK         0.0897 
    128 H128      -48.9905  -24.1862   10.0621 H         1 UNK         0.0792 
    129 H129      -50.6039  -23.4917    9.9445 H         1 UNK         0.0792 
    130 H130      -50.2878  -25.0787    9.2682 H         1 UNK         0.0792 
    131 H131      -48.8531  -26.4293   11.0458 H         1 UNK         0.3086 
    132 H132      -48.9226  -28.5586   13.8086 H         1 UNK         0.0583 
    133 H133      -49.0842  -30.5783   12.6074 H         1 UNK         0.1020 
    134 H134      -50.6431  -29.8425   12.4363 H         1 UNK         0.1020 
    135 H135      -51.0069  -30.8466    8.8377 H         1 UNK         0.0694 
    136 H136      -51.4996  -31.0816   10.4920 H         1 UNK         0.0694 
    137 H137      -47.3431  -28.7368   11.4705 H         1 UNK         0.2989 
    138 H138      -45.0521  -26.1588   12.1885 H         1 UNK         0.1055 
    139 H139      -44.3631  -27.8332   13.9081 H         1 UNK         0.0806 
    140 H140      -43.3919  -27.9880   12.4547 H         1 UNK         0.0806 
    141 H141      -44.6806  -29.1472   12.7842 H         1 UNK         0.0806 
    142 H142      -44.9604  -28.4254   10.4215 H         1 UNK         0.3061 
    143 H143      -45.0581  -28.0703    8.2212 H         1 UNK         0.0734 
    144 H144      -47.2146  -28.3757    6.9005 H         1 UNK         0.0832 
    145 H145      -47.2879  -28.9802    8.5447 H         1 UNK         0.0832 
    146 H146      -48.0577  -27.4506    8.1423 H         1 UNK         0.0832 
    147 H147      -46.4599  -25.6233    7.2289 H         1 UNK         0.3156 
    148 H148      -43.6049  -24.2869    5.8413 H         1 UNK         0.0589 
    149 H149      -45.1822  -26.1212    3.9628 H         1 UNK         0.0808 
    150 H150      -44.3086  -24.6705    3.4692 H         1 UNK         0.0808 
    151 H151      -43.4346  -26.0460    4.1223 H         1 UNK         0.0808 
    152 H152      -46.4656  -24.3216    5.1171 H         1 UNK         0.3098 
    153 H153      -47.3805  -21.9721    7.5387 H         1 UNK         0.0720 
    154 H154      -47.9537  -20.3199    5.7786 H         1 UNK         0.0791 
    155 H155      -46.8540  -21.1050    4.6430 H         1 UNK         0.0791 
    156 H156      -46.2244  -20.3002    6.0735 H         1 UNK         0.0791 
    157 H157      -48.7852  -22.6107    5.1926 H         1 UNK         0.3028 
@<TRIPOS>BOND
     1    1    2 1    
     2    1   82 1    
     3    1   83 1    
     4    1   84 1    
     5    2    3 2    
     6    2    4 am   BACKBONE|DICT|INTERRES
     7    4    5 1    
     8    4   85 1    
     9    5    6 1    
    10    5   80 1    
    11    5   86 1    
    12    6    7 1    
    13    6   87 1    
    14    6   88 1    
    15    7    8 1    
    16    8    9 1    
    17    8   89 1    
    18    8   90 1    
    19    9   10 ar   
    20    9   14 ar   
    21   10   11 ar   
    22   10   91 1    
    23   11   12 ar   
    24   11   58 1    
    25   12   13 ar   
    26   12   92 1    
    27   13   14 ar   
    28   13   15 1    
    29   14   93 1    
    30   15   16 1    
    31   15   94 1    
    32   15   95 1    
    33   16   17 1    
    34   17   18 1    
    35   17   96 1    
    36   17   97 1    
    37   18   19 1    
    38   18   22 1    
    39   18   98 1    
    40   19   20 am   BACKBONE|DICT|INTERRES
    41   19   21 2    
    42   20   99 1    
    43   20  100 1    
    44   22   23 am   BACKBONE|DICT|INTERRES
    45   22  101 1    
    46   23   24 2    
    47   23   25 1    
    48   25   26 1    
    49   25   27 1    
    50   25  102 1    
    51   26  103 1    
    52   26  104 1    
    53   26  105 1    
    54   27   28 am   BACKBONE|DICT|INTERRES
    55   27  106 1    
    56   28   29 2    
    57   28   30 1    
    58   30   31 1    
    59   30   32 1    
    60   30  107 1    
    61   31  108 1    
    62   31  109 1    
    63   31  110 1    
    64   32   33 am   BACKBONE|DICT|INTERRES
    65   32  111 1    
    66   33   34 2    
    67   33   35 1    
    68   35   36 1    
    69   35   37 1    
    70   35  112 1    
    71   36  113 1    
    72   36  114 1    
    73   36  115 1    
    74   37   38 am   BACKBONE|DICT|INTERRES
    75   37  116 1    
    76   38   39 2    
    77   38   40 1    
    78   40   41 1    
    79   40   42 1    
    80   40  117 1    
    81   41  118 1    
    82   41  119 1    
    83   41  120 1    
    84   42   43 am   BACKBONE|DICT|INTERRES
    85   42  121 1    
    86   43   44 2    
    87   43   45 1    
    88   45   46 1    
    89   45   47 1    
    90   45  122 1    
    91   46  123 1    
    92   46  124 1    
    93   46  125 1    
    94   47   48 am   BACKBONE|DICT|INTERRES
    95   47  126 1    
    96   48   49 2    
    97   48   50 1    
    98   50   51 1    
    99   50   52 1    
   100   50  127 1    
   101   51  128 1    
   102   51  129 1    
   103   51  130 1    
   104   52   53 am   BACKBONE|DICT|INTERRES
   105   52  131 1    
   106   53   54 2    
   107   53   55 1    
   108   55   56 1    
   109   55   59 1    
   110   55  132 1    
   111   56   57 1    
   112   56  133 1    
   113   56  134 1    
   114   57   58 1    
   115   58  135 1    
   116   58  136 1    
   117   59   60 am   BACKBONE|DICT|INTERRES
   118   59  137 1    
   119   60   61 2    
   120   60   62 1    
   121   62   63 1    
   122   62   64 1    
   123   62  138 1    
   124   63  139 1    
   125   63  140 1    
   126   63  141 1    
   127   64   65 am   BACKBONE|DICT|INTERRES
   128   64  142 1    
   129   65   66 2    
   130   65   67 1    
   131   67   68 1    
   132   67   69 1    
   133   67  143 1    
   134   68  144 1    
   135   68  145 1    
   136   68  146 1    
   137   69   70 am   BACKBONE|DICT|INTERRES
   138   69  147 1    
   139   70   71 2    
   140   70   72 1    
   141   72   73 1    
   142   72   74 1    
   143   72  148 1    
   144   73  149 1    
   145   73  150 1    
   146   73  151 1    
   147   74   75 am   BACKBONE|DICT|INTERRES
   148   74  152 1    
   149   75   76 2    
   150   75   77 1    
   151   77   78 1    
   152   77   79 1    
   153   77  153 1    
   154   78  154 1    
   155   78  155 1    
   156   78  156 1    
   157   79   80 am   BACKBONE|DICT|INTERRES
   158   79  157 1    
   159   80   81 2    
@<TRIPOS>SUBSTRUCTURE
     1 UNK         1 GROUP             0       ****    0 ROOT    
