@<TRIPOS>MOLECULE
3R207
157   159    1
SMALL
USER_CHARGES


@<TRIPOS>ATOM
      1 CA        -48.7681  -33.3051    6.0811 C.3       0 UNK        -0.1975 
      2 C         -48.1932  -32.1725    5.2434 C.2       0 UNK         0.4852 
      3 O         -47.0121  -32.2042    4.8973 O.2       0 UNK        -0.5216 
      4 N         -49.0192  -31.1675    4.9207 N.am      1 UNK        -0.4461 
      5 CA        -48.6454  -29.9882    4.1272 C.3       1 UNK         0.0864 
      6 C6        -49.8972  -29.3016    3.5111 C.3       14 UNK        -0.0898 
      7 S7        -50.9128  -28.3400    4.6902 S.3       14 UNK        -0.2598 
      8 C8        -52.1664  -29.5458    5.2162 C.3       14 UNK         0.0286 
      9 C9        -52.5276  -29.3118    6.6736 C.ar      14 UNK        -0.0844 
     10 C10       -51.7538  -29.8857    7.6887 C.ar      14 UNK        -0.0881 
     11 C11       -52.0578  -29.6488    9.0320 C.ar      14 UNK        -0.0643 
     12 C12       -53.1490  -28.8379    9.3540 C.ar      14 UNK        -0.0930 
     13 C13       -53.9308  -28.2617    8.3505 C.ar      14 UNK        -0.0827 
     14 C14       -53.6174  -28.5024    7.0098 C.ar      14 UNK        -0.1249 
     15 C15       -55.1054  -27.3749    8.7274 C.3       14 UNK         0.0141 
     16 S16       -54.5455  -25.6918    9.1228 S.3       14 UNK        -0.2313 
     17 C17       -56.0485  -24.9999    9.8863 C.3       14 UNK        -0.0915 
     18 CA        -55.9402  -24.8795   11.4319 C.3       13 UNK         0.0968 
     19 C         -57.0665  -23.9768   11.9966 C.2       13 UNK         0.5732 
     20 N         -56.9126  -22.6631   11.9047 N.am      13 UNK        -0.7310 
     21 O         -58.0868  -24.4519   12.4947 O.2       13 UNK        -0.5035 
     22 N         -55.9698  -26.1865   12.1043 N.am      13 UNK        -0.4233 
     23 C         -54.9041  -26.8385   12.5750 C.2       13 UNK         0.4989 
     24 O         -53.7387  -26.4796   12.3989 O.2       13 UNK        -0.4996 
     25 CA        -55.1781  -28.1106   13.3865 C.3       12 UNK         0.0216 
     26 CB        -55.5056  -29.3049   12.4657 C.3       12 UNK        -0.1964 
     27 N         -53.9923  -28.3739   14.1981 N.am      12 UNK        -0.4276 
     28 C         -53.8342  -29.3184   15.1315 C.2       12 UNK         0.5020 
     29 O         -54.6958  -30.1421   15.4408 O.2       12 UNK        -0.5489 
     30 CA        -52.4831  -29.3219   15.8615 C.3       11 UNK         0.0294 
     31 CB        -51.3713  -29.8934   14.9642 C.3       11 UNK        -0.2019 
     32 N         -52.1162  -27.9749   16.2989 N.am      11 UNK        -0.4493 
     33 C         -52.6061  -27.3678   17.3885 C.2       11 UNK         0.4932 
     34 O         -53.3910  -27.9045   18.1725 O.2       11 UNK        -0.5029 
     35 CA        -52.1433  -25.9173   17.6356 C.3       10 UNK         0.0280 
     36 CB        -52.3778  -25.4423   19.0853 C.3       10 UNK        -0.1976 
     37 N         -50.7566  -25.6781   17.2200 N.am      10 UNK        -0.4242 
     38 C         -49.6435  -26.2609   17.6938 C.2       10 UNK         0.5072 
     39 O         -49.6322  -27.0592   18.6320 O.2       10 UNK        -0.5224 
     40 CA        -48.3105  -25.9273   16.9937 C.3       9 UNK         0.0343 
     41 CB        -47.8072  -27.1497   16.2072 C.3       9 UNK        -0.2003 
     42 N         -48.3879  -24.7808   16.0839 N.am      9 UNK        -0.4272 
     43 C         -48.4721  -23.4988   16.4669 C.2       9 UNK         0.4988 
     44 O         -48.4102  -23.1281   17.6395 O.2       9 UNK        -0.5108 
     45 CA        -48.7077  -22.4585   15.3568 C.3       8 UNK         0.0248 
     46 CB        -47.3784  -22.0503   14.7024 C.3       8 UNK        -0.2001 
     47 N         -49.6420  -22.9224   14.3256 N.am      8 UNK        -0.4140 
     48 C         -50.9271  -23.2421   14.5405 C.2       8 UNK         0.5028 
     49 O         -51.4882  -23.1319   15.6299 O.2       8 UNK        -0.5428 
     50 CA        -51.7004  -23.8497   13.3613 C.3       7 UNK         0.0264 
     51 CB        -52.1983  -22.7656   12.3921 C.3       7 UNK        -0.1988 
     52 N         -50.9001  -24.8412   12.6419 N.am      7 UNK        -0.4454 
     53 C         -50.5910  -26.0514   13.1311 C.2       7 UNK         0.5027 
     54 O         -50.9582  -26.4584   14.2346 O.2       7 UNK        -0.5083 
     55 CA        -49.7185  -26.9674   12.2490 C.3       6 UNK         0.0844 
     56 C56       -50.6253  -27.7650   11.2838 C.3       14 UNK        -0.0967 
     57 S57       -49.7851  -29.2088   10.5609 S.3       14 UNK        -0.2604 
     58 C58       -51.2070  -30.2634   10.1349 C.3       14 UNK         0.0134 
     59 N         -48.6538  -26.2298   11.5535 N.am      6 UNK        -0.4116 
     60 C         -47.6955  -25.5239   12.1755 C.2       5 UNK         0.5034 
     61 O         -47.5590  -25.4847   13.3979 O.2       5 UNK        -0.5045 
     62 CA        -46.7830  -24.6473   11.3027 C.3       5 UNK         0.0224 
     63 CB        -45.6500  -25.4687   10.6713 C.3       5 UNK        -0.1978 
     64 N         -47.5181  -23.9233   10.2628 N.am      5 UNK        -0.4737 
     65 C         -48.4627  -23.0015   10.4891 C.2       4 UNK         0.5027 
     66 O         -48.7921  -22.6429   11.6185 O.2       4 UNK        -0.5211 
     67 CA        -49.2054  -22.4072    9.2768 C.3       4 UNK         0.0297 
     68 CB        -48.4940  -21.1451    8.7523 C.3       4 UNK        -0.1993 
     69 N         -49.4820  -23.3756    8.2037 N.am      4 UNK        -0.4486 
     70 C         -48.6124  -23.9891    7.3907 C.2       3 UNK         0.4961 
     71 O         -47.4019  -23.7548    7.3627 O.2       3 UNK        -0.5105 
     72 CA        -49.1931  -25.0875    6.4868 C.3       3 UNK         0.0299 
     73 CB        -49.4204  -24.5559    5.0632 C.3       3 UNK        -0.1972 
     74 N         -48.3219  -26.2624    6.4301 N.am      3 UNK        -0.4305 
     75 C         -47.9302  -27.0026    7.4771 C.2       2 UNK         0.5006 
     76 O         -48.2797  -26.7860    8.6405 O.2       2 UNK        -0.5106 
     77 CA        -47.0099  -28.1941    7.1450 C.3       2 UNK         0.0296 
     78 CB        -46.5545  -28.9781    8.3894 C.3       2 UNK        -0.2002 
     79 N         -47.6782  -29.1180    6.2286 N.am      2 UNK        -0.4032 
     80 C         -47.7479  -28.9874    4.8957 C.2       1 UNK         0.5000 
     81 O         -47.1747  -28.0883    4.2763 O.2       1 UNK        -0.5238 
     82 H82       -48.2242  -33.3893    7.0216 H         1 UNK         0.0889 
     83 H83       -48.6738  -34.2505    5.5475 H         1 UNK         0.0889 
     84 H84       -49.8221  -33.1503    6.3115 H         1 UNK         0.0889 
     85 H85       -49.9825  -31.2057    5.2163 H         1 UNK         0.3028 
     86 H86       -48.0395  -30.3478    3.2923 H         1 UNK         0.0864 
     87 H87       -49.5779  -28.6109    2.7285 H         1 UNK         0.0720 
     88 H88       -50.5244  -30.0364    3.0036 H         1 UNK         0.0720 
     89 H89       -51.8050  -30.5656    5.0853 H         1 UNK         0.0814 
     90 H90       -53.0472  -29.4503    4.5793 H         1 UNK         0.0814 
     91 H91       -50.9033  -30.5028    7.4373 H         1 UNK         0.1469 
     92 H92       -53.3788  -28.6308   10.3882 H         1 UNK         0.1381 
     93 H93       -54.2116  -28.0480    6.2285 H         1 UNK         0.1206 
     94 H94       -55.6226  -27.8012    9.5877 H         1 UNK         0.0813 
     95 H95       -55.8339  -27.3338    7.9163 H         1 UNK         0.0813 
     96 H96       -56.9204  -25.5925    9.6039 H         1 UNK         0.0638 
     97 H97       -56.1965  -24.0167    9.4357 H         1 UNK         0.0638 
     98 H98       -55.0007  -24.3795   11.6763 H         1 UNK         0.0568 
     99 H99       -57.6395  -22.0608   12.2581 H         1 UNK         0.3450 
    100 H100      -56.0884  -22.2606   11.4871 H         1 UNK         0.3450 
    101 H101      -56.8983  -26.5155   12.3319 H         1 UNK         0.2987 
    102 H102      -56.0203  -27.9188   14.0542 H         1 UNK         0.0766 
    103 H103      -55.8952  -30.1478   13.0362 H         1 UNK         0.0798 
    104 H104      -54.6267  -29.6559   11.9272 H         1 UNK         0.0798 
    105 H105      -56.2662  -29.0464   11.7281 H         1 UNK         0.0798 
    106 H106      -53.2364  -27.7209   14.0183 H         1 UNK         0.3198 
    107 H107      -52.5738  -29.9656   16.7395 H         1 UNK         0.0843 
    108 H108      -51.2168  -29.2917   14.0684 H         1 UNK         0.0831 
    109 H109      -51.6163  -30.9052   14.6384 H         1 UNK         0.0831 
    110 H110      -50.4219  -29.9455   15.4974 H         1 UNK         0.0831 
    111 H111      -51.5268  -27.4308   15.6702 H         1 UNK         0.3133 
    112 H112      -52.7586  -25.2946   16.9848 H         1 UNK         0.0566 
    113 H113      -52.0527  -24.4108   19.2208 H         1 UNK         0.0814 
    114 H114      -53.4365  -25.4837   19.3439 H         1 UNK         0.0814 
    115 H115      -51.8435  -26.0610   19.8068 H         1 UNK         0.0814 
    116 H116      -50.6534  -25.0313   16.4476 H         1 UNK         0.3091 
    117 H117      -47.5812  -25.6977   17.7732 H         1 UNK         0.0702 
    118 H118      -46.8359  -26.9562   15.7517 H         1 UNK         0.0785 
    119 H119      -48.5001  -27.4284   15.4123 H         1 UNK         0.0785 
    120 H120      -47.6922  -28.0168   16.8589 H         1 UNK         0.0785 
    121 H121      -48.3587  -24.9909   15.0894 H         1 UNK         0.2998 
    122 H122      -49.1459  -21.5726   15.8208 H         1 UNK         0.0697 
    123 H123      -46.8937  -22.8951   14.2124 H         1 UNK         0.0825 
    124 H124      -46.6815  -21.6593   15.4448 H         1 UNK         0.0825 
    125 H125      -47.5272  -21.2714   13.9541 H         1 UNK         0.0825 
    126 H126      -49.2789  -22.9905   13.3764 H         1 UNK         0.3029 
    127 H127      -52.5767  -24.3599   13.7682 H         1 UNK         0.0897 
    128 H128      -52.7589  -23.2020   11.5651 H         1 UNK         0.0792 
    129 H129      -52.8636  -22.0683   12.9027 H         1 UNK         0.0792 
    130 H130      -51.3790  -22.1822   11.9725 H         1 UNK         0.0792 
    131 H131      -50.5348  -24.5712   11.7414 H         1 UNK         0.3086 
    132 H132      -49.2310  -27.6753   12.9228 H         1 UNK         0.0583 
    133 H133      -51.5100  -28.1299   11.8096 H         1 UNK         0.1020 
    134 H134      -50.9938  -27.1269   10.4777 H         1 UNK         0.1020 
    135 H135      -50.8369  -31.2387    9.8154 H         1 UNK         0.0694 
    136 H136      -51.8092  -30.4453   11.0266 H         1 UNK         0.0694 
    137 H137      -48.6493  -26.2773   10.5378 H         1 UNK         0.2989 
    138 H138      -46.3297  -23.9023   11.9600 H         1 UNK         0.1055 
    139 H139      -45.1001  -26.0267   11.4305 H         1 UNK         0.0806 
    140 H140      -44.9340  -24.8259   10.1590 H         1 UNK         0.0806 
    141 H141      -46.0296  -26.1870    9.9471 H         1 UNK         0.0806 
    142 H142      -47.3043  -24.1452    9.2950 H         1 UNK         0.3061 
    143 H143      -50.1851  -22.0945    9.6419 H         1 UNK         0.0734 
    144 H144      -49.0410  -20.6958    7.9235 H         1 UNK         0.0832 
    145 H145      -48.4180  -20.3914    9.5373 H         1 UNK         0.0832 
    146 H146      -47.4799  -21.3553    8.4117 H         1 UNK         0.0832 
    147 H147      -50.4487  -23.6657    8.1413 H         1 UNK         0.3156 
    148 H148      -50.1519  -25.4159    6.8937 H         1 UNK         0.0589 
    149 H149      -48.4858  -24.2397    4.5978 H         1 UNK         0.0808 
    150 H150      -50.0899  -23.6947    5.0694 H         1 UNK         0.0808 
    151 H151      -49.8746  -25.3135    4.4242 H         1 UNK         0.0808 
    152 H152      -47.9749  -26.5296    5.5166 H         1 UNK         0.3098 
    153 H153      -46.1167  -27.7903    6.6636 H         1 UNK         0.0720 
    154 H154      -46.0317  -28.3331    9.0946 H         1 UNK         0.0791 
    155 H155      -45.8680  -29.7809    8.1200 H         1 UNK         0.0791 
    156 H156      -47.3967  -29.4243    8.9167 H         1 UNK         0.0791 
    157 H157      -48.2122  -29.8603    6.6543 H         1 UNK         0.3028 
@<TRIPOS>BOND
     1    1    2 1    
     2    1   82 1    
     3    1   83 1    
     4    1   84 1    
     5    2    3 2    
     6    2    4 am   BACKBONE|DICT|INTERRES
     7    4    5 1    
     8    4   85 1    
     9    5    6 1    
    10    5   80 1    
    11    5   86 1    
    12    6    7 1    
    13    6   87 1    
    14    6   88 1    
    15    7    8 1    
    16    8    9 1    
    17    8   89 1    
    18    8   90 1    
    19    9   10 ar   
    20    9   14 ar   
    21   10   11 ar   
    22   10   91 1    
    23   11   12 ar   
    24   11   58 1    
    25   12   13 ar   
    26   12   92 1    
    27   13   14 ar   
    28   13   15 1    
    29   14   93 1    
    30   15   16 1    
    31   15   94 1    
    32   15   95 1    
    33   16   17 1    
    34   17   18 1    
    35   17   96 1    
    36   17   97 1    
    37   18   19 1    
    38   18   22 1    
    39   18   98 1    
    40   19   20 am   BACKBONE|DICT|INTERRES
    41   19   21 2    
    42   20   99 1    
    43   20  100 1    
    44   22   23 am   BACKBONE|DICT|INTERRES
    45   22  101 1    
    46   23   24 2    
    47   23   25 1    
    48   25   26 1    
    49   25   27 1    
    50   25  102 1    
    51   26  103 1    
    52   26  104 1    
    53   26  105 1    
    54   27   28 am   BACKBONE|DICT|INTERRES
    55   27  106 1    
    56   28   29 2    
    57   28   30 1    
    58   30   31 1    
    59   30   32 1    
    60   30  107 1    
    61   31  108 1    
    62   31  109 1    
    63   31  110 1    
    64   32   33 am   BACKBONE|DICT|INTERRES
    65   32  111 1    
    66   33   34 2    
    67   33   35 1    
    68   35   36 1    
    69   35   37 1    
    70   35  112 1    
    71   36  113 1    
    72   36  114 1    
    73   36  115 1    
    74   37   38 am   BACKBONE|DICT|INTERRES
    75   37  116 1    
    76   38   39 2    
    77   38   40 1    
    78   40   41 1    
    79   40   42 1    
    80   40  117 1    
    81   41  118 1    
    82   41  119 1    
    83   41  120 1    
    84   42   43 am   BACKBONE|DICT|INTERRES
    85   42  121 1    
    86   43   44 2    
    87   43   45 1    
    88   45   46 1    
    89   45   47 1    
    90   45  122 1    
    91   46  123 1    
    92   46  124 1    
    93   46  125 1    
    94   47   48 am   BACKBONE|DICT|INTERRES
    95   47  126 1    
    96   48   49 2    
    97   48   50 1    
    98   50   51 1    
    99   50   52 1    
   100   50  127 1    
   101   51  128 1    
   102   51  129 1    
   103   51  130 1    
   104   52   53 am   BACKBONE|DICT|INTERRES
   105   52  131 1    
   106   53   54 2    
   107   53   55 1    
   108   55   56 1    
   109   55   59 1    
   110   55  132 1    
   111   56   57 1    
   112   56  133 1    
   113   56  134 1    
   114   57   58 1    
   115   58  135 1    
   116   58  136 1    
   117   59   60 am   BACKBONE|DICT|INTERRES
   118   59  137 1    
   119   60   61 2    
   120   60   62 1    
   121   62   63 1    
   122   62   64 1    
   123   62  138 1    
   124   63  139 1    
   125   63  140 1    
   126   63  141 1    
   127   64   65 am   BACKBONE|DICT|INTERRES
   128   64  142 1    
   129   65   66 2    
   130   65   67 1    
   131   67   68 1    
   132   67   69 1    
   133   67  143 1    
   134   68  144 1    
   135   68  145 1    
   136   68  146 1    
   137   69   70 am   BACKBONE|DICT|INTERRES
   138   69  147 1    
   139   70   71 2    
   140   70   72 1    
   141   72   73 1    
   142   72   74 1    
   143   72  148 1    
   144   73  149 1    
   145   73  150 1    
   146   73  151 1    
   147   74   75 am   BACKBONE|DICT|INTERRES
   148   74  152 1    
   149   75   76 2    
   150   75   77 1    
   151   77   78 1    
   152   77   79 1    
   153   77  153 1    
   154   78  154 1    
   155   78  155 1    
   156   78  156 1    
   157   79   80 am   BACKBONE|DICT|INTERRES
   158   79  157 1    
   159   80   81 2    
@<TRIPOS>SUBSTRUCTURE
     1 UNK         1 GROUP             0       ****    0 ROOT    
