@<TRIPOS>MOLECULE
3R207
157   159    1
SMALL
USER_CHARGES


@<TRIPOS>ATOM
      1 CA        -45.3623  -28.1938    4.4942 C.3       0 UNK        -0.1975 
      2 C         -46.3288  -27.0376    4.2883 C.2       0 UNK         0.4852 
      3 O         -45.8932  -25.8982    4.1149 O.2       0 UNK        -0.5216 
      4 N         -47.6391  -27.3170    4.3103 N.am      1 UNK        -0.4461 
      5 CA        -48.7077  -26.3142    4.2521 C.3       1 UNK         0.0864 
      6 C6        -50.1061  -26.9551    4.0417 C.3       14 UNK        -0.0898 
      7 S7        -50.5309  -28.2708    5.2381 S.3       14 UNK        -0.2598 
      8 C8        -51.6576  -27.3729    6.3636 C.3       14 UNK         0.0286 
      9 C9        -51.9330  -28.0497    7.7090 C.ar      14 UNK        -0.0844 
     10 C10       -51.1824  -29.1330    8.1863 C.ar      14 UNK        -0.0881 
     11 C11       -51.4408  -29.6867    9.4431 C.ar      14 UNK        -0.0643 
     12 C12       -52.4545  -29.1445   10.2378 C.ar      14 UNK        -0.0930 
     13 C13       -53.2041  -28.0539    9.7860 C.ar      14 UNK        -0.0827 
     14 C14       -52.9441  -27.5222    8.5190 C.ar      14 UNK        -0.1249 
     15 C15       -54.2564  -27.4097   10.6810 C.3       14 UNK         0.0141 
     16 S16       -55.8079  -28.3623   10.7231 S.3       14 UNK        -0.2313 
     17 C17       -55.4722  -29.5486   12.0684 C.3       14 UNK        -0.0915 
     18 CA        -56.6665  -29.7240   13.0442 C.3       13 UNK         0.0968 
     19 C         -56.3152  -30.7750   14.1287 C.2       13 UNK         0.5732 
     20 N         -55.6621  -30.3797   15.2148 N.am      13 UNK        -0.7310 
     21 O         -56.6364  -31.9515   13.9825 O.2       13 UNK        -0.5035 
     22 N         -57.1074  -28.4525   13.6385 N.am      13 UNK        -0.4233 
     23 C         -58.3457  -28.2219   14.0962 C.2       13 UNK         0.4989 
     24 O         -59.2742  -29.0247   13.9801 O.2       13 UNK        -0.4996 
     25 CA        -58.5905  -26.8613   14.7868 C.3       12 UNK         0.0216 
     26 CB        -59.9428  -26.7921   15.5295 C.3       12 UNK        -0.1964 
     27 N         -57.4865  -26.4547   15.6665 N.am      12 UNK        -0.4276 
     28 C         -57.0144  -27.1075   16.7411 C.2       12 UNK         0.5020 
     29 O         -57.5434  -28.1106   17.2224 O.2       12 UNK        -0.5489 
     30 CA        -55.7091  -26.5559   17.3628 C.3       11 UNK         0.0294 
     31 CB        -54.9318  -27.6355   18.1460 C.3       11 UNK        -0.2019 
     32 N         -54.8117  -25.8955   16.3985 N.am      11 UNK        -0.4493 
     33 C         -54.3418  -26.4133   15.2520 C.2       11 UNK         0.4932 
     34 O         -54.6303  -27.5337   14.8298 O.2       11 UNK        -0.5029 
     35 CA        -53.4398  -25.4999   14.4098 C.3       10 UNK         0.0280 
     36 CB        -54.2583  -24.3570   13.7851 C.3       10 UNK        -0.1976 
     37 N         -52.2755  -24.9538   15.1159 N.am      10 UNK        -0.4242 
     38 C         -51.3509  -25.6560   15.7906 C.2       10 UNK         0.5072 
     39 O         -51.4170  -26.8651   16.0173 O.2       10 UNK        -0.5224 
     40 CA        -50.1119  -24.8640   16.2409 C.3       9 UNK         0.0343 
     41 CB        -49.1834  -25.6784   17.1614 C.3       9 UNK        -0.2003 
     42 N         -49.3607  -24.4533   15.0552 N.am      9 UNK        -0.4272 
     43 C         -49.4688  -23.2617   14.4536 C.2       9 UNK         0.4988 
     44 O         -50.1518  -22.3345   14.8903 O.2       9 UNK        -0.5108 
     45 CA        -48.7341  -23.0956   13.1124 C.3       8 UNK         0.0248 
     46 CB        -47.2116  -23.0198   13.3133 C.3       8 UNK        -0.2001 
     47 N         -49.0565  -24.1697   12.1711 N.am      8 UNK        -0.4140 
     48 C         -50.2752  -24.4015   11.6586 C.2       8 UNK         0.5028 
     49 O         -51.2546  -23.6834   11.8590 O.2       8 UNK        -0.5428 
     50 CA        -50.4323  -25.6546   10.7881 C.3       7 UNK         0.0264 
     51 CB        -50.0058  -25.3703    9.3414 C.3       7 UNK        -0.1988 
     52 N         -49.6527  -26.7678   11.3303 N.am      7 UNK        -0.4454 
     53 C         -50.0973  -27.5857   12.2966 C.2       7 UNK         0.5027 
     54 O         -51.2380  -27.5417   12.7486 O.2       7 UNK        -0.5083 
     55 CA        -49.1249  -28.6324   12.8781 C.3       6 UNK         0.0844 
     56 C56       -49.4512  -30.0626   12.3813 C.3       14 UNK        -0.0967 
     57 S57       -49.0208  -30.3743   10.6311 S.3       14 UNK        -0.2604 
     58 C58       -50.6238  -30.8774    9.9240 C.3       14 UNK         0.0134 
     59 N         -47.7161  -28.2852   12.6867 N.am      6 UNK        -0.4116 
     60 C         -47.0836  -27.2818   13.3092 C.2       5 UNK         0.5034 
     61 O         -47.6053  -26.5574   14.1565 O.2       5 UNK        -0.5045 
     62 CA        -45.6413  -26.9990   12.8558 C.3       5 UNK         0.0224 
     63 CB        -44.6476  -27.8835   13.6250 C.3       5 UNK        -0.1978 
     64 N         -45.4452  -27.1737   11.4104 N.am      5 UNK        -0.4737 
     65 C         -46.0934  -26.4692   10.4735 C.2       4 UNK         0.5027 
     66 O         -46.9435  -25.6160   10.7359 O.2       4 UNK        -0.5211 
     67 CA        -45.7958  -26.8310    9.0103 C.3       4 UNK         0.0297 
     68 CB        -46.7947  -27.8902    8.5152 C.3       4 UNK        -0.1993 
     69 N         -45.8578  -25.6545    8.1394 N.am      4 UNK        -0.4486 
     70 C         -44.9451  -24.6693    8.1481 C.2       3 UNK         0.4961 
     71 O         -43.9437  -24.6858    8.8663 O.2       3 UNK        -0.5105 
     72 CA        -45.1343  -23.4750    7.1914 C.3       3 UNK         0.0299 
     73 CB        -44.0570  -23.4891    6.0936 C.3       3 UNK        -0.1972 
     74 N         -46.4523  -23.4327    6.5586 N.am      3 UNK        -0.4305 
     75 C         -47.5602  -22.9394    7.1306 C.2       2 UNK         0.5006 
     76 O         -47.5725  -22.3970    8.2358 O.2       2 UNK        -0.5106 
     77 CA        -48.8859  -23.0679    6.3488 C.3       2 UNK         0.0296 
     78 CB        -49.2767  -21.7143    5.7326 C.3       2 UNK        -0.2002 
     79 N         -48.8978  -24.0937    5.2963 N.am      2 UNK        -0.4032 
     80 C         -48.6640  -25.3985    5.4932 C.2       1 UNK         0.5000 
     81 O         -48.3899  -25.8769    6.5951 O.2       1 UNK        -0.5238 
     82 H82       -44.7048  -28.2918    3.6309 H         1 UNK         0.0889 
     83 H83       -45.8837  -29.1404    4.6345 H         1 UNK         0.0889 
     84 H84       -44.7464  -28.0118    5.3746 H         1 UNK         0.0889 
     85 H85       -47.9501  -28.2598    4.4961 H         1 UNK         0.3028 
     86 H86       -48.5030  -25.6901    3.3794 H         1 UNK         0.0864 
     87 H87       -50.1418  -27.4045    3.0481 H         1 UNK         0.0720 
     88 H88       -50.8868  -26.1918    4.0375 H         1 UNK         0.0720 
     89 H89       -52.6020  -27.2106    5.8420 H         1 UNK         0.0814 
     90 H90       -51.2425  -26.3856    6.5674 H         1 UNK         0.0814 
     91 H91       -50.3803  -29.5507    7.5957 H         1 UNK         0.1469 
     92 H92       -52.6434  -29.5540   11.2198 H         1 UNK         0.1381 
     93 H93       -53.5151  -26.6721    8.1710 H         1 UNK         0.1206 
     94 H94       -54.4827  -26.4035   10.3255 H         1 UNK         0.0813 
     95 H95       -53.8600  -27.2821   11.6887 H         1 UNK         0.0813 
     96 H96       -54.5862  -29.2326   12.6213 H         1 UNK         0.0638 
     97 H97       -55.2156  -30.5036   11.6065 H         1 UNK         0.0638 
     98 H98       -57.4954  -30.1317   12.4623 H         1 UNK         0.0568 
     99 H99       -55.3633  -29.4158   15.2986 H         1 UNK         0.3450 
    100 H100      -55.4338  -31.0493   15.9309 H         1 UNK         0.3450 
    101 H101      -56.3659  -27.7967   13.8525 H         1 UNK         0.2987 
    102 H102      -58.6242  -26.1243   13.9831 H         1 UNK         0.0766 
    103 H103      -60.0954  -25.8143   15.9861 H         1 UNK         0.0798 
    104 H104      -60.0132  -27.5441   16.3159 H         1 UNK         0.0798 
    105 H105      -60.7745  -26.9613   14.8445 H         1 UNK         0.0798 
    106 H106      -56.9755  -25.6345   15.3718 H         1 UNK         0.3198 
    107 H107      -56.0178  -25.7881   18.0742 H         1 UNK         0.0843 
    108 H108      -54.6320  -28.4626   17.5014 H         1 UNK         0.0831 
    109 H109      -55.5378  -28.0526   18.9515 H         1 UNK         0.0831 
    110 H110      -54.0307  -27.2241   18.6007 H         1 UNK         0.0831 
    111 H111      -54.5209  -24.9581   16.6418 H         1 UNK         0.3133 
    112 H112      -53.0570  -26.1015   13.5884 H         1 UNK         0.0566 
    113 H113      -53.6645  -23.7930   13.0656 H         1 UNK         0.0814 
    114 H114      -55.1243  -24.7448   13.2464 H         1 UNK         0.0814 
    115 H115      -54.6244  -23.6558   14.5362 H         1 UNK         0.0814 
    116 H116      -52.0906  -23.9702   14.9703 H         1 UNK         0.3091 
    117 H117      -50.4553  -23.9919   16.8012 H         1 UNK         0.0702 
    118 H118      -48.3266  -25.0859   17.4818 H         1 UNK         0.0785 
    119 H119      -48.8031  -26.5724   16.6652 H         1 UNK         0.0785 
    120 H120      -49.7104  -26.0015   18.0600 H         1 UNK         0.0785 
    121 H121      -48.7834  -25.1732   14.6249 H         1 UNK         0.2998 
    122 H122      -49.0636  -22.1557   12.6648 H         1 UNK         0.0697 
    123 H123      -46.8122  -23.9339   13.7528 H         1 UNK         0.0825 
    124 H124      -46.9473  -22.1961   13.9777 H         1 UNK         0.0825 
    125 H125      -46.6960  -22.8527   12.3672 H         1 UNK         0.0825 
    126 H126      -48.2911  -24.7681   11.8733 H         1 UNK         0.3029 
    127 H127      -51.4888  -25.9304   10.7774 H         1 UNK         0.0897 
    128 H128      -49.0026  -24.9483    9.2791 H         1 UNK         0.0792 
    129 H129      -50.6874  -24.6609    8.8721 H         1 UNK         0.0792 
    130 H130      -50.0177  -26.2789    8.7417 H         1 UNK         0.0792 
    131 H131      -48.6894  -26.8312   11.0283 H         1 UNK         0.3086 
    132 H132      -49.3028  -28.6286   13.9563 H         1 UNK         0.0583 
    133 H133      -48.9001  -30.7844   12.9860 H         1 UNK         0.1020 
    134 H134      -50.5039  -30.2906   12.5587 H         1 UNK         0.1020 
    135 H135      -50.4326  -31.5425    9.0805 H         1 UNK         0.0694 
    136 H136      -51.1876  -31.4701   10.6458 H         1 UNK         0.0694 
    137 H137      -47.2171  -28.8191   11.9903 H         1 UNK         0.2989 
    138 H138      -45.4256  -25.9552   13.0941 H         1 UNK         0.1055 
    139 H139      -44.7666  -27.7569   14.7022 H         1 UNK         0.0806 
    140 H140      -43.6164  -27.6247   13.3835 H         1 UNK         0.0806 
    141 H141      -44.7896  -28.9422   13.4038 H         1 UNK         0.0806 
    142 H142      -44.7658  -27.8639   11.1217 H         1 UNK         0.3061 
    143 H143      -44.7885  -27.2478    8.9449 H         1 UNK         0.0734 
    144 H144      -47.8271  -27.5523    8.6153 H         1 UNK         0.0832 
    145 H145      -46.6283  -28.1375    7.4669 H         1 UNK         0.0832 
    146 H146      -46.7009  -28.8153    9.0849 H         1 UNK         0.0832 
    147 H147      -46.6895  -25.5659    7.5620 H         1 UNK         0.3156 
    148 H148      -44.9992  -22.5652    7.7802 H         1 UNK         0.0589 
    149 H149      -44.1138  -24.3909    5.4832 H         1 UNK         0.0808 
    150 H150      -44.1512  -22.6280    5.4318 H         1 UNK         0.0808 
    151 H151      -43.0566  -23.4539    6.5272 H         1 UNK         0.0808 
    152 H152      -46.5313  -23.8813    5.6558 H         1 UNK         0.3098 
    153 H153      -49.6535  -23.3430    7.0741 H         1 UNK         0.0720 
    154 H154      -50.2637  -21.7565    5.2716 H         1 UNK         0.0791 
    155 H155      -48.5620  -21.3958    4.9727 H         1 UNK         0.0791 
    156 H156      -49.3119  -20.9335    6.4939 H         1 UNK         0.0791 
    157 H157      -49.1013  -23.7711    4.3609 H         1 UNK         0.3028 
@<TRIPOS>BOND
     1    1    2 1    
     2    1   82 1    
     3    1   83 1    
     4    1   84 1    
     5    2    3 2    
     6    2    4 am   BACKBONE|DICT|INTERRES
     7    4    5 1    
     8    4   85 1    
     9    5    6 1    
    10    5   80 1    
    11    5   86 1    
    12    6    7 1    
    13    6   87 1    
    14    6   88 1    
    15    7    8 1    
    16    8    9 1    
    17    8   89 1    
    18    8   90 1    
    19    9   10 ar   
    20    9   14 ar   
    21   10   11 ar   
    22   10   91 1    
    23   11   12 ar   
    24   11   58 1    
    25   12   13 ar   
    26   12   92 1    
    27   13   14 ar   
    28   13   15 1    
    29   14   93 1    
    30   15   16 1    
    31   15   94 1    
    32   15   95 1    
    33   16   17 1    
    34   17   18 1    
    35   17   96 1    
    36   17   97 1    
    37   18   19 1    
    38   18   22 1    
    39   18   98 1    
    40   19   20 am   BACKBONE|DICT|INTERRES
    41   19   21 2    
    42   20   99 1    
    43   20  100 1    
    44   22   23 am   BACKBONE|DICT|INTERRES
    45   22  101 1    
    46   23   24 2    
    47   23   25 1    
    48   25   26 1    
    49   25   27 1    
    50   25  102 1    
    51   26  103 1    
    52   26  104 1    
    53   26  105 1    
    54   27   28 am   BACKBONE|DICT|INTERRES
    55   27  106 1    
    56   28   29 2    
    57   28   30 1    
    58   30   31 1    
    59   30   32 1    
    60   30  107 1    
    61   31  108 1    
    62   31  109 1    
    63   31  110 1    
    64   32   33 am   BACKBONE|DICT|INTERRES
    65   32  111 1    
    66   33   34 2    
    67   33   35 1    
    68   35   36 1    
    69   35   37 1    
    70   35  112 1    
    71   36  113 1    
    72   36  114 1    
    73   36  115 1    
    74   37   38 am   BACKBONE|DICT|INTERRES
    75   37  116 1    
    76   38   39 2    
    77   38   40 1    
    78   40   41 1    
    79   40   42 1    
    80   40  117 1    
    81   41  118 1    
    82   41  119 1    
    83   41  120 1    
    84   42   43 am   BACKBONE|DICT|INTERRES
    85   42  121 1    
    86   43   44 2    
    87   43   45 1    
    88   45   46 1    
    89   45   47 1    
    90   45  122 1    
    91   46  123 1    
    92   46  124 1    
    93   46  125 1    
    94   47   48 am   BACKBONE|DICT|INTERRES
    95   47  126 1    
    96   48   49 2    
    97   48   50 1    
    98   50   51 1    
    99   50   52 1    
   100   50  127 1    
   101   51  128 1    
   102   51  129 1    
   103   51  130 1    
   104   52   53 am   BACKBONE|DICT|INTERRES
   105   52  131 1    
   106   53   54 2    
   107   53   55 1    
   108   55   56 1    
   109   55   59 1    
   110   55  132 1    
   111   56   57 1    
   112   56  133 1    
   113   56  134 1    
   114   57   58 1    
   115   58  135 1    
   116   58  136 1    
   117   59   60 am   BACKBONE|DICT|INTERRES
   118   59  137 1    
   119   60   61 2    
   120   60   62 1    
   121   62   63 1    
   122   62   64 1    
   123   62  138 1    
   124   63  139 1    
   125   63  140 1    
   126   63  141 1    
   127   64   65 am   BACKBONE|DICT|INTERRES
   128   64  142 1    
   129   65   66 2    
   130   65   67 1    
   131   67   68 1    
   132   67   69 1    
   133   67  143 1    
   134   68  144 1    
   135   68  145 1    
   136   68  146 1    
   137   69   70 am   BACKBONE|DICT|INTERRES
   138   69  147 1    
   139   70   71 2    
   140   70   72 1    
   141   72   73 1    
   142   72   74 1    
   143   72  148 1    
   144   73  149 1    
   145   73  150 1    
   146   73  151 1    
   147   74   75 am   BACKBONE|DICT|INTERRES
   148   74  152 1    
   149   75   76 2    
   150   75   77 1    
   151   77   78 1    
   152   77   79 1    
   153   77  153 1    
   154   78  154 1    
   155   78  155 1    
   156   78  156 1    
   157   79   80 am   BACKBONE|DICT|INTERRES
   158   79  157 1    
   159   80   81 2    
@<TRIPOS>SUBSTRUCTURE
     1 UNK         1 GROUP             0       ****    0 ROOT    
