@<TRIPOS>MOLECULE
3R207
157   159    1
SMALL
USER_CHARGES


@<TRIPOS>ATOM
      1 CA        -49.8438  -31.5753    3.9824 C.3       0 UNK        -0.1975 
      2 C         -49.8628  -30.1957    4.6231 C.2       0 UNK         0.4852 
      3 O         -50.1874  -29.2123    3.9547 O.2       0 UNK        -0.5216 
      4 N         -49.5077  -30.1079    5.9115 N.am      1 UNK        -0.4461 
      5 CA        -49.4769  -28.8765    6.7113 C.3       1 UNK         0.0864 
      6 C6        -49.6153  -29.1854    8.2275 C.3       14 UNK        -0.0898 
      7 S7        -51.2200  -29.9587    8.6381 S.3       14 UNK        -0.2598 
      8 C8        -51.7416  -29.0303   10.1262 C.3       14 UNK         0.0286 
      9 C9        -52.4531  -27.7029    9.8570 C.ar      14 UNK        -0.0844 
     10 C10       -52.1233  -26.8868    8.7718 C.ar      14 UNK        -0.0881 
     11 C11       -52.7427  -25.6508    8.5818 C.ar      14 UNK        -0.0643 
     12 C12       -53.7387  -25.2350    9.4707 C.ar      14 UNK        -0.0930 
     13 C13       -54.0824  -26.0360   10.5643 C.ar      14 UNK        -0.0827 
     14 C14       -53.4305  -27.2592   10.7524 C.ar      14 UNK        -0.1249 
     15 C15       -55.1253  -25.5714   11.5704 C.3       14 UNK         0.0141 
     16 S16       -56.5337  -26.7225   11.6460 S.3       14 UNK        -0.2313 
     17 C17       -56.8220  -26.8156   13.4459 C.3       14 UNK        -0.0915 
     18 CA        -55.8469  -27.7754   14.1962 C.3       13 UNK         0.0968 
     19 C         -56.1075  -27.8126   15.7347 C.2       13 UNK         0.5732 
     20 N         -55.8890  -28.9286   16.4234 N.am      13 UNK        -0.7310 
     21 O         -56.5016  -26.8080   16.3229 O.2       13 UNK        -0.5035 
     22 N         -55.7214  -29.1052   13.5790 N.am      13 UNK        -0.4233 
     23 C         -56.7002  -30.0127   13.4561 C.2       13 UNK         0.4989 
     24 O         -57.8771  -29.8070   13.7556 O.2       13 UNK        -0.4996 
     25 CA        -56.3045  -31.4076   12.9355 C.3       12 UNK         0.0216 
     26 CB        -56.6320  -31.5286   11.4380 C.3       12 UNK        -0.1964 
     27 N         -54.8963  -31.7599   13.1466 N.am      12 UNK        -0.4276 
     28 C         -54.2657  -31.8279   14.3281 C.2       12 UNK         0.5020 
     29 O         -54.8113  -31.6072   15.4114 O.2       12 UNK        -0.5489 
     30 CA        -52.7603  -32.1598   14.2993 C.3       11 UNK         0.0294 
     31 CB        -52.2628  -32.7093   12.9414 C.3       11 UNK        -0.2019 
     32 N         -51.9283  -31.0205   14.7082 N.am      11 UNK        -0.4493 
     33 C         -51.9471  -29.7808   14.1966 C.2       11 UNK         0.4932 
     34 O         -52.7397  -29.4016   13.3314 O.2       11 UNK        -0.5029 
     35 CA        -50.8455  -28.8329   14.7025 C.3       10 UNK         0.0280 
     36 CB        -49.5203  -29.1267   13.9817 C.3       10 UNK        -0.1976 
     37 N         -51.1803  -27.4235   14.4995 N.am      10 UNK        -0.4242 
     38 C         -52.1214  -26.7568   15.1780 C.2       10 UNK         0.5072 
     39 O         -52.8052  -27.2528   16.0748 O.2       10 UNK        -0.5224 
     40 CA        -52.2819  -25.2726   14.8036 C.3       9 UNK         0.0343 
     41 CB        -53.3829  -24.5491   15.6062 C.3       9 UNK        -0.2003 
     42 N         -51.0052  -24.5571   14.8907 N.am      9 UNK        -0.4272 
     43 C         -50.2121  -24.4036   15.9635 C.2       9 UNK         0.4988 
     44 O         -50.4976  -24.7838   17.0993 O.2       9 UNK        -0.5108 
     45 CA        -48.8472  -23.7256   15.7309 C.3       8 UNK         0.0248 
     46 CB        -47.7393  -24.7874   15.6408 C.3       8 UNK        -0.2001 
     47 N         -48.8075  -22.8918   14.5266 N.am      8 UNK        -0.4140 
     48 C         -49.4657  -21.7329   14.3813 C.2       8 UNK         0.5028 
     49 O         -50.1008  -21.1832   15.2817 O.2       8 UNK        -0.5428 
     50 CA        -49.4425  -21.1029   12.9805 C.3       7 UNK         0.0264 
     51 CB        -48.1808  -20.2467   12.7833 C.3       7 UNK        -0.1988 
     52 N         -49.5274  -22.1117   11.9206 N.am      7 UNK        -0.4454 
     53 C         -50.6351  -22.8073   11.6195 C.2       7 UNK         0.5027 
     54 O         -51.7116  -22.6634   12.1983 O.2       7 UNK        -0.5083 
     55 CA        -50.5163  -23.8450   10.4869 C.3       6 UNK         0.0844 
     56 C56       -50.6644  -23.1398    9.1119 C.3       14 UNK        -0.0967 
     57 S57       -50.5342  -24.2596    7.6768 S.3       14 UNK        -0.2604 
     58 C58       -52.2763  -24.7529    7.4464 C.3       14 UNK         0.0134 
     59 N         -49.2898  -24.6369   10.6026 N.am      6 UNK        -0.4116 
     60 C         -49.0289  -25.5158   11.5826 C.2       5 UNK         0.5034 
     61 O         -49.8316  -25.8318   12.4611 O.2       5 UNK        -0.5045 
     62 CA        -47.6086  -26.1083   11.6235 C.3       5 UNK         0.0224 
     63 CB        -47.5561  -27.4553   10.8910 C.3       5 UNK        -0.1978 
     64 N         -46.5904  -25.2212   11.0556 N.am      5 UNK        -0.4737 
     65 C         -46.2817  -23.9968   11.4962 C.2       4 UNK         0.5027 
     66 O         -46.7954  -23.4867   12.4918 O.2       4 UNK        -0.5211 
     67 CA        -45.3019  -23.1730   10.6420 C.3       4 UNK         0.0297 
     68 CB        -43.8412  -23.5697   10.9295 C.3       4 UNK        -0.1993 
     69 N         -45.6066  -23.1893    9.1987 N.am      4 UNK        -0.4486 
     70 C         -45.5292  -24.2118    8.3336 C.2       3 UNK         0.4961 
     71 O         -45.1463  -25.3459    8.6333 O.2       3 UNK        -0.5105 
     72 CA        -45.9694  -23.9169    6.8954 C.3       3 UNK         0.0299 
     73 CB        -44.9022  -23.0992    6.1437 C.3       3 UNK        -0.1972 
     74 N         -46.2018  -25.1831    6.2066 N.am      3 UNK        -0.4305 
     75 C         -46.9843  -25.3661    5.1384 C.2       2 UNK         0.5006 
     76 O         -47.6365  -24.4677    4.6049 O.2       2 UNK        -0.5106 
     77 CA        -47.0392  -26.7828    4.5387 C.3       2 UNK         0.0296 
     78 CB        -45.6788  -27.5161    4.5677 C.3       2 UNK        -0.2002 
     79 N         -48.1063  -27.5993    5.1247 N.am      2 UNK        -0.4032 
     80 C         -48.2218  -28.0308    6.3889 C.2       1 UNK         0.5000 
     81 O         -47.3830  -27.8122    7.2640 O.2       1 UNK        -0.5238 
     82 H82       -49.1479  -31.5899    3.1441 H         1 UNK         0.0889 
     83 H83       -50.8353  -31.8275    3.6074 H         1 UNK         0.0889 
     84 H84       -49.5416  -32.3486    4.6885 H         1 UNK         0.0889 
     85 H85       -49.2389  -30.9467    6.4060 H         1 UNK         0.3028 
     86 H86       -50.3335  -28.2675    6.4165 H         1 UNK         0.0864 
     87 H87       -48.8144  -29.8469    8.5627 H         1 UNK         0.0720 
     88 H88       -49.5124  -28.2708    8.8119 H         1 UNK         0.0720 
     89 H89       -50.8813  -28.8495   10.7710 H         1 UNK         0.0814 
     90 H90       -52.4092  -29.6836   10.6895 H         1 UNK         0.0814 
     91 H91       -51.3547  -27.1803    8.0792 H         1 UNK         0.1469 
     92 H92       -54.2189  -24.2762    9.3312 H         1 UNK         0.1381 
     93 H93       -53.6916  -27.8665   11.6064 H         1 UNK         0.1206 
     94 H94       -55.4966  -24.5758   11.3231 H         1 UNK         0.0813 
     95 H95       -54.6503  -25.4866   12.5475 H         1 UNK         0.0813 
     96 H96       -57.8552  -27.1296   13.6006 H         1 UNK         0.0638 
     97 H97       -56.7546  -25.8055   13.8538 H         1 UNK         0.0638 
     98 H98       -54.8515  -27.3432   14.1056 H         1 UNK         0.0568 
     99 H99       -56.0513  -28.9289   17.4171 H         1 UNK         0.3450 
    100 H100      -55.5443  -29.7671   15.9692 H         1 UNK         0.3450 
    101 H101      -54.7730  -29.3770   13.3409 H         1 UNK         0.2987 
    102 H102      -56.9069  -32.1373   13.4803 H         1 UNK         0.0766 
    103 H103      -56.0393  -30.8356   10.8389 H         1 UNK         0.0798 
    104 H104      -57.6828  -31.3040   11.2490 H         1 UNK         0.0798 
    105 H105      -56.4478  -32.5378   11.0691 H         1 UNK         0.0798 
    106 H106      -54.3472  -31.9285   12.3163 H         1 UNK         0.3198 
    107 H107      -52.6108  -32.9416   15.0457 H         1 UNK         0.0843 
    108 H108      -51.2241  -33.0326   13.0124 H         1 UNK         0.0831 
    109 H109      -52.3148  -31.9646   12.1460 H         1 UNK         0.0831 
    110 H110      -52.8417  -33.5794   12.6280 H         1 UNK         0.0831 
    111 H111      -51.2613  -31.2171   15.4417 H         1 UNK         0.3133 
    112 H112      -50.7078  -28.9967   15.7733 H         1 UNK         0.0566 
    113 H113      -48.7291  -28.4502   14.3059 H         1 UNK         0.0814 
    114 H114      -49.1791  -30.1434   14.1804 H         1 UNK         0.0814 
    115 H115      -49.6279  -29.0263   12.9023 H         1 UNK         0.0814 
    116 H116      -50.6866  -26.9332   13.7572 H         1 UNK         0.3091 
    117 H117      -52.5691  -25.2492   13.7514 H         1 UNK         0.0702 
    118 H118      -53.4838  -23.5110   15.2894 H         1 UNK         0.0785 
    119 H119      -53.1764  -24.5555   16.6769 H         1 UNK         0.0785 
    120 H120      -54.3509  -25.0294   15.4599 H         1 UNK         0.0785 
    121 H121      -50.6393  -24.2422   14.0026 H         1 UNK         0.2998 
    122 H122      -48.6425  -23.0862   16.5922 H         1 UNK         0.0697 
    123 H123      -46.7607  -24.3324   15.4861 H         1 UNK         0.0825 
    124 H124      -47.6848  -25.3723   16.5600 H         1 UNK         0.0825 
    125 H125      -47.9194  -25.4851   14.8231 H         1 UNK         0.0825 
    126 H126      -48.2334  -23.2215   13.7543 H         1 UNK         0.3029 
    127 H127      -50.3133  -20.4483   12.8981 H         1 UNK         0.0897 
    128 H128      -48.1852  -19.7507   11.8125 H         1 UNK         0.0792 
    129 H129      -48.1189  -19.4669   13.5436 H         1 UNK         0.0792 
    130 H130      -47.2689  -20.8406   12.8534 H         1 UNK         0.0792 
    131 H131      -48.6682  -22.3278   11.4365 H         1 UNK         0.3086 
    132 H132      -51.3476  -24.5373   10.6154 H         1 UNK         0.0583 
    133 H133      -51.6196  -22.6133    9.0575 H         1 UNK         0.1020 
    134 H134      -49.8979  -22.3717    8.9915 H         1 UNK         0.1020 
    135 H135      -52.9033  -23.8643    7.3592 H         1 UNK         0.0694 
    136 H136      -52.3702  -25.2924    6.5029 H         1 UNK         0.0694 
    137 H137      -48.5816  -24.4777    9.9027 H         1 UNK         0.2989 
    138 H138      -47.3592  -26.2777   12.6722 H         1 UNK         0.1055 
    139 H139      -48.3642  -28.1157   11.2034 H         1 UNK         0.0806 
    140 H140      -47.6405  -27.3208    9.8137 H         1 UNK         0.0806 
    141 H141      -46.6180  -27.9747   11.0863 H         1 UNK         0.0806 
    142 H142      -46.1070  -25.5417   10.2185 H         1 UNK         0.3061 
    143 H143      -45.4199  -22.1340   10.9547 H         1 UNK         0.0734 
    144 H144      -43.6386  -24.6107   10.6764 H         1 UNK         0.0832 
    145 H145      -43.1439  -22.9470   10.3694 H         1 UNK         0.0832 
    146 H146      -43.6082  -23.4456   11.9880 H         1 UNK         0.0832 
    147 H147      -45.9425  -22.3076    8.8344 H         1 UNK         0.3156 
    148 H148      -46.9054  -23.3554    6.9346 H         1 UNK         0.0589 
    149 H149      -45.2207  -22.8685    5.1270 H         1 UNK         0.0808 
    150 H150      -44.7069  -22.1486    6.6414 H         1 UNK         0.0808 
    151 H151      -43.9550  -23.6368    6.0826 H         1 UNK         0.0808 
    152 H152      -45.7906  -25.9902    6.6638 H         1 UNK         0.3098 
    153 H153      -47.3065  -26.6566    3.4882 H         1 UNK         0.0720 
    154 H154      -44.8992  -26.9069    4.1084 H         1 UNK         0.0791 
    155 H155      -45.7278  -28.4502    4.0080 H         1 UNK         0.0791 
    156 H156      -45.3496  -27.7570    5.5786 H         1 UNK         0.0791 
    157 H157      -48.8516  -27.8714    4.4889 H         1 UNK         0.3028 
@<TRIPOS>BOND
     1    1    2 1    
     2    1   82 1    
     3    1   83 1    
     4    1   84 1    
     5    2    3 2    
     6    2    4 am   BACKBONE|DICT|INTERRES
     7    4    5 1    
     8    4   85 1    
     9    5    6 1    
    10    5   80 1    
    11    5   86 1    
    12    6    7 1    
    13    6   87 1    
    14    6   88 1    
    15    7    8 1    
    16    8    9 1    
    17    8   89 1    
    18    8   90 1    
    19    9   10 ar   
    20    9   14 ar   
    21   10   11 ar   
    22   10   91 1    
    23   11   12 ar   
    24   11   58 1    
    25   12   13 ar   
    26   12   92 1    
    27   13   14 ar   
    28   13   15 1    
    29   14   93 1    
    30   15   16 1    
    31   15   94 1    
    32   15   95 1    
    33   16   17 1    
    34   17   18 1    
    35   17   96 1    
    36   17   97 1    
    37   18   19 1    
    38   18   22 1    
    39   18   98 1    
    40   19   20 am   BACKBONE|DICT|INTERRES
    41   19   21 2    
    42   20   99 1    
    43   20  100 1    
    44   22   23 am   BACKBONE|DICT|INTERRES
    45   22  101 1    
    46   23   24 2    
    47   23   25 1    
    48   25   26 1    
    49   25   27 1    
    50   25  102 1    
    51   26  103 1    
    52   26  104 1    
    53   26  105 1    
    54   27   28 am   BACKBONE|DICT|INTERRES
    55   27  106 1    
    56   28   29 2    
    57   28   30 1    
    58   30   31 1    
    59   30   32 1    
    60   30  107 1    
    61   31  108 1    
    62   31  109 1    
    63   31  110 1    
    64   32   33 am   BACKBONE|DICT|INTERRES
    65   32  111 1    
    66   33   34 2    
    67   33   35 1    
    68   35   36 1    
    69   35   37 1    
    70   35  112 1    
    71   36  113 1    
    72   36  114 1    
    73   36  115 1    
    74   37   38 am   BACKBONE|DICT|INTERRES
    75   37  116 1    
    76   38   39 2    
    77   38   40 1    
    78   40   41 1    
    79   40   42 1    
    80   40  117 1    
    81   41  118 1    
    82   41  119 1    
    83   41  120 1    
    84   42   43 am   BACKBONE|DICT|INTERRES
    85   42  121 1    
    86   43   44 2    
    87   43   45 1    
    88   45   46 1    
    89   45   47 1    
    90   45  122 1    
    91   46  123 1    
    92   46  124 1    
    93   46  125 1    
    94   47   48 am   BACKBONE|DICT|INTERRES
    95   47  126 1    
    96   48   49 2    
    97   48   50 1    
    98   50   51 1    
    99   50   52 1    
   100   50  127 1    
   101   51  128 1    
   102   51  129 1    
   103   51  130 1    
   104   52   53 am   BACKBONE|DICT|INTERRES
   105   52  131 1    
   106   53   54 2    
   107   53   55 1    
   108   55   56 1    
   109   55   59 1    
   110   55  132 1    
   111   56   57 1    
   112   56  133 1    
   113   56  134 1    
   114   57   58 1    
   115   58  135 1    
   116   58  136 1    
   117   59   60 am   BACKBONE|DICT|INTERRES
   118   59  137 1    
   119   60   61 2    
   120   60   62 1    
   121   62   63 1    
   122   62   64 1    
   123   62  138 1    
   124   63  139 1    
   125   63  140 1    
   126   63  141 1    
   127   64   65 am   BACKBONE|DICT|INTERRES
   128   64  142 1    
   129   65   66 2    
   130   65   67 1    
   131   67   68 1    
   132   67   69 1    
   133   67  143 1    
   134   68  144 1    
   135   68  145 1    
   136   68  146 1    
   137   69   70 am   BACKBONE|DICT|INTERRES
   138   69  147 1    
   139   70   71 2    
   140   70   72 1    
   141   72   73 1    
   142   72   74 1    
   143   72  148 1    
   144   73  149 1    
   145   73  150 1    
   146   73  151 1    
   147   74   75 am   BACKBONE|DICT|INTERRES
   148   74  152 1    
   149   75   76 2    
   150   75   77 1    
   151   77   78 1    
   152   77   79 1    
   153   77  153 1    
   154   78  154 1    
   155   78  155 1    
   156   78  156 1    
   157   79   80 am   BACKBONE|DICT|INTERRES
   158   79  157 1    
   159   80   81 2    
@<TRIPOS>SUBSTRUCTURE
     1 UNK         1 GROUP             0       ****    0 ROOT    
