@<TRIPOS>MOLECULE
3R207
157   159    1
SMALL
USER_CHARGES


@<TRIPOS>ATOM
      1 CA        -47.8953  -31.2755    8.2905 C.3       0 UNK        -0.1975 
      2 C         -48.1924  -30.5589    9.6050 C.2       0 UNK         0.4852 
      3 O         -48.2477  -31.2086   10.6465 O.2       0 UNK        -0.5216 
      4 N         -48.3882  -29.2316    9.6176 N.am      1 UNK        -0.4461 
      5 CA        -48.3279  -28.3142    8.4703 C.3       1 UNK         0.0864 
      6 C6        -49.2352  -27.0803    8.7093 C.3       14 UNK        -0.0898 
      7 S7        -49.9520  -26.3987    7.1763 S.3       14 UNK        -0.2598 
      8 C8        -51.3760  -27.4998    6.8847 C.3       14 UNK         0.0286 
      9 C9        -52.4421  -27.3693    7.9623 C.ar      14 UNK        -0.0844 
     10 C10       -53.2610  -26.2381    8.0076 C.ar      14 UNK        -0.0881 
     11 C11       -54.2282  -26.1005    9.0083 C.ar      14 UNK        -0.0643 
     12 C12       -54.3843  -27.1147    9.9582 C.ar      14 UNK        -0.0930 
     13 C13       -53.5912  -28.2650    9.9041 C.ar      14 UNK        -0.0827 
     14 C14       -52.6174  -28.3832    8.9083 C.ar      14 UNK        -0.1249 
     15 C15       -53.7625  -29.3742   10.9301 C.3       14 UNK         0.0141 
     16 S16       -54.8903  -30.6838   10.3606 S.3       14 UNK        -0.2313 
     17 C17       -56.5453  -29.9736   10.6739 C.3       14 UNK        -0.0915 
     18 CA        -57.1895  -30.4335   12.0099 C.3       13 UNK         0.0968 
     19 C         -57.5072  -31.9596   12.0259 C.2       13 UNK         0.5732 
     20 N         -56.9024  -32.7584   12.8973 N.am      13 UNK        -0.7310 
     21 O         -58.3293  -32.4225   11.2385 O.2       13 UNK        -0.5035 
     22 N         -56.4382  -29.9194   13.1658 N.am      13 UNK        -0.4233 
     23 C         -56.8989  -29.8442   14.4203 C.2       13 UNK         0.4989 
     24 O         -58.0136  -30.2316   14.7724 O.2       13 UNK        -0.4996 
     25 CA        -55.9573  -29.2091   15.4582 C.3       12 UNK         0.0216 
     26 CB        -54.9894  -30.2605   16.0244 C.3       12 UNK        -0.1964 
     27 N         -55.1932  -28.0636   14.9476 N.am      12 UNK        -0.4276 
     28 C         -55.7375  -26.9026   14.5437 C.2       12 UNK         0.5020 
     29 O         -56.9529  -26.7041   14.4973 O.2       12 UNK        -0.5489 
     30 CA        -54.7700  -25.7712   14.1283 C.3       11 UNK         0.0294 
     31 CB        -55.4122  -24.3704   14.2035 C.3       11 UNK        -0.2019 
     32 N         -53.4946  -25.7887   14.8517 N.am      11 UNK        -0.4493 
     33 C         -53.3025  -25.7703   16.1806 C.2       11 UNK         0.4932 
     34 O         -54.2043  -25.5841   16.9988 O.2       11 UNK        -0.5029 
     35 CA        -51.8663  -26.0387   16.6845 C.3       10 UNK         0.0280 
     36 CB        -51.8602  -26.7913   18.0315 C.3       10 UNK        -0.1976 
     37 N         -50.9957  -26.7311   15.7212 N.am      10 UNK        -0.4242 
     38 C         -51.2181  -27.9077   15.1074 C.2       10 UNK         0.5072 
     39 O         -52.2395  -28.5777   15.2752 O.2       10 UNK        -0.5224 
     40 CA        -50.1584  -28.3903   14.0977 C.3       9 UNK         0.0343 
     41 CB        -50.8023  -29.0678   12.8782 C.3       9 UNK        -0.2003 
     42 N         -49.3418  -27.2753   13.6212 N.am      9 UNK        -0.4272 
     43 C         -48.0227  -27.1381   13.8053 C.2       9 UNK         0.4988 
     44 O         -47.3070  -27.9927   14.3275 O.2       9 UNK        -0.5108 
     45 CA        -47.3898  -25.8105   13.3454 C.3       8 UNK         0.0248 
     46 CB        -46.7155  -25.9887   11.9777 C.3       8 UNK        -0.2001 
     47 N         -48.3372  -24.6891   13.2837 N.am      8 UNK        -0.4140 
     48 C         -48.9838  -24.1873   14.3489 C.2       8 UNK         0.5028 
     49 O         -48.8175  -24.5958   15.4984 O.2       8 UNK        -0.5428 
     50 CA        -50.0477  -23.1031   14.1010 C.3       7 UNK         0.0264 
     51 CB        -49.4402  -21.7049   14.2940 C.3       7 UNK        -0.1988 
     52 N         -50.6922  -23.1704   12.7870 N.am      7 UNK        -0.4454 
     53 C         -51.3434  -24.2272   12.2778 C.2       7 UNK         0.5027 
     54 O         -51.4825  -25.2986   12.8722 O.2       7 UNK        -0.5083 
     55 CA        -51.9098  -24.0703   10.8524 C.3       6 UNK         0.0844 
     56 C56       -53.3879  -23.6076   10.9268 C.3       14 UNK        -0.0967 
     57 S57       -54.1432  -23.3330    9.2871 S.3       14 UNK        -0.2604 
     58 C58       -55.1092  -24.8598    9.0575 C.3       14 UNK         0.0134 
     59 N         -51.1112  -23.2050    9.9718 N.am      6 UNK        -0.4116 
     60 C         -49.8013  -23.3064    9.7117 C.2       5 UNK         0.5034 
     61 O         -49.0202  -24.0493   10.3144 O.2       5 UNK        -0.5045 
     62 CA        -49.2618  -22.4003    8.6032 C.3       5 UNK         0.0224 
     63 CB        -48.5818  -21.1532    9.1928 C.3       5 UNK        -0.1978 
     64 N         -48.2951  -23.1737    7.8360 N.am      5 UNK        -0.4737 
     65 C         -48.0562  -23.0657    6.5240 C.2       4 UNK         0.5027 
     66 O         -48.6157  -22.2444    5.7955 O.2       4 UNK        -0.5211 
     67 CA        -47.0228  -24.0494    5.9322 C.3       4 UNK         0.0297 
     68 CB        -46.3847  -23.5420    4.6213 C.3       4 UNK        -0.1993 
     69 N         -46.0001  -24.4549    6.9070 N.am      4 UNK        -0.4486 
     70 C         -45.1086  -23.6576    7.5207 C.2       3 UNK         0.4961 
     71 O         -44.9392  -22.4726    7.2321 O.2       3 UNK        -0.5105 
     72 CA        -44.3027  -24.2466    8.6945 C.3       3 UNK         0.0299 
     73 CB        -44.5747  -23.4393    9.9767 C.3       3 UNK        -0.1972 
     74 N         -44.6013  -25.6592    8.9513 N.am      3 UNK        -0.4305 
     75 C         -43.9684  -26.6864    8.3696 C.2       2 UNK         0.5006 
     76 O         -43.0400  -26.5571    7.5711 O.2       2 UNK        -0.5106 
     77 CA        -44.4605  -28.1017    8.7254 C.3       2 UNK         0.0296 
     78 CB        -43.6935  -28.6432    9.9429 C.3       2 UNK        -0.2002 
     79 N         -45.9040  -28.2255    8.9712 N.am      2 UNK        -0.4032 
     80 C         -46.8789  -27.9106    8.1021 C.2       1 UNK         0.5000 
     81 O         -46.6665  -27.3364    7.0343 O.2       1 UNK        -0.5238 
     82 H82       -47.6855  -32.3296    8.4714 H         1 UNK         0.0889 
     83 H83       -47.0257  -30.8493    7.7919 H         1 UNK         0.0889 
     84 H84       -48.7516  -31.2201    7.6190 H         1 UNK         0.0889 
     85 H85       -48.6016  -28.7980   10.5039 H         1 UNK         0.3028 
     86 H86       -48.7215  -28.8468    7.6035 H         1 UNK         0.0864 
     87 H87       -50.0571  -27.3222    9.3840 H         1 UNK         0.0720 
     88 H88       -48.6835  -26.2867    9.2097 H         1 UNK         0.0720 
     89 H89       -51.0289  -28.5309    6.8059 H         1 UNK         0.0814 
     90 H90       -51.8148  -27.2550    5.9164 H         1 UNK         0.0814 
     91 H91       -53.1320  -25.4530    7.2750 H         1 UNK         0.1469 
     92 H92       -55.1287  -27.0107   10.7346 H         1 UNK         0.1381 
     93 H93       -51.9933  -29.2658    8.8726 H         1 UNK         0.1206 
     94 H94       -54.0899  -28.9675   11.8868 H         1 UNK         0.0813 
     95 H95       -52.7966  -29.8438   11.1133 H         1 UNK         0.0813 
     96 H96       -57.1881  -30.2482    9.8358 H         1 UNK         0.0638 
     97 H97       -56.4901  -28.8862   10.6448 H         1 UNK         0.0638 
     98 H98       -58.1674  -29.9506   12.0568 H         1 UNK         0.0568 
     99 H99       -57.1219  -33.7417   12.8996 H         1 UNK         0.3450 
    100 H100      -56.2277  -32.3889   13.5463 H         1 UNK         0.3450 
    101 H101      -55.5001  -29.6049   12.9807 H         1 UNK         0.2987 
    102 H102      -56.5781  -28.8453   16.2797 H         1 UNK         0.0766 
    103 H103      -55.5317  -31.1156   16.4304 H         1 UNK         0.0798 
    104 H104      -54.3866  -29.8467   16.8334 H         1 UNK         0.0798 
    105 H105      -54.3066  -30.6361   15.2612 H         1 UNK         0.0798 
    106 H106      -54.1797  -28.1393   14.9943 H         1 UNK         0.3198 
    107 H107      -54.5225  -25.9692   13.0852 H         1 UNK         0.0843 
    108 H108      -55.7504  -24.1378   15.2137 H         1 UNK         0.0831 
    109 H109      -56.2792  -24.3001   13.5455 H         1 UNK         0.0831 
    110 H110      -54.7111  -23.5937   13.8986 H         1 UNK         0.0831 
    111 H111      -52.6709  -25.8828   14.2625 H         1 UNK         0.3133 
    112 H112      -51.4161  -25.0587   16.8480 H         1 UNK         0.0566 
    113 H113      -50.8439  -26.9562   18.3893 H         1 UNK         0.0814 
    114 H114      -52.3497  -27.7627   17.9514 H         1 UNK         0.0814 
    115 H115      -52.3837  -26.2254   18.8030 H         1 UNK         0.0814 
    116 H116      -50.1291  -26.2461   15.5137 H         1 UNK         0.3091 
    117 H117      -49.5448  -29.1276   14.6186 H         1 UNK         0.0702 
    118 H118      -50.0462  -29.4644   12.2015 H         1 UNK         0.0785 
    119 H119      -51.4178  -28.3619   12.3195 H         1 UNK         0.0785 
    120 H120      -51.4344  -29.9053   13.1760 H         1 UNK         0.0785 
    121 H121      -49.8589  -26.5096   13.2000 H         1 UNK         0.2998 
    122 H122      -46.6189  -25.5513   14.0742 H         1 UNK         0.0697 
    123 H123      -47.4431  -26.2091   11.1977 H         1 UNK         0.0825 
    124 H124      -45.9933  -26.8061   12.0000 H         1 UNK         0.0825 
    125 H125      -46.1762  -25.0872   11.6959 H         1 UNK         0.0825 
    126 H126      -48.5544  -24.3241   12.3616 H         1 UNK         0.3029 
    127 H127      -50.8295  -23.2439   14.8505 H         1 UNK         0.0897 
    128 H128      -48.6753  -21.4902   13.5464 H         1 UNK         0.0792 
    129 H129      -48.9713  -21.6147   15.2752 H         1 UNK         0.0792 
    130 H130      -50.2018  -20.9275   14.2301 H         1 UNK         0.0792 
    131 H131      -50.6221  -22.3435   12.2119 H         1 UNK         0.3086 
    132 H132      -51.8860  -25.0646   10.4021 H         1 UNK         0.0583 
    133 H133      -53.9885  -24.3342   11.4746 H         1 UNK         0.1020 
    134 H134      -53.4695  -22.6719   11.4839 H         1 UNK         0.1020 
    135 H135      -55.8521  -24.9353    9.8532 H         1 UNK         0.0694 
    136 H136      -55.6671  -24.7858    8.1231 H         1 UNK         0.0694 
    137 H137      -51.6578  -22.5545    9.4256 H         1 UNK         0.2989 
    138 H138      -50.0863  -22.0978    7.9533 H         1 UNK         0.1055 
    139 H139      -48.1870  -20.5098    8.4062 H         1 UNK         0.0806 
    140 H140      -47.7539  -21.4194    9.8516 H         1 UNK         0.0806 
    141 H141      -49.2874  -20.5589    9.7747 H         1 UNK         0.0806 
    142 H142      -47.8382  -23.9075    8.3603 H         1 UNK         0.3061 
    143 H143      -47.5797  -24.9562    5.6917 H         1 UNK         0.0734 
    144 H144      -45.8782  -22.5863    4.7580 H         1 UNK         0.0832 
    145 H145      -45.6591  -24.2555    4.2312 H         1 UNK         0.0832 
    146 H146      -47.1424  -23.3977    3.8504 H         1 UNK         0.0832 
    147 H147      -46.0383  -25.4354    7.1696 H         1 UNK         0.3156 
    148 H148      -43.2436  -24.1399    8.4503 H         1 UNK         0.0589 
    149 H149      -44.0578  -23.8645   10.8372 H         1 UNK         0.0808 
    150 H150      -45.6400  -23.3895   10.2057 H         1 UNK         0.0808 
    151 H151      -44.2242  -22.4119    9.8694 H         1 UNK         0.0808 
    152 H152      -45.3500  -25.8597    9.5964 H         1 UNK         0.3098 
    153 H153      -44.2292  -28.7409    7.8707 H         1 UNK         0.0720 
    154 H154      -43.9140  -28.0739   10.8468 H         1 UNK         0.0791 
    155 H155      -42.6157  -28.5913    9.7807 H         1 UNK         0.0791 
    156 H156      -43.9381  -29.6882   10.1351 H         1 UNK         0.0791 
    157 H157      -46.1719  -28.6949    9.8242 H         1 UNK         0.3028 
@<TRIPOS>BOND
     1    1    2 1    
     2    1   82 1    
     3    1   83 1    
     4    1   84 1    
     5    2    3 2    
     6    2    4 am   BACKBONE|DICT|INTERRES
     7    4    5 1    
     8    4   85 1    
     9    5    6 1    
    10    5   80 1    
    11    5   86 1    
    12    6    7 1    
    13    6   87 1    
    14    6   88 1    
    15    7    8 1    
    16    8    9 1    
    17    8   89 1    
    18    8   90 1    
    19    9   10 ar   
    20    9   14 ar   
    21   10   11 ar   
    22   10   91 1    
    23   11   12 ar   
    24   11   58 1    
    25   12   13 ar   
    26   12   92 1    
    27   13   14 ar   
    28   13   15 1    
    29   14   93 1    
    30   15   16 1    
    31   15   94 1    
    32   15   95 1    
    33   16   17 1    
    34   17   18 1    
    35   17   96 1    
    36   17   97 1    
    37   18   19 1    
    38   18   22 1    
    39   18   98 1    
    40   19   20 am   BACKBONE|DICT|INTERRES
    41   19   21 2    
    42   20   99 1    
    43   20  100 1    
    44   22   23 am   BACKBONE|DICT|INTERRES
    45   22  101 1    
    46   23   24 2    
    47   23   25 1    
    48   25   26 1    
    49   25   27 1    
    50   25  102 1    
    51   26  103 1    
    52   26  104 1    
    53   26  105 1    
    54   27   28 am   BACKBONE|DICT|INTERRES
    55   27  106 1    
    56   28   29 2    
    57   28   30 1    
    58   30   31 1    
    59   30   32 1    
    60   30  107 1    
    61   31  108 1    
    62   31  109 1    
    63   31  110 1    
    64   32   33 am   BACKBONE|DICT|INTERRES
    65   32  111 1    
    66   33   34 2    
    67   33   35 1    
    68   35   36 1    
    69   35   37 1    
    70   35  112 1    
    71   36  113 1    
    72   36  114 1    
    73   36  115 1    
    74   37   38 am   BACKBONE|DICT|INTERRES
    75   37  116 1    
    76   38   39 2    
    77   38   40 1    
    78   40   41 1    
    79   40   42 1    
    80   40  117 1    
    81   41  118 1    
    82   41  119 1    
    83   41  120 1    
    84   42   43 am   BACKBONE|DICT|INTERRES
    85   42  121 1    
    86   43   44 2    
    87   43   45 1    
    88   45   46 1    
    89   45   47 1    
    90   45  122 1    
    91   46  123 1    
    92   46  124 1    
    93   46  125 1    
    94   47   48 am   BACKBONE|DICT|INTERRES
    95   47  126 1    
    96   48   49 2    
    97   48   50 1    
    98   50   51 1    
    99   50   52 1    
   100   50  127 1    
   101   51  128 1    
   102   51  129 1    
   103   51  130 1    
   104   52   53 am   BACKBONE|DICT|INTERRES
   105   52  131 1    
   106   53   54 2    
   107   53   55 1    
   108   55   56 1    
   109   55   59 1    
   110   55  132 1    
   111   56   57 1    
   112   56  133 1    
   113   56  134 1    
   114   57   58 1    
   115   58  135 1    
   116   58  136 1    
   117   59   60 am   BACKBONE|DICT|INTERRES
   118   59  137 1    
   119   60   61 2    
   120   60   62 1    
   121   62   63 1    
   122   62   64 1    
   123   62  138 1    
   124   63  139 1    
   125   63  140 1    
   126   63  141 1    
   127   64   65 am   BACKBONE|DICT|INTERRES
   128   64  142 1    
   129   65   66 2    
   130   65   67 1    
   131   67   68 1    
   132   67   69 1    
   133   67  143 1    
   134   68  144 1    
   135   68  145 1    
   136   68  146 1    
   137   69   70 am   BACKBONE|DICT|INTERRES
   138   69  147 1    
   139   70   71 2    
   140   70   72 1    
   141   72   73 1    
   142   72   74 1    
   143   72  148 1    
   144   73  149 1    
   145   73  150 1    
   146   73  151 1    
   147   74   75 am   BACKBONE|DICT|INTERRES
   148   74  152 1    
   149   75   76 2    
   150   75   77 1    
   151   77   78 1    
   152   77   79 1    
   153   77  153 1    
   154   78  154 1    
   155   78  155 1    
   156   78  156 1    
   157   79   80 am   BACKBONE|DICT|INTERRES
   158   79  157 1    
   159   80   81 2    
@<TRIPOS>SUBSTRUCTURE
     1 UNK         1 GROUP             0       ****    0 ROOT    
