@<TRIPOS>MOLECULE
3R207
157   159    1
SMALL
USER_CHARGES


@<TRIPOS>ATOM
      1 CA        -46.2719  -30.6898    4.1233 C.3       0 UNK        -0.1975 
      2 C         -47.5212  -29.9313    4.5461 C.2       0 UNK         0.4852 
      3 O         -48.3968  -29.6846    3.7161 O.2       0 UNK        -0.5216 
      4 N         -47.6097  -29.5613    5.8310 N.am      1 UNK        -0.4461 
      5 CA        -48.7389  -28.8305    6.4209 C.3       1 UNK         0.0864 
      6 C6        -48.6771  -28.8421    7.9704 C.3       14 UNK        -0.0898 
      7 S7        -48.9247  -30.4942    8.7025 S.3       14 UNK        -0.2598 
      8 C8        -50.6867  -30.8377    8.3661 C.3       14 UNK         0.0286 
      9 C9        -51.6331  -29.8673    9.0617 C.ar      14 UNK        -0.0844 
     10 C10       -51.9786  -28.6593    8.4482 C.ar      14 UNK        -0.0881 
     11 C11       -52.8539  -27.7673    9.0705 C.ar      14 UNK        -0.0643 
     12 C12       -53.4301  -28.1155   10.2956 C.ar      14 UNK        -0.0930 
     13 C13       -53.1180  -29.3330   10.9079 C.ar      14 UNK        -0.0827 
     14 C14       -52.2019  -30.1952   10.2963 C.ar      14 UNK        -0.1249 
     15 C15       -53.7828  -29.7278   12.2181 C.3       14 UNK         0.0141 
     16 S16       -55.1046  -30.9454   11.9320 S.3       14 UNK        -0.2313 
     17 C17       -55.6952  -31.2420   13.6336 C.3       14 UNK        -0.0915 
     18 CA        -57.2012  -30.8866   13.8178 C.3       13 UNK         0.0968 
     19 C         -57.7559  -31.3165   15.2111 C.2       13 UNK         0.5732 
     20 N         -58.7037  -30.5944   15.7971 N.am      13 UNK        -0.7310 
     21 O         -57.3524  -32.3416   15.7564 O.2       13 UNK        -0.5035 
     22 N         -57.5189  -29.5022   13.4191 N.am      13 UNK        -0.4233 
     23 C         -57.0395  -28.3935   13.9943 C.2       13 UNK         0.4989 
     24 O         -56.3256  -28.3824   14.9998 O.2       13 UNK        -0.4996 
     25 CA        -57.4424  -27.0679   13.3412 C.3       12 UNK         0.0216 
     26 CB        -58.6730  -26.4687   14.0412 C.3       12 UNK        -0.1964 
     27 N         -56.3204  -26.1462   13.4718 N.am      12 UNK        -0.4276 
     28 C         -55.6345  -25.5881   12.4733 C.2       12 UNK         0.5020 
     29 O         -55.9663  -25.6783   11.2909 O.2       12 UNK        -0.5489 
     30 CA        -54.3527  -24.8087   12.8292 C.3       11 UNK         0.0294 
     31 CB        -54.6496  -23.3066   12.9992 C.3       11 UNK        -0.2019 
     32 N         -53.5665  -25.3265   13.9633 N.am      11 UNK        -0.4493 
     33 C         -53.9003  -25.3902   15.2616 C.2       11 UNK         0.4932 
     34 O         -55.0096  -25.0685   15.6900 O.2       11 UNK        -0.5029 
     35 CA        -52.8277  -25.8456   16.2668 C.3       10 UNK         0.0280 
     36 CB        -53.4172  -26.6588   17.4403 C.3       10 UNK        -0.1976 
     37 N         -51.6607  -26.5067   15.6718 N.am      10 UNK        -0.4242 
     38 C         -51.5558  -27.7602   15.2014 C.2       10 UNK         0.5072 
     39 O         -52.5021  -28.5446   15.1371 O.2       10 UNK        -0.5224 
     40 CA        -50.1589  -28.2435   14.7454 C.3       9 UNK         0.0343 
     41 CB        -50.2250  -28.9962   13.4044 C.3       9 UNK        -0.2003 
     42 N         -49.1707  -27.1675   14.6363 N.am      9 UNK        -0.4272 
     43 C         -48.4815  -26.6248   15.6498 C.2       9 UNK         0.4988 
     44 O         -48.5273  -27.0384   16.8082 O.2       9 UNK        -0.5108 
     45 CA        -47.6519  -25.3664   15.3289 C.3       8 UNK         0.0248 
     46 CB        -46.2289  -25.7466   14.8919 C.3       8 UNK        -0.2001 
     47 N         -48.2746  -24.5162   14.3071 N.am      8 UNK        -0.4140 
     48 C         -49.4659  -23.9139   14.4375 C.2       8 UNK         0.5028 
     49 O         -50.1371  -23.9471   15.4686 O.2       8 UNK        -0.5428 
     50 CA        -50.0387  -23.2152   13.1935 C.3       7 UNK         0.0264 
     51 CB        -49.4770  -21.7922   13.0447 C.3       7 UNK        -0.1988 
     52 N         -49.8079  -23.9786   11.9637 N.am      7 UNK        -0.4454 
     53 C         -50.3760  -25.1643   11.6945 C.2       7 UNK         0.5027 
     54 O         -51.1541  -25.7306   12.4630 O.2       7 UNK        -0.5083 
     55 CA        -49.9788  -25.8496   10.3650 C.3       6 UNK         0.0844 
     56 C56       -50.7003  -25.2459    9.1277 C.3       14 UNK        -0.0967 
     57 S57       -52.5082  -25.0123    9.2947 S.3       14 UNK        -0.2604 
     58 C58       -53.1955  -26.4431    8.4019 C.3       14 UNK         0.0134 
     59 N         -48.5225  -25.8508   10.1739 N.am      6 UNK        -0.4116 
     60 C         -47.6280  -26.3998   11.0077 C.2       5 UNK         0.5034 
     61 O         -47.9309  -27.0626   11.9972 O.2       5 UNK        -0.5045 
     62 CA        -46.1414  -26.0980   10.7393 C.3       5 UNK         0.0224 
     63 CB        -45.5323  -27.1028    9.7484 C.3       5 UNK        -0.1978 
     64 N         -45.8842  -24.7238   10.2859 N.am      5 UNK        -0.4737 
     65 C         -46.1840  -23.6217   10.9889 C.2       4 UNK         0.5027 
     66 O         -46.7292  -23.6626   12.0902 O.2       4 UNK        -0.5211 
     67 CA        -45.8307  -22.2447   10.3929 C.3       4 UNK         0.0297 
     68 CB        -44.9532  -21.4511   11.3760 C.3       4 UNK        -0.1993 
     69 N         -45.1301  -22.3244    9.1069 N.am      4 UNK        -0.4486 
     70 C         -45.6513  -22.3783    7.8733 C.2       3 UNK         0.4961 
     71 O         -44.9238  -22.4354    6.8817 O.2       3 UNK        -0.5105 
     72 CA        -47.1827  -22.3479    7.6634 C.3       3 UNK         0.0299 
     73 CB        -47.6647  -20.9147    7.3897 C.3       3 UNK        -0.1972 
     74 N         -47.5444  -23.2071    6.5327 N.am      3 UNK        -0.4305 
     75 C         -47.5377  -24.5425    6.6095 C.2       2 UNK         0.5006 
     76 O         -47.4279  -25.1474    7.6782 O.2       2 UNK        -0.5106 
     77 CA        -47.6249  -25.3234    5.2850 C.3       2 UNK         0.0296 
     78 CB        -46.3731  -25.0808    4.4231 C.3       2 UNK        -0.2002 
     79 N         -47.7364  -26.7602    5.5425 N.am      2 UNK        -0.4032 
     80 C         -48.8644  -27.3780    5.9154 C.2       1 UNK         0.5000 
     81 O         -49.9745  -26.8435    5.8958 O.2       1 UNK        -0.5238 
     82 H82       -46.5436  -31.6674    3.7260 H         1 UNK         0.0889 
     83 H83       -45.5849  -30.8416    4.9557 H         1 UNK         0.0889 
     84 H84       -45.7446  -30.1397    3.3443 H         1 UNK         0.0889 
     85 H85       -46.8745  -29.8214    6.4734 H         1 UNK         0.3028 
     86 H86       -49.6524  -29.3328    6.1004 H         1 UNK         0.0864 
     87 H87       -49.3972  -28.1565    8.4146 H         1 UNK         0.0720 
     88 H88       -47.7060  -28.4774    8.3049 H         1 UNK         0.0720 
     89 H89       -50.9026  -31.8555    8.6944 H         1 UNK         0.0814 
     90 H90       -50.8706  -30.8361    7.2916 H         1 UNK         0.0814 
     91 H91       -51.5591  -28.4060    7.4849 H         1 UNK         0.1469 
     92 H92       -54.1272  -27.4383   10.7656 H         1 UNK         0.1381 
     93 H93       -51.9556  -31.1358   10.7700 H         1 UNK         0.1206 
     94 H94       -53.0435  -30.1575   12.8935 H         1 UNK         0.0813 
     95 H95       -54.1917  -28.8514   12.7243 H         1 UNK         0.0813 
     96 H96       -55.5235  -32.2980   13.8483 H         1 UNK         0.0638 
     97 H97       -55.0790  -30.6882   14.3440 H         1 UNK         0.0638 
     98 H98       -57.7555  -31.5108   13.1163 H         1 UNK         0.0568 
     99 H99       -59.0644  -30.8872   16.6913 H         1 UNK         0.3450 
    100 H100      -59.0508  -29.7561   15.3609 H         1 UNK         0.3450 
    101 H101      -58.1226  -29.4135   12.6147 H         1 UNK         0.2987 
    102 H102      -57.6768  -27.2434   12.2890 H         1 UNK         0.0766 
    103 H103      -58.9547  -25.5148   13.5948 H         1 UNK         0.0798 
    104 H104      -58.4908  -26.2990   15.1035 H         1 UNK         0.0798 
    105 H105      -59.5343  -27.1326   13.9576 H         1 UNK         0.0798 
    106 H106      -55.9577  -26.0188   14.4149 H         1 UNK         0.3198 
    107 H107      -53.6962  -24.9095   11.9653 H         1 UNK         0.0843 
    108 H108      -55.3083  -23.1140   13.8465 H         1 UNK         0.0831 
    109 H109      -55.1395  -22.9059   12.1108 H         1 UNK         0.0831 
    110 H110      -53.7331  -22.7359   13.1479 H         1 UNK         0.0831 
    111 H111      -52.6337  -25.6388   13.7000 H         1 UNK         0.3133 
    112 H112      -52.4337  -24.9230   16.6946 H         1 UNK         0.0566 
    113 H113      -53.9432  -27.5486   17.0922 H         1 UNK         0.0814 
    114 H114      -52.6412  -26.9746   18.1375 H         1 UNK         0.0814 
    115 H115      -54.1355  -26.0640   18.0056 H         1 UNK         0.0814 
    116 H116      -50.8364  -25.9175   15.6261 H         1 UNK         0.3091 
    117 H117      -49.8098  -28.9491   15.5018 H         1 UNK         0.0702 
    118 H118      -50.8202  -29.9042   13.4956 H         1 UNK         0.0785 
    119 H119      -50.6719  -28.3864   12.6185 H         1 UNK         0.0785 
    120 H120      -49.2337  -29.2996   13.0673 H         1 UNK         0.0785 
    121 H121      -49.0143  -26.8057   13.7008 H         1 UNK         0.2998 
    122 H122      -47.5799  -24.7754   16.2442 H         1 UNK         0.0697 
    123 H123      -46.2356  -26.3808   14.0061 H         1 UNK         0.0825 
    124 H124      -45.7149  -26.2972   15.6807 H         1 UNK         0.0825 
    125 H125      -45.6306  -24.8630   14.6681 H         1 UNK         0.0825 
    126 H126      -47.7575  -24.3771   13.4403 H         1 UNK         0.3029 
    127 H127      -51.1192  -23.1363   13.3342 H         1 UNK         0.0897 
    128 H128      -48.3963  -21.7901   12.9019 H         1 UNK         0.0792 
    129 H129      -49.6860  -21.1992   13.9362 H         1 UNK         0.0792 
    130 H130      -49.9290  -21.2734   12.1993 H         1 UNK         0.0792 
    131 H131      -49.1266  -23.6070   11.3191 H         1 UNK         0.3086 
    132 H132      -50.2875  -26.8939   10.4487 H         1 UNK         0.0583 
    133 H133      -50.2739  -24.2695    8.8907 H         1 UNK         0.1020 
    134 H134      -50.5047  -25.8652    8.2530 H         1 UNK         0.1020 
    135 H135      -54.2805  -26.3379    8.3582 H         1 UNK         0.0694 
    136 H136      -52.8435  -26.4223    7.3690 H         1 UNK         0.0694 
    137 H137      -48.1612  -25.3992    9.3359 H         1 UNK         0.2989 
    138 H138      -45.6215  -26.2210   11.6913 H         1 UNK         0.1055 
    139 H139      -45.7447  -28.1292   10.0517 H         1 UNK         0.0806 
    140 H140      -44.4483  -26.9998    9.7003 H         1 UNK         0.0806 
    141 H141      -45.9223  -26.9717    8.7399 H         1 UNK         0.0806 
    142 H142      -45.4718  -24.6165    9.3702 H         1 UNK         0.3061 
    143 H143      -46.7615  -21.6879   10.2775 H         1 UNK         0.0734 
    144 H144      -44.7234  -20.4573   10.9911 H         1 UNK         0.0832 
    145 H145      -45.4597  -21.3131   12.3327 H         1 UNK         0.0832 
    146 H146      -44.0100  -21.9598   11.5792 H         1 UNK         0.0832 
    147 H147      -44.1227  -22.3512    9.1765 H         1 UNK         0.3156 
    148 H148      -47.7014  -22.7242    8.5455 H         1 UNK         0.0589 
    149 H149      -47.1890  -20.4898    6.5047 H         1 UNK         0.0808 
    150 H150      -48.7440  -20.8806    7.2398 H         1 UNK         0.0808 
    151 H151      -47.4340  -20.2578    8.2293 H         1 UNK         0.0808 
    152 H152      -47.5951  -22.7673    5.6252 H         1 UNK         0.3098 
    153 H153      -48.5071  -24.9831    4.7387 H         1 UNK         0.0720 
    154 H154      -46.4123  -25.6555    3.4974 H         1 UNK         0.0791 
    155 H155      -45.4595  -25.3578    4.9513 H         1 UNK         0.0791 
    156 H156      -46.2795  -24.0309    4.1433 H         1 UNK         0.0791 
    157 H157      -46.8708  -27.2731    5.6169 H         1 UNK         0.3028 
@<TRIPOS>BOND
     1    1    2 1    
     2    1   82 1    
     3    1   83 1    
     4    1   84 1    
     5    2    3 2    
     6    2    4 am   BACKBONE|DICT|INTERRES
     7    4    5 1    
     8    4   85 1    
     9    5    6 1    
    10    5   80 1    
    11    5   86 1    
    12    6    7 1    
    13    6   87 1    
    14    6   88 1    
    15    7    8 1    
    16    8    9 1    
    17    8   89 1    
    18    8   90 1    
    19    9   10 ar   
    20    9   14 ar   
    21   10   11 ar   
    22   10   91 1    
    23   11   12 ar   
    24   11   58 1    
    25   12   13 ar   
    26   12   92 1    
    27   13   14 ar   
    28   13   15 1    
    29   14   93 1    
    30   15   16 1    
    31   15   94 1    
    32   15   95 1    
    33   16   17 1    
    34   17   18 1    
    35   17   96 1    
    36   17   97 1    
    37   18   19 1    
    38   18   22 1    
    39   18   98 1    
    40   19   20 am   BACKBONE|DICT|INTERRES
    41   19   21 2    
    42   20   99 1    
    43   20  100 1    
    44   22   23 am   BACKBONE|DICT|INTERRES
    45   22  101 1    
    46   23   24 2    
    47   23   25 1    
    48   25   26 1    
    49   25   27 1    
    50   25  102 1    
    51   26  103 1    
    52   26  104 1    
    53   26  105 1    
    54   27   28 am   BACKBONE|DICT|INTERRES
    55   27  106 1    
    56   28   29 2    
    57   28   30 1    
    58   30   31 1    
    59   30   32 1    
    60   30  107 1    
    61   31  108 1    
    62   31  109 1    
    63   31  110 1    
    64   32   33 am   BACKBONE|DICT|INTERRES
    65   32  111 1    
    66   33   34 2    
    67   33   35 1    
    68   35   36 1    
    69   35   37 1    
    70   35  112 1    
    71   36  113 1    
    72   36  114 1    
    73   36  115 1    
    74   37   38 am   BACKBONE|DICT|INTERRES
    75   37  116 1    
    76   38   39 2    
    77   38   40 1    
    78   40   41 1    
    79   40   42 1    
    80   40  117 1    
    81   41  118 1    
    82   41  119 1    
    83   41  120 1    
    84   42   43 am   BACKBONE|DICT|INTERRES
    85   42  121 1    
    86   43   44 2    
    87   43   45 1    
    88   45   46 1    
    89   45   47 1    
    90   45  122 1    
    91   46  123 1    
    92   46  124 1    
    93   46  125 1    
    94   47   48 am   BACKBONE|DICT|INTERRES
    95   47  126 1    
    96   48   49 2    
    97   48   50 1    
    98   50   51 1    
    99   50   52 1    
   100   50  127 1    
   101   51  128 1    
   102   51  129 1    
   103   51  130 1    
   104   52   53 am   BACKBONE|DICT|INTERRES
   105   52  131 1    
   106   53   54 2    
   107   53   55 1    
   108   55   56 1    
   109   55   59 1    
   110   55  132 1    
   111   56   57 1    
   112   56  133 1    
   113   56  134 1    
   114   57   58 1    
   115   58  135 1    
   116   58  136 1    
   117   59   60 am   BACKBONE|DICT|INTERRES
   118   59  137 1    
   119   60   61 2    
   120   60   62 1    
   121   62   63 1    
   122   62   64 1    
   123   62  138 1    
   124   63  139 1    
   125   63  140 1    
   126   63  141 1    
   127   64   65 am   BACKBONE|DICT|INTERRES
   128   64  142 1    
   129   65   66 2    
   130   65   67 1    
   131   67   68 1    
   132   67   69 1    
   133   67  143 1    
   134   68  144 1    
   135   68  145 1    
   136   68  146 1    
   137   69   70 am   BACKBONE|DICT|INTERRES
   138   69  147 1    
   139   70   71 2    
   140   70   72 1    
   141   72   73 1    
   142   72   74 1    
   143   72  148 1    
   144   73  149 1    
   145   73  150 1    
   146   73  151 1    
   147   74   75 am   BACKBONE|DICT|INTERRES
   148   74  152 1    
   149   75   76 2    
   150   75   77 1    
   151   77   78 1    
   152   77   79 1    
   153   77  153 1    
   154   78  154 1    
   155   78  155 1    
   156   78  156 1    
   157   79   80 am   BACKBONE|DICT|INTERRES
   158   79  157 1    
   159   80   81 2    
@<TRIPOS>SUBSTRUCTURE
     1 UNK         1 GROUP             0       ****    0 ROOT    
