@<TRIPOS>MOLECULE
3R207
157   159    1
SMALL
USER_CHARGES


@<TRIPOS>ATOM
      1 CA        -49.1742  -31.3590    5.5196 C.3       0 UNK        -0.1975 
      2 C         -49.8791  -30.8247    6.7640 C.2       0 UNK         0.4852 
      3 O         -49.7637  -31.4331    7.8248 O.2       0 UNK        -0.5216 
      4 N         -50.6105  -29.7018    6.6919 N.am      1 UNK        -0.4461 
      5 CA        -50.8159  -28.8535    5.5058 C.3       1 UNK         0.0864 
      6 C6        -52.1337  -28.0444    5.5906 C.3       14 UNK        -0.0898 
      7 S7        -53.5827  -29.1488    5.7267 S.3       14 UNK        -0.2598 
      8 C8        -54.4792  -28.4730    7.1621 C.3       14 UNK         0.0286 
      9 C9        -53.6414  -28.4425    8.4344 C.ar      14 UNK        -0.0844 
     10 C10       -53.3456  -27.2204    9.0455 C.ar      14 UNK        -0.0881 
     11 C11       -52.5920  -27.1796   10.2209 C.ar      14 UNK        -0.0643 
     12 C12       -52.1312  -28.3713   10.7864 C.ar      14 UNK        -0.0930 
     13 C13       -52.4145  -29.5997   10.1836 C.ar      14 UNK        -0.0827 
     14 C14       -53.1754  -29.6289    9.0100 C.ar      14 UNK        -0.1249 
     15 C15       -51.8516  -30.8873   10.7706 C.3       14 UNK         0.0141 
     16 S16       -53.1427  -32.0520   11.3073 S.3       14 UNK        -0.2313 
     17 C17       -53.6961  -31.3389   12.8923 C.3       14 UNK        -0.0915 
     18 CA        -55.2120  -31.0107   12.8645 C.3       13 UNK         0.0968 
     19 C         -55.8205  -30.8901   14.2933 C.2       13 UNK         0.5732 
     20 N         -56.5462  -29.8336   14.6412 N.am      13 UNK        -0.7310 
     21 O         -55.6520  -31.7952   15.1072 O.2       13 UNK        -0.5035 
     22 N         -55.4869  -29.8568   11.9993 N.am      13 UNK        -0.4233 
     23 C         -56.6079  -29.6843   11.2888 C.2       13 UNK         0.4989 
     24 O         -57.4970  -30.5333   11.1982 O.2       13 UNK        -0.4996 
     25 CA        -56.7693  -28.3261   10.5723 C.3       12 UNK         0.0216 
     26 CB        -58.2390  -28.0024   10.2287 C.3       12 UNK        -0.1964 
     27 N         -56.1511  -27.2046   11.2944 N.am      12 UNK        -0.4276 
     28 C         -56.4113  -26.8193   12.5521 C.2       12 UNK         0.5020 
     29 O         -57.2478  -27.3518   13.2850 O.2       12 UNK        -0.5489 
     30 CA        -55.5674  -25.6577   13.0985 C.3       11 UNK         0.0294 
     31 CB        -56.4401  -24.4149   13.3359 C.3       11 UNK        -0.2019 
     32 N         -54.8808  -26.0174   14.3413 N.am      11 UNK        -0.4493 
     33 C         -53.9891  -27.0088   14.4722 C.2       11 UNK         0.4932 
     34 O         -53.6517  -27.7633   13.5573 O.2       11 UNK        -0.5029 
     35 CA        -53.3874  -27.1986   15.8743 C.3       10 UNK         0.0280 
     36 CB        -54.1396  -28.2939   16.6452 C.3       10 UNK        -0.1976 
     37 N         -51.9679  -27.5480   15.8079 N.am      10 UNK        -0.4242 
     38 C         -50.9996  -26.7119   15.4142 C.2       10 UNK         0.5072 
     39 O         -51.1908  -25.5356   15.0987 O.2       10 UNK        -0.5224 
     40 CA        -49.5841  -27.3071   15.3349 C.3       9 UNK         0.0343 
     41 CB        -49.3389  -27.9267   13.9476 C.3       9 UNK        -0.2003 
     42 N         -48.5524  -26.3031   15.6058 N.am      9 UNK        -0.4272 
     43 C         -48.3025  -25.7684   16.8103 C.2       9 UNK         0.4988 
     44 O         -48.8967  -26.0958   17.8385 O.2       9 UNK        -0.5108 
     45 CA        -47.1988  -24.7022   16.8964 C.3       8 UNK         0.0248 
     46 CB        -45.8101  -25.3637   16.8900 C.3       8 UNK        -0.2001 
     47 N         -47.2838  -23.7457   15.7913 N.am      8 UNK        -0.4140 
     48 C         -47.5089  -22.4287   15.9184 C.2       8 UNK         0.5028 
     49 O         -47.6409  -21.8556   17.0008 O.2       8 UNK        -0.5428 
     50 CA        -47.6009  -21.5956   14.6220 C.3       7 UNK         0.0264 
     51 CB        -46.2477  -20.9376   14.3075 C.3       7 UNK        -0.1988 
     52 N         -48.0220  -22.3927   13.4694 N.am      7 UNK        -0.4454 
     53 C         -49.2521  -22.9040   13.3125 C.2       7 UNK         0.5027 
     54 O         -50.2158  -22.5476   13.9906 O.2       7 UNK        -0.5083 
     55 CA        -49.4376  -24.0250   12.2643 C.3       6 UNK         0.0844 
     56 C56       -50.5461  -23.6807   11.2409 C.3       14 UNK        -0.0967 
     57 S57       -50.8427  -25.0586   10.0801 S.3       14 UNK        -0.2604 
     58 C58       -52.2694  -25.8481   10.8763 C.3       14 UNK         0.0134 
     59 N         -48.1908  -24.4418   11.6090 N.am      6 UNK        -0.4116 
     60 C         -47.1802  -25.1059   12.1863 C.2       5 UNK         0.5034 
     61 O         -47.1435  -25.3767   13.3862 O.2       5 UNK        -0.5045 
     62 CA        -46.0003  -25.5160   11.2911 C.3       5 UNK         0.0224 
     63 CB        -46.1401  -26.9925   10.8899 C.3       5 UNK        -0.1978 
     64 N         -45.8697  -24.6921   10.0852 N.am      5 UNK        -0.4737 
     65 C         -45.5167  -23.3982   10.0794 C.2       4 UNK         0.5027 
     66 O         -45.2341  -22.7632   11.0954 O.2       4 UNK        -0.5211 
     67 CA        -45.5205  -22.6904    8.7135 C.3       4 UNK         0.0297 
     68 CB        -44.1557  -22.8415    8.0240 C.3       4 UNK        -0.1993 
     69 N         -46.5744  -23.1847    7.8217 N.am      4 UNK        -0.4486 
     70 C         -47.8890  -23.0337    8.0240 C.2       3 UNK         0.4961 
     71 O         -48.3571  -22.4162    8.9789 O.2       3 UNK        -0.5105 
     72 CA        -48.8468  -23.7097    7.0249 C.3       3 UNK         0.0299 
     73 CB        -48.9903  -22.8766    5.7365 C.3       3 UNK        -0.1972 
     74 N         -48.5291  -25.1176    6.7340 N.am      3 UNK        -0.4305 
     75 C         -47.4649  -25.6235    6.0910 C.2       2 UNK         0.5006 
     76 O         -46.5480  -24.9372    5.6374 O.2       2 UNK        -0.5106 
     77 CA        -47.3703  -27.1533    5.9651 C.3       2 UNK         0.0296 
     78 CB        -46.3535  -27.7101    6.9750 C.3       2 UNK        -0.2002 
     79 N         -48.6457  -27.8543    6.1397 N.am      2 UNK        -0.4032 
     80 C         -49.6116  -27.9297    5.2112 C.2       1 UNK         0.5000 
     81 O         -49.5631  -27.3319    4.1352 O.2       1 UNK        -0.5238 
     82 H82       -48.6156  -32.2638    5.7589 H         1 UNK         0.0889 
     83 H83       -48.4666  -30.6338    5.1201 H         1 UNK         0.0889 
     84 H84       -49.8960  -31.6149    4.7446 H         1 UNK         0.0889 
     85 H85       -51.1114  -29.4041    7.5188 H         1 UNK         0.3028 
     86 H86       -50.9084  -29.5039    4.6343 H         1 UNK         0.0864 
     87 H87       -52.1042  -27.3452    6.4273 H         1 UNK         0.0720 
     88 H88       -52.2718  -27.4370    4.6939 H         1 UNK         0.0720 
     89 H89       -55.3657  -29.0839    7.3368 H         1 UNK         0.0814 
     90 H90       -54.8422  -27.4755    6.9098 H         1 UNK         0.0814 
     91 H91       -53.6931  -26.2961    8.6039 H         1 UNK         0.1469 
     92 H92       -51.5449  -28.3377   11.6942 H         1 UNK         0.1381 
     93 H93       -53.3952  -30.5770    8.5377 H         1 UNK         0.1206 
     94 H94       -51.1794  -30.6820   11.6052 H         1 UNK         0.0813 
     95 H95       -51.2450  -31.3783   10.0100 H         1 UNK         0.0813 
     96 H96       -53.1120  -30.4504   13.1384 H         1 UNK         0.0638 
     97 H97       -53.4652  -32.0769   13.6623 H         1 UNK         0.0638 
     98 H98       -55.7158  -31.8796   12.4370 H         1 UNK         0.0568 
     99 H99       -56.7215  -29.0672   13.9983 H         1 UNK         0.3450 
    100 H100      -56.9413  -29.8025   15.5664 H         1 UNK         0.3450 
    101 H101      -54.8157  -29.1013   12.0577 H         1 UNK         0.2987 
    102 H102      -56.2281  -28.4214    9.6316 H         1 UNK         0.0766 
    103 H103      -58.6687  -28.7671    9.5804 H         1 UNK         0.0798 
    104 H104      -58.3235  -27.0512    9.7033 H         1 UNK         0.0798 
    105 H105      -58.8600  -27.9478   11.1236 H         1 UNK         0.0798 
    106 H106      -55.4170  -26.7250   10.7929 H         1 UNK         0.3198 
    107 H107      -54.8020  -25.3982   12.3673 H         1 UNK         0.0843 
    108 H108      -57.2091  -24.5996   14.0874 H         1 UNK         0.0831 
    109 H109      -56.9485  -24.1147   12.4185 H         1 UNK         0.0831 
    110 H110      -55.8428  -23.5649   13.6665 H         1 UNK         0.0831 
    111 H111      -55.1232  -25.4770   15.1588 H         1 UNK         0.3133 
    112 H112      -53.4797  -26.2616   16.4280 H         1 UNK         0.0566 
    113 H113      -54.0395  -29.2666   16.1625 H         1 UNK         0.0814 
    114 H114      -55.2050  -28.0681   16.7064 H         1 UNK         0.0814 
    115 H115      -53.7700  -28.3867   17.6666 H         1 UNK         0.0814 
    116 H116      -51.7314  -28.5092   16.0048 H         1 UNK         0.3091 
    117 H117      -49.4918  -28.0943   16.0864 H         1 UNK         0.0702 
    118 H118      -48.3372  -28.3505   13.8729 H         1 UNK         0.0785 
    119 H119      -49.4512  -27.1936   13.1487 H         1 UNK         0.0785 
    120 H120      -50.0471  -28.7322   13.7493 H         1 UNK         0.0785 
    121 H121      -48.0186  -25.9829   14.8013 H         1 UNK         0.2998 
    122 H122      -47.3209  -24.1885   17.8523 H         1 UNK         0.0697 
    123 H123      -45.0211  -24.6246   17.0296 H         1 UNK         0.0825 
    124 H124      -45.6146  -25.8879   15.9534 H         1 UNK         0.0825 
    125 H125      -45.7196  -26.0910   17.6979 H         1 UNK         0.0825 
    126 H126      -47.2022  -24.1374   14.8585 H         1 UNK         0.3029 
    127 H127      -48.3389  -20.8072   14.7861 H         1 UNK         0.0897 
    128 H128      -45.4710  -21.6801   14.1184 H         1 UNK         0.0792 
    129 H129      -45.9120  -20.3178   15.1402 H         1 UNK         0.0792 
    130 H130      -46.3142  -20.2930   13.4308 H         1 UNK         0.0792 
    131 H131      -47.2928  -22.6975   12.8387 H         1 UNK         0.3086 
    132 H132      -49.7911  -24.8862   12.8330 H         1 UNK         0.0583 
    133 H133      -51.4798  -23.4347   11.7510 H         1 UNK         0.1020 
    134 H134      -50.2795  -22.7918   10.6677 H         1 UNK         0.1020 
    135 H135      -52.0668  -25.9883   11.9400 H         1 UNK         0.0694 
    136 H136      -53.1259  -25.1779   10.8032 H         1 UNK         0.0694 
    137 H137      -48.1239  -24.2222   10.6253 H         1 UNK         0.2989 
    138 H138      -45.0881  -25.4015   11.8813 H         1 UNK         0.1055 
    139 H139      -45.3026  -27.3215   10.2743 H         1 UNK         0.0806 
    140 H140      -47.0627  -27.1756   10.3379 H         1 UNK         0.0806 
    141 H141      -46.1613  -27.6335   11.7728 H         1 UNK         0.0806 
    142 H142      -46.0786  -25.1317    9.2012 H         1 UNK         0.3061 
    143 H143      -45.7006  -21.6281    8.8918 H         1 UNK         0.0734 
    144 H144      -43.9305  -23.8840    7.7950 H         1 UNK         0.0832 
    145 H145      -44.1180  -22.2778    7.0917 H         1 UNK         0.0832 
    146 H146      -43.3533  -22.4662    8.6609 H         1 UNK         0.0832 
    147 H147      -46.2918  -23.7148    6.9993 H         1 UNK         0.3156 
    148 H148      -49.8279  -23.7284    7.5018 H         1 UNK         0.0589 
    149 H149      -49.7199  -23.3195    5.0586 H         1 UNK         0.0808 
    150 H150      -48.0468  -22.7832    5.1982 H         1 UNK         0.0808 
    151 H151      -49.3318  -21.8662    5.9650 H         1 UNK         0.0808 
    152 H152      -49.1981  -25.7821    7.0964 H         1 UNK         0.3098 
    153 H153      -46.9978  -27.3673    4.9609 H         1 UNK         0.0720 
    154 H154      -45.3845  -27.2194    6.8705 H         1 UNK         0.0791 
    155 H155      -46.1896  -28.7774    6.8240 H         1 UNK         0.0791 
    156 H156      -46.6851  -27.5648    8.0023 H         1 UNK         0.0791 
    157 H157      -48.7701  -28.3744    6.9968 H         1 UNK         0.3028 
@<TRIPOS>BOND
     1    1    2 1    
     2    1   82 1    
     3    1   83 1    
     4    1   84 1    
     5    2    3 2    
     6    2    4 am   BACKBONE|DICT|INTERRES
     7    4    5 1    
     8    4   85 1    
     9    5    6 1    
    10    5   80 1    
    11    5   86 1    
    12    6    7 1    
    13    6   87 1    
    14    6   88 1    
    15    7    8 1    
    16    8    9 1    
    17    8   89 1    
    18    8   90 1    
    19    9   10 ar   
    20    9   14 ar   
    21   10   11 ar   
    22   10   91 1    
    23   11   12 ar   
    24   11   58 1    
    25   12   13 ar   
    26   12   92 1    
    27   13   14 ar   
    28   13   15 1    
    29   14   93 1    
    30   15   16 1    
    31   15   94 1    
    32   15   95 1    
    33   16   17 1    
    34   17   18 1    
    35   17   96 1    
    36   17   97 1    
    37   18   19 1    
    38   18   22 1    
    39   18   98 1    
    40   19   20 am   BACKBONE|DICT|INTERRES
    41   19   21 2    
    42   20   99 1    
    43   20  100 1    
    44   22   23 am   BACKBONE|DICT|INTERRES
    45   22  101 1    
    46   23   24 2    
    47   23   25 1    
    48   25   26 1    
    49   25   27 1    
    50   25  102 1    
    51   26  103 1    
    52   26  104 1    
    53   26  105 1    
    54   27   28 am   BACKBONE|DICT|INTERRES
    55   27  106 1    
    56   28   29 2    
    57   28   30 1    
    58   30   31 1    
    59   30   32 1    
    60   30  107 1    
    61   31  108 1    
    62   31  109 1    
    63   31  110 1    
    64   32   33 am   BACKBONE|DICT|INTERRES
    65   32  111 1    
    66   33   34 2    
    67   33   35 1    
    68   35   36 1    
    69   35   37 1    
    70   35  112 1    
    71   36  113 1    
    72   36  114 1    
    73   36  115 1    
    74   37   38 am   BACKBONE|DICT|INTERRES
    75   37  116 1    
    76   38   39 2    
    77   38   40 1    
    78   40   41 1    
    79   40   42 1    
    80   40  117 1    
    81   41  118 1    
    82   41  119 1    
    83   41  120 1    
    84   42   43 am   BACKBONE|DICT|INTERRES
    85   42  121 1    
    86   43   44 2    
    87   43   45 1    
    88   45   46 1    
    89   45   47 1    
    90   45  122 1    
    91   46  123 1    
    92   46  124 1    
    93   46  125 1    
    94   47   48 am   BACKBONE|DICT|INTERRES
    95   47  126 1    
    96   48   49 2    
    97   48   50 1    
    98   50   51 1    
    99   50   52 1    
   100   50  127 1    
   101   51  128 1    
   102   51  129 1    
   103   51  130 1    
   104   52   53 am   BACKBONE|DICT|INTERRES
   105   52  131 1    
   106   53   54 2    
   107   53   55 1    
   108   55   56 1    
   109   55   59 1    
   110   55  132 1    
   111   56   57 1    
   112   56  133 1    
   113   56  134 1    
   114   57   58 1    
   115   58  135 1    
   116   58  136 1    
   117   59   60 am   BACKBONE|DICT|INTERRES
   118   59  137 1    
   119   60   61 2    
   120   60   62 1    
   121   62   63 1    
   122   62   64 1    
   123   62  138 1    
   124   63  139 1    
   125   63  140 1    
   126   63  141 1    
   127   64   65 am   BACKBONE|DICT|INTERRES
   128   64  142 1    
   129   65   66 2    
   130   65   67 1    
   131   67   68 1    
   132   67   69 1    
   133   67  143 1    
   134   68  144 1    
   135   68  145 1    
   136   68  146 1    
   137   69   70 am   BACKBONE|DICT|INTERRES
   138   69  147 1    
   139   70   71 2    
   140   70   72 1    
   141   72   73 1    
   142   72   74 1    
   143   72  148 1    
   144   73  149 1    
   145   73  150 1    
   146   73  151 1    
   147   74   75 am   BACKBONE|DICT|INTERRES
   148   74  152 1    
   149   75   76 2    
   150   75   77 1    
   151   77   78 1    
   152   77   79 1    
   153   77  153 1    
   154   78  154 1    
   155   78  155 1    
   156   78  156 1    
   157   79   80 am   BACKBONE|DICT|INTERRES
   158   79  157 1    
   159   80   81 2    
@<TRIPOS>SUBSTRUCTURE
     1 UNK         1 GROUP             0       ****    0 ROOT    
