@<TRIPOS>MOLECULE
3R207
157   159    1
SMALL
USER_CHARGES


@<TRIPOS>ATOM
      1 CA        -48.8440  -30.5791    9.0140 C.3       0 UNK        -0.1975 
      2 C         -48.9482  -30.4306    7.5046 C.2       0 UNK         0.4852 
      3 O         -48.1298  -30.9908    6.7755 O.2       0 UNK        -0.5216 
      4 N         -49.9315  -29.6539    7.0289 N.am      1 UNK        -0.4461 
      5 CA        -50.1853  -29.3918    5.6015 C.3       1 UNK         0.0864 
      6 C6        -51.6606  -28.9941    5.3352 C.3       14 UNK        -0.0898 
      7 S7        -52.8444  -30.2476    5.9348 S.3       14 UNK        -0.2598 
      8 C8        -53.8378  -29.2942    7.1271 C.3       14 UNK         0.0286 
      9 C9        -53.0225  -28.8365    8.3283 C.ar      14 UNK        -0.0844 
     10 C10       -52.6932  -27.4865    8.4864 C.ar      14 UNK        -0.0881 
     11 C11       -51.9839  -27.0585    9.6116 C.ar      14 UNK        -0.0643 
     12 C12       -51.5924  -27.9951   10.5748 C.ar      14 UNK        -0.0930 
     13 C13       -51.9127  -29.3473   10.4271 C.ar      14 UNK        -0.0827 
     14 C14       -52.6237  -29.7617    9.2972 C.ar      14 UNK        -0.1249 
     15 C15       -51.4625  -30.3591   11.4737 C.3       14 UNK         0.0141 
     16 S16       -52.6239  -30.4931   12.8717 S.3       14 UNK        -0.2313 
     17 C17       -54.0020  -31.4331   12.1265 C.3       14 UNK        -0.0915 
     18 CA        -55.3620  -30.6808   12.0907 C.3       13 UNK         0.0968 
     19 C         -56.1171  -30.7161   13.4498 C.2       13 UNK         0.5732 
     20 N         -56.5034  -31.8989   13.9105 N.am      13 UNK        -0.7310 
     21 O         -56.3593  -29.6988   14.0948 O.2       13 UNK        -0.5035 
     22 N         -55.2276  -29.3257   11.5414 N.am      13 UNK        -0.4233 
     23 C         -56.2041  -28.6570   10.9188 C.2       13 UNK         0.4989 
     24 O         -57.3074  -29.1407   10.6540 O.2       13 UNK        -0.4996 
     25 CA        -55.8783  -27.2061   10.5198 C.3       12 UNK         0.0216 
     26 CB        -57.0276  -26.5048    9.7647 C.3       12 UNK        -0.1964 
     27 N         -55.4284  -26.4001   11.6593 N.am      12 UNK        -0.4276 
     28 C         -56.1113  -26.1059   12.7748 C.2       12 UNK         0.5020 
     29 O         -57.2676  -26.4658   13.0063 O.2       12 UNK        -0.5489 
     30 CA        -55.3691  -25.2403   13.8093 C.3       11 UNK         0.0294 
     31 CB        -56.2856  -24.1556   14.4033 C.3       11 UNK        -0.2019 
     32 N         -54.8020  -26.0376   14.8976 N.am      11 UNK        -0.4493 
     33 C         -53.8249  -26.9434   14.7637 C.2       11 UNK         0.4932 
     34 O         -53.3178  -27.2582   13.6858 O.2       11 UNK        -0.5029 
     35 CA        -53.3302  -27.5998   16.0665 C.3       10 UNK         0.0280 
     36 CB        -54.1487  -28.8578   16.3936 C.3       10 UNK        -0.1976 
     37 N         -51.9147  -27.9639   15.9889 N.am      10 UNK        -0.4242 
     38 C         -50.9052  -27.0894   15.8925 C.2       10 UNK         0.5072 
     39 O         -51.0470  -25.8658   15.9631 O.2       10 UNK        -0.5224 
     40 CA        -49.5140  -27.7046   15.6579 C.3       9 UNK         0.0343 
     41 CB        -49.4451  -28.3794   14.2755 C.3       9 UNK        -0.2003 
     42 N         -48.4508  -26.7029   15.7377 N.am      9 UNK        -0.4272 
     43 C         -47.9444  -26.1966   16.8693 C.2       9 UNK         0.4988 
     44 O         -48.2886  -26.5608   17.9949 O.2       9 UNK        -0.5108 
     45 CA        -46.8614  -25.1147   16.7323 C.3       8 UNK         0.0248 
     46 CB        -45.4937  -25.7551   16.4400 C.3       8 UNK        -0.2001 
     47 N         -47.1778  -24.1467   15.6775 N.am      8 UNK        -0.4140 
     48 C         -47.2547  -22.8176   15.8490 C.2       8 UNK         0.5028 
     49 O         -47.0619  -22.2543   16.9278 O.2       8 UNK        -0.5428 
     50 CA        -47.5893  -21.9514   14.6160 C.3       7 UNK         0.0264 
     51 CB        -46.3079  -21.3364   14.0310 C.3       7 UNK        -0.1988 
     52 N         -48.2907  -22.6918   13.5649 N.am      7 UNK        -0.4454 
     53 C         -49.5603  -23.1173   13.6678 C.2       7 UNK         0.5027 
     54 O         -50.3117  -22.7522   14.5726 O.2       7 UNK        -0.5083 
     55 CA        -50.0822  -24.1425   12.6318 C.3       6 UNK         0.0844 
     56 C56       -51.2904  -23.5934   11.8250 C.3       14 UNK        -0.0967 
     57 S57       -52.4212  -24.9231   11.2979 S.3       14 UNK        -0.2604 
     58 C58       -51.6402  -25.5875    9.7947 C.3       14 UNK         0.0134 
     59 N         -49.0392  -24.6599   11.7382 N.am      6 UNK        -0.4116 
     60 C         -47.9943  -25.4210   12.0924 C.2       5 UNK         0.5034 
     61 O         -47.7518  -25.7528   13.2513 O.2       5 UNK        -0.5045 
     62 CA        -47.0166  -25.8280   10.9774 C.3       5 UNK         0.0224 
     63 CB        -47.4393  -27.1794   10.3757 C.3       5 UNK        -0.1978 
     64 N         -46.8939  -24.8354    9.9038 N.am      5 UNK        -0.4737 
     65 C         -46.5633  -23.5434   10.0585 C.2       4 UNK         0.5027 
     66 O         -46.2775  -23.0378   11.1436 O.2       4 UNK        -0.5211 
     67 CA        -46.6086  -22.6563    8.8006 C.3       4 UNK         0.0297 
     68 CB        -45.1970  -22.4809    8.2199 C.3       4 UNK        -0.1993 
     69 N         -47.5005  -23.1637    7.7517 N.am      4 UNK        -0.4486 
     70 C         -48.8240  -23.3380    7.8612 C.2       3 UNK         0.4961 
     71 O         -49.4642  -23.0670    8.8760 O.2       3 UNK        -0.5105 
     72 CA        -49.5451  -23.9921    6.6697 C.3       3 UNK         0.0299 
     73 CB        -49.7548  -22.9927    5.5155 C.3       3 UNK        -0.1972 
     74 N         -48.9110  -25.2409    6.2178 N.am      3 UNK        -0.4305 
     75 C         -47.7213  -25.4176    5.6196 C.2       2 UNK         0.5006 
     76 O         -46.9702  -24.4914    5.3107 O.2       2 UNK        -0.5106 
     77 CA        -47.2496  -26.8641    5.3819 C.3       2 UNK         0.0296 
     78 CB        -45.9499  -27.1360    6.1607 C.3       2 UNK        -0.2002 
     79 N         -48.2432  -27.8676    5.7737 N.am      2 UNK        -0.4032 
     80 C         -49.2159  -28.3508    4.9878 C.2       1 UNK         0.5000 
     81 O         -49.3760  -27.9903    3.8203 O.2       1 UNK        -0.5238 
     82 H82       -49.3949  -31.4591    9.3435 H         1 UNK         0.0889 
     83 H83       -49.2409  -29.7043    9.5269 H         1 UNK         0.0889 
     84 H84       -47.8029  -30.6954    9.3143 H         1 UNK         0.0889 
     85 H85       -50.6093  -29.2602    7.6694 H         1 UNK         0.3028 
     86 H86       -50.0010  -30.3211    5.0578 H         1 UNK         0.0864 
     87 H87       -51.8845  -28.0236    5.7797 H         1 UNK         0.0720 
     88 H88       -51.8377  -28.8789    4.2641 H         1 UNK         0.0720 
     89 H89       -54.6632  -29.9173    7.4745 H         1 UNK         0.0814 
     90 H90       -54.2947  -28.4443    6.6176 H         1 UNK         0.0814 
     91 H91       -53.0062  -26.7655    7.7434 H         1 UNK         0.1469 
     92 H92       -51.0522  -27.6644   11.4512 H         1 UNK         0.1381 
     93 H93       -52.8723  -30.8057    9.1672 H         1 UNK         0.1206 
     94 H94       -50.4854  -30.0680   11.8611 H         1 UNK         0.0813 
     95 H95       -51.3231  -31.3421   11.0218 H         1 UNK         0.0813 
     96 H96       -54.0904  -32.3810   12.6594 H         1 UNK         0.0638 
     97 H97       -53.7305  -31.7145   11.1099 H         1 UNK         0.0638 
     98 H98       -55.9986  -31.2384   11.4009 H         1 UNK         0.0568 
     99 H99       -56.3202  -32.7467   13.3974 H         1 UNK         0.3450 
    100 H100      -56.9938  -31.9417   14.7898 H         1 UNK         0.3450 
    101 H101      -54.3641  -28.8502   11.7692 H         1 UNK         0.2987 
    102 H102      -55.0331  -27.2623    9.8363 H         1 UNK         0.0766 
    103 H103      -57.2914  -27.0551    8.8608 H         1 UNK         0.0798 
    104 H104      -56.7441  -25.4976    9.4593 H         1 UNK         0.0798 
    105 H105      -57.9291  -26.4299   10.3737 H         1 UNK         0.0798 
    106 H106      -54.4591  -26.1031   11.6215 H         1 UNK         0.3198 
    107 H107      -54.5452  -24.7290   13.3085 H         1 UNK         0.0843 
    108 H108      -57.1060  -24.5871   14.9783 H         1 UNK         0.0831 
    109 H109      -56.7277  -23.5465   13.6137 H         1 UNK         0.0831 
    110 H110      -55.7327  -23.4824   15.0586 H         1 UNK         0.0831 
    111 H111      -55.1844  -25.8741   15.8175 H         1 UNK         0.3133 
    112 H112      -53.4485  -26.8854   16.8840 H         1 UNK         0.0566 
    113 H113      -54.0321  -29.6220   15.6242 H         1 UNK         0.0814 
    114 H114      -55.2127  -28.6269   16.4616 H         1 UNK         0.0814 
    115 H115      -53.8500  -29.2921   17.3477 H         1 UNK         0.0814 
    116 H116      -51.7139  -28.9456   15.8692 H         1 UNK         0.3091 
    117 H117      -49.3380  -28.4603   16.4265 H         1 UNK         0.0702 
    118 H118      -48.4431  -28.7515   14.0611 H         1 UNK         0.0785 
    119 H119      -49.7240  -27.6890   13.4788 H         1 UNK         0.0785 
    120 H120      -50.1226  -29.2313   14.2183 H         1 UNK         0.0785 
    121 H121      -48.1266  -26.3430   14.8425 H         1 UNK         0.2998 
    122 H122      -46.7959  -24.6113   17.6992 H         1 UNK         0.0697 
    123 H123      -44.7019  -25.0059   16.4287 H         1 UNK         0.0825 
    124 H124      -45.4840  -26.2665   15.4764 H         1 UNK         0.0825 
    125 H125      -45.2342  -26.4895   17.2038 H         1 UNK         0.0825 
    126 H126      -47.3686  -24.5290   14.7573 H         1 UNK         0.3029 
    127 H127      -48.2352  -21.1372   14.9522 H         1 UNK         0.0897 
    128 H128      -45.6115  -22.1039   13.6905 H         1 UNK         0.0792 
    129 H129      -45.7887  -20.7327   14.7767 H         1 UNK         0.0792 
    130 H130      -46.5290  -20.6863   13.1842 H         1 UNK         0.0792 
    131 H131      -47.7314  -22.9884   12.7724 H         1 UNK         0.3086 
    132 H132      -50.4305  -24.9870   13.2315 H         1 UNK         0.0583 
    133 H133      -51.8944  -22.9186   12.4351 H         1 UNK         0.1020 
    134 H134      -50.9719  -23.0008   10.9669 H         1 UNK         0.1020 
    135 H135      -51.9681  -24.9937    8.9405 H         1 UNK         0.0694 
    136 H136      -50.5581  -25.4935    9.8359 H         1 UNK         0.0694 
    137 H137      -49.1094  -24.3705   10.7714 H         1 UNK         0.2989 
    138 H138      -46.0322  -25.9417   11.4368 H         1 UNK         0.1055 
    139 H139      -46.6988  -27.5481    9.6660 H         1 UNK         0.0806 
    140 H140      -48.3987  -27.1132    9.8607 H         1 UNK         0.0806 
    141 H141      -47.5409  -27.9381   11.1536 H         1 UNK         0.0806 
    142 H142      -47.1024  -25.1493    8.9683 H         1 UNK         0.3061 
    143 H143      -46.9812  -21.6768    9.1074 H         1 UNK         0.0734 
    144 H144      -44.7843  -23.4277    7.8687 H         1 UNK         0.0832 
    145 H145      -45.1960  -21.7829    7.3824 H         1 UNK         0.0832 
    146 H146      -44.5120  -22.0844    8.9709 H         1 UNK         0.0832 
    147 H147      -47.0733  -23.4477    6.8724 H         1 UNK         0.3156 
    148 H148      -50.5354  -24.2812    7.0244 H         1 UNK         0.0589 
    149 H149      -50.3110  -23.4469    4.6955 H         1 UNK         0.0808 
    150 H150      -48.8126  -22.6191    5.1140 H         1 UNK         0.0808 
    151 H151      -50.3255  -22.1268    5.8534 H         1 UNK         0.0808 
    152 H152      -49.4299  -26.0786    6.4360 H         1 UNK         0.3098 
    153 H153      -47.0352  -26.9644    4.3157 H         1 UNK         0.0720 
    154 H154      -45.1587  -26.4486    5.8577 H         1 UNK         0.0791 
    155 H155      -45.5827  -28.1461    5.9773 H         1 UNK         0.0791 
    156 H156      -46.0875  -27.0194    7.2361 H         1 UNK         0.0791 
    157 H157      -48.1665  -28.2462    6.7062 H         1 UNK         0.3028 
@<TRIPOS>BOND
     1    1    2 1    
     2    1   82 1    
     3    1   83 1    
     4    1   84 1    
     5    2    3 2    
     6    2    4 am   BACKBONE|DICT|INTERRES
     7    4    5 1    
     8    4   85 1    
     9    5    6 1    
    10    5   80 1    
    11    5   86 1    
    12    6    7 1    
    13    6   87 1    
    14    6   88 1    
    15    7    8 1    
    16    8    9 1    
    17    8   89 1    
    18    8   90 1    
    19    9   10 ar   
    20    9   14 ar   
    21   10   11 ar   
    22   10   91 1    
    23   11   12 ar   
    24   11   58 1    
    25   12   13 ar   
    26   12   92 1    
    27   13   14 ar   
    28   13   15 1    
    29   14   93 1    
    30   15   16 1    
    31   15   94 1    
    32   15   95 1    
    33   16   17 1    
    34   17   18 1    
    35   17   96 1    
    36   17   97 1    
    37   18   19 1    
    38   18   22 1    
    39   18   98 1    
    40   19   20 am   BACKBONE|DICT|INTERRES
    41   19   21 2    
    42   20   99 1    
    43   20  100 1    
    44   22   23 am   BACKBONE|DICT|INTERRES
    45   22  101 1    
    46   23   24 2    
    47   23   25 1    
    48   25   26 1    
    49   25   27 1    
    50   25  102 1    
    51   26  103 1    
    52   26  104 1    
    53   26  105 1    
    54   27   28 am   BACKBONE|DICT|INTERRES
    55   27  106 1    
    56   28   29 2    
    57   28   30 1    
    58   30   31 1    
    59   30   32 1    
    60   30  107 1    
    61   31  108 1    
    62   31  109 1    
    63   31  110 1    
    64   32   33 am   BACKBONE|DICT|INTERRES
    65   32  111 1    
    66   33   34 2    
    67   33   35 1    
    68   35   36 1    
    69   35   37 1    
    70   35  112 1    
    71   36  113 1    
    72   36  114 1    
    73   36  115 1    
    74   37   38 am   BACKBONE|DICT|INTERRES
    75   37  116 1    
    76   38   39 2    
    77   38   40 1    
    78   40   41 1    
    79   40   42 1    
    80   40  117 1    
    81   41  118 1    
    82   41  119 1    
    83   41  120 1    
    84   42   43 am   BACKBONE|DICT|INTERRES
    85   42  121 1    
    86   43   44 2    
    87   43   45 1    
    88   45   46 1    
    89   45   47 1    
    90   45  122 1    
    91   46  123 1    
    92   46  124 1    
    93   46  125 1    
    94   47   48 am   BACKBONE|DICT|INTERRES
    95   47  126 1    
    96   48   49 2    
    97   48   50 1    
    98   50   51 1    
    99   50   52 1    
   100   50  127 1    
   101   51  128 1    
   102   51  129 1    
   103   51  130 1    
   104   52   53 am   BACKBONE|DICT|INTERRES
   105   52  131 1    
   106   53   54 2    
   107   53   55 1    
   108   55   56 1    
   109   55   59 1    
   110   55  132 1    
   111   56   57 1    
   112   56  133 1    
   113   56  134 1    
   114   57   58 1    
   115   58  135 1    
   116   58  136 1    
   117   59   60 am   BACKBONE|DICT|INTERRES
   118   59  137 1    
   119   60   61 2    
   120   60   62 1    
   121   62   63 1    
   122   62   64 1    
   123   62  138 1    
   124   63  139 1    
   125   63  140 1    
   126   63  141 1    
   127   64   65 am   BACKBONE|DICT|INTERRES
   128   64  142 1    
   129   65   66 2    
   130   65   67 1    
   131   67   68 1    
   132   67   69 1    
   133   67  143 1    
   134   68  144 1    
   135   68  145 1    
   136   68  146 1    
   137   69   70 am   BACKBONE|DICT|INTERRES
   138   69  147 1    
   139   70   71 2    
   140   70   72 1    
   141   72   73 1    
   142   72   74 1    
   143   72  148 1    
   144   73  149 1    
   145   73  150 1    
   146   73  151 1    
   147   74   75 am   BACKBONE|DICT|INTERRES
   148   74  152 1    
   149   75   76 2    
   150   75   77 1    
   151   77   78 1    
   152   77   79 1    
   153   77  153 1    
   154   78  154 1    
   155   78  155 1    
   156   78  156 1    
   157   79   80 am   BACKBONE|DICT|INTERRES
   158   79  157 1    
   159   80   81 2    
@<TRIPOS>SUBSTRUCTURE
     1 UNK         1 GROUP             0       ****    0 ROOT    
