@<TRIPOS>MOLECULE
3R207
157   159    1
SMALL
USER_CHARGES


@<TRIPOS>ATOM
      1 CA        -53.3452  -25.0054    4.3887 C.3       0 UNK        -0.1975 
      2 C         -52.5166  -25.8140    3.3919 C.2       0 UNK         0.4852 
      3 O         -52.8361  -25.8108    2.2041 O.2       0 UNK        -0.5216 
      4 N         -51.4634  -26.5305    3.8128 N.am      1 UNK        -0.4461 
      5 CA        -50.8972  -26.5731    5.1650 C.3       1 UNK         0.0864 
      6 C6        -49.9183  -27.7659    5.3069 C.3       14 UNK        -0.0898 
      7 S7        -49.4585  -28.0988    7.0392 S.3       14 UNK        -0.2598 
      8 C8        -50.4673  -29.5641    7.4311 C.3       14 UNK         0.0286 
      9 C9        -50.4019  -29.8922    8.9172 C.ar      14 UNK        -0.0844 
     10 C10       -49.1976  -30.3144    9.4883 C.ar      14 UNK        -0.0881 
     11 C11       -49.1128  -30.5787   10.8583 C.ar      14 UNK        -0.0643 
     12 C12       -50.2494  -30.4407   11.6579 C.ar      14 UNK        -0.0930 
     13 C13       -51.4612  -30.0256   11.0989 C.ar      14 UNK        -0.0827 
     14 C14       -51.5341  -29.7552    9.7282 C.ar      14 UNK        -0.1249 
     15 C15       -52.6715  -29.8121   11.9925 C.3       14 UNK         0.0141 
     16 S16       -53.8186  -31.2187   11.9394 S.3       14 UNK        -0.2313 
     17 C17       -54.8751  -30.8562   13.3832 C.3       14 UNK        -0.0915 
     18 CA        -56.1255  -30.0049   13.0343 C.3       13 UNK         0.0968 
     19 C         -57.1624  -30.0146   14.1970 C.2       13 UNK         0.5732 
     20 N         -57.5742  -28.8808   14.7537 N.am      13 UNK        -0.7310 
     21 O         -57.6204  -31.0827   14.5966 O.2       13 UNK        -0.5035 
     22 N         -55.7529  -28.6535   12.5907 N.am      13 UNK        -0.4233 
     23 C         -56.4604  -27.9136   11.7281 C.2       13 UNK         0.4989 
     24 O         -57.4581  -28.3303   11.1360 O.2       13 UNK        -0.4996 
     25 CA        -55.9766  -26.4672   11.4817 C.3       12 UNK         0.0216 
     26 CB        -57.1030  -25.5465   10.9664 C.3       12 UNK        -0.1964 
     27 N         -55.3072  -25.8496   12.6339 N.am      12 UNK        -0.4276 
     28 C         -55.7920  -25.6914   13.8736 C.2       12 UNK         0.5020 
     29 O         -56.9029  -26.0790   14.2429 O.2       12 UNK        -0.5489 
     30 CA        -54.8433  -25.0195   14.8819 C.3       11 UNK         0.0294 
     31 CB        -55.6026  -24.0325   15.7856 C.3       11 UNK        -0.2019 
     32 N         -54.0862  -25.9476   15.7314 N.am      11 UNK        -0.4493 
     33 C         -53.5240  -27.1221   15.4064 C.2       11 UNK         0.4932 
     34 O         -53.6479  -27.6955   14.3237 O.2       11 UNK        -0.5029 
     35 CA        -52.5885  -27.7039   16.4733 C.3       10 UNK         0.0280 
     36 CB        -52.2280  -29.1792   16.2212 C.3       10 UNK        -0.1976 
     37 N         -51.3705  -26.9008   16.4430 N.am      10 UNK        -0.4242 
     38 C         -51.0646  -25.9290   17.3111 C.2       10 UNK         0.5072 
     39 O         -51.7078  -25.6925   18.3346 O.2       10 UNK        -0.5224 
     40 CA        -49.8683  -25.0345   16.9436 C.3       9 UNK         0.0343 
     41 CB        -48.5401  -25.7872   17.1231 C.3       9 UNK        -0.2003 
     42 N         -49.9650  -24.5077   15.5782 N.am      9 UNK        -0.4272 
     43 C         -50.9175  -23.6614   15.1518 C.2       9 UNK         0.4988 
     44 O         -51.7993  -23.1972   15.8744 O.2       9 UNK        -0.5108 
     45 CA        -50.8912  -23.2690   13.6677 C.3       8 UNK         0.0248 
     46 CB        -49.9226  -22.0992   13.4275 C.3       8 UNK        -0.2001 
     47 N         -50.5109  -24.4078   12.8327 N.am      8 UNK        -0.4140 
     48 C         -51.3847  -25.2734   12.3007 C.2       8 UNK         0.5028 
     49 O         -52.6071  -25.1358   12.3561 O.2       8 UNK        -0.5428 
     50 CA        -50.8181  -26.4937   11.5574 C.3       7 UNK         0.0264 
     51 CB        -50.8103  -26.2240   10.0484 C.3       7 UNK        -0.1988 
     52 N         -49.4729  -26.8957   11.9712 N.am      7 UNK        -0.4454 
     53 C         -49.1339  -27.3528   13.1852 C.2       7 UNK         0.5027 
     54 O         -49.9426  -27.5542   14.0903 O.2       7 UNK        -0.5083 
     55 CA        -47.6261  -27.5176   13.4779 C.3       6 UNK         0.0844 
     56 C56       -47.1584  -28.9952   13.4041 C.3       14 UNK        -0.0967 
     57 S57       -46.6903  -29.5794   11.7365 S.3       14 UNK        -0.2604 
     58 C58       -47.7880  -31.0054   11.4670 C.3       14 UNK         0.0134 
     59 N         -46.7847  -26.5977   12.6997 N.am      6 UNK        -0.4116 
     60 C         -46.8770  -25.2611   12.7169 C.2       5 UNK         0.5034 
     61 O         -47.6414  -24.6528   13.4681 O.2       5 UNK        -0.5045 
     62 CA        -46.0626  -24.4650   11.6813 C.3       5 UNK         0.0224 
     63 CB        -44.6925  -24.0478   12.2490 C.3       5 UNK        -0.1978 
     64 N         -45.9427  -25.1125   10.3627 N.am      5 UNK        -0.4737 
     65 C         -45.2489  -26.2123   10.0249 C.2       4 UNK         0.5027 
     66 O         -44.5910  -26.8693   10.8307 O.2       4 UNK        -0.5211 
     67 CA        -45.3265  -26.6993    8.5639 C.3       4 UNK         0.0297 
     68 CB        -46.1181  -28.0137    8.4800 C.3       4 UNK        -0.1993 
     69 N         -45.9247  -25.7262    7.6471 N.am      4 UNK        -0.4486 
     70 C         -45.3118  -24.6198    7.2054 C.2       3 UNK         0.4961 
     71 O         -44.1496  -24.3257    7.4864 O.2       3 UNK        -0.5105 
     72 CA        -46.1256  -23.6703    6.3068 C.3       3 UNK         0.0299 
     73 CB        -45.7516  -23.8832    4.8311 C.3       3 UNK        -0.1972 
     74 N         -47.5832  -23.7695    6.4442 N.am      3 UNK        -0.4305 
     75 C         -48.2995  -23.5595    7.5560 C.2       2 UNK         0.5006 
     76 O         -47.8016  -23.3679    8.6663 O.2       2 UNK        -0.5106 
     77 CA        -49.8322  -23.5851    7.4108 C.3       2 UNK         0.0296 
     78 CB        -50.3504  -22.3101    6.7155 C.3       2 UNK        -0.2002 
     79 N         -50.3629  -24.8040    6.7792 N.am      2 UNK        -0.4032 
     80 C         -50.2160  -25.2313    5.5156 C.2       1 UNK         0.5000 
     81 O         -49.5660  -24.6330    4.6537 O.2       1 UNK        -0.5238 
     82 H82       -52.8018  -24.1196    4.7161 H         1 UNK         0.0889 
     83 H83       -53.6175  -25.5987    5.2604 H         1 UNK         0.0889 
     84 H84       -54.2722  -24.6694    3.9242 H         1 UNK         0.0889 
     85 H85       -50.9307  -27.0316    3.1165 H         1 UNK         0.3028 
     86 H86       -51.7215  -26.7406    5.8605 H         1 UNK         0.0864 
     87 H87       -49.0063  -27.5928    4.7318 H         1 UNK         0.0720 
     88 H88       -50.3646  -28.6701    4.8893 H         1 UNK         0.0720 
     89 H89       -50.1108  -30.4174    6.8524 H         1 UNK         0.0814 
     90 H90       -51.4986  -29.3852    7.1232 H         1 UNK         0.0814 
     91 H91       -48.3166  -30.4113    8.8685 H         1 UNK         0.1469 
     92 H92       -50.1862  -30.6356   12.7196 H         1 UNK         0.1381 
     93 H93       -52.4688  -29.4197    9.3001 H         1 UNK         0.1206 
     94 H94       -53.1986  -28.9095   11.6840 H         1 UNK         0.0813 
     95 H95       -52.3453  -29.6414   13.0184 H         1 UNK         0.0813 
     96 H96       -54.2855  -30.3745   14.1636 H         1 UNK         0.0638 
     97 H97       -55.1738  -31.8232   13.7917 H         1 UNK         0.0638 
     98 H98       -56.6276  -30.5064   12.2050 H         1 UNK         0.0568 
     99 H99       -57.2362  -27.9760   14.4382 H         1 UNK         0.3450 
    100 H100      -58.2513  -28.9232   15.4978 H         1 UNK         0.3450 
    101 H101      -54.9738  -28.2269   13.0872 H         1 UNK         0.2987 
    102 H102      -55.2202  -26.5360   10.6985 H         1 UNK         0.0766 
    103 H103      -56.7341  -24.5395   10.7716 H         1 UNK         0.0798 
    104 H104      -57.9205  -25.4713   11.6844 H         1 UNK         0.0798 
    105 H105      -57.5227  -25.9210   10.0319 H         1 UNK         0.0798 
    106 H106      -54.3364  -25.5669   12.4787 H         1 UNK         0.3198 
    107 H107      -54.1112  -24.4367   14.3217 H         1 UNK         0.0843 
    108 H108      -56.2960  -24.5473   16.4520 H         1 UNK         0.0831 
    109 H109      -56.1851  -23.3273   15.1911 H         1 UNK         0.0831 
    110 H110      -54.9168  -23.4469   16.3985 H         1 UNK         0.0831 
    111 H111      -53.8710  -25.5939   16.6532 H         1 UNK         0.3133 
    112 H112      -53.0844  -27.6368   17.4439 H         1 UNK         0.0566 
    113 H113      -51.5774  -29.5637   17.0065 H         1 UNK         0.0814 
    114 H114      -53.1229  -29.8017   16.2075 H         1 UNK         0.0814 
    115 H115      -51.7137  -29.3164   15.2700 H         1 UNK         0.0814 
    116 H116      -50.8023  -27.0130   15.6038 H         1 UNK         0.3091 
    117 H117      -49.8666  -24.1808   17.6247 H         1 UNK         0.0702 
    118 H118      -47.6876  -25.1662   16.8467 H         1 UNK         0.0785 
    119 H119      -48.5045  -26.6964   16.5238 H         1 UNK         0.0785 
    120 H120      -48.4023  -26.0829   18.1639 H         1 UNK         0.0785 
    121 H121      -49.2480  -24.7947   14.9237 H         1 UNK         0.2998 
    122 H122      -51.8930  -22.9314   13.3925 H         1 UNK         0.0697 
    123 H123      -48.9018  -22.3430   13.7228 H         1 UNK         0.0825 
    124 H124      -50.2247  -21.2228   14.0023 H         1 UNK         0.0825 
    125 H125      -49.9066  -21.8076   12.3772 H         1 UNK         0.0825 
    126 H126      -49.5181  -24.5964   12.7562 H         1 UNK         0.3029 
    127 H127      -51.4922  -27.3225   11.7651 H         1 UNK         0.0897 
    128 H128      -51.7948  -25.9117    9.6969 H         1 UNK         0.0792 
    129 H129      -50.5384  -27.1205    9.4978 H         1 UNK         0.0792 
    130 H130      -50.0959  -25.4430    9.7908 H         1 UNK         0.0792 
    131 H131      -48.7384  -26.7903   11.2875 H         1 UNK         0.3086 
    132 H132      -47.5016  -27.2118   14.5174 H         1 UNK         0.0583 
    133 H133      -46.2724  -29.1099   14.0305 H         1 UNK         0.1020 
    134 H134      -47.9015  -29.6617   13.8464 H         1 UNK         0.1020 
    135 H135      -47.2912  -31.7016   10.7896 H         1 UNK         0.0694 
    136 H136      -47.9391  -31.5503   12.4000 H         1 UNK         0.0694 
    137 H137      -46.1076  -27.0191   12.0699 H         1 UNK         0.2989 
    138 H138      -46.6264  -23.5485   11.4968 H         1 UNK         0.1055 
    139 H139      -44.8142  -23.4574   13.1581 H         1 UNK         0.0806 
    140 H140      -44.1388  -23.4358   11.5369 H         1 UNK         0.0806 
    141 H141      -44.0735  -24.9079   12.5054 H         1 UNK         0.0806 
    142 H142      -46.4708  -24.6535    9.6260 H         1 UNK         0.3061 
    143 H143      -44.3050  -26.8973    8.2322 H         1 UNK         0.0734 
    144 H144      -46.2189  -28.3596    7.4511 H         1 UNK         0.0832 
    145 H145      -45.6125  -28.8048    9.0347 H         1 UNK         0.0832 
    146 H146      -47.1181  -27.9110    8.9029 H         1 UNK         0.0832 
    147 H147      -46.8780  -25.8926    7.3590 H         1 UNK         0.3156 
    148 H148      -45.8467  -22.6521    6.5852 H         1 UNK         0.0589 
    149 H149      -46.0442  -24.8740    4.4810 H         1 UNK         0.0808 
    150 H150      -46.2325  -23.1451    4.1888 H         1 UNK         0.0808 
    151 H151      -44.6752  -23.7880    4.6808 H         1 UNK         0.0808 
    152 H152      -48.1123  -23.9661    5.5964 H         1 UNK         0.3098 
    153 H153      -50.2389  -23.5730    8.4226 H         1 UNK         0.0720 
    154 H154      -51.4399  -22.2904    6.6876 H         1 UNK         0.0791 
    155 H155      -49.9886  -22.2201    5.6909 H         1 UNK         0.0791 
    156 H156      -50.0249  -21.4173    7.2510 H         1 UNK         0.0791 
    157 H157      -50.8761  -25.4070    7.4064 H         1 UNK         0.3028 
@<TRIPOS>BOND
     1    1    2 1    
     2    1   82 1    
     3    1   83 1    
     4    1   84 1    
     5    2    3 2    
     6    2    4 am   BACKBONE|DICT|INTERRES
     7    4    5 1    
     8    4   85 1    
     9    5    6 1    
    10    5   80 1    
    11    5   86 1    
    12    6    7 1    
    13    6   87 1    
    14    6   88 1    
    15    7    8 1    
    16    8    9 1    
    17    8   89 1    
    18    8   90 1    
    19    9   10 ar   
    20    9   14 ar   
    21   10   11 ar   
    22   10   91 1    
    23   11   12 ar   
    24   11   58 1    
    25   12   13 ar   
    26   12   92 1    
    27   13   14 ar   
    28   13   15 1    
    29   14   93 1    
    30   15   16 1    
    31   15   94 1    
    32   15   95 1    
    33   16   17 1    
    34   17   18 1    
    35   17   96 1    
    36   17   97 1    
    37   18   19 1    
    38   18   22 1    
    39   18   98 1    
    40   19   20 am   BACKBONE|DICT|INTERRES
    41   19   21 2    
    42   20   99 1    
    43   20  100 1    
    44   22   23 am   BACKBONE|DICT|INTERRES
    45   22  101 1    
    46   23   24 2    
    47   23   25 1    
    48   25   26 1    
    49   25   27 1    
    50   25  102 1    
    51   26  103 1    
    52   26  104 1    
    53   26  105 1    
    54   27   28 am   BACKBONE|DICT|INTERRES
    55   27  106 1    
    56   28   29 2    
    57   28   30 1    
    58   30   31 1    
    59   30   32 1    
    60   30  107 1    
    61   31  108 1    
    62   31  109 1    
    63   31  110 1    
    64   32   33 am   BACKBONE|DICT|INTERRES
    65   32  111 1    
    66   33   34 2    
    67   33   35 1    
    68   35   36 1    
    69   35   37 1    
    70   35  112 1    
    71   36  113 1    
    72   36  114 1    
    73   36  115 1    
    74   37   38 am   BACKBONE|DICT|INTERRES
    75   37  116 1    
    76   38   39 2    
    77   38   40 1    
    78   40   41 1    
    79   40   42 1    
    80   40  117 1    
    81   41  118 1    
    82   41  119 1    
    83   41  120 1    
    84   42   43 am   BACKBONE|DICT|INTERRES
    85   42  121 1    
    86   43   44 2    
    87   43   45 1    
    88   45   46 1    
    89   45   47 1    
    90   45  122 1    
    91   46  123 1    
    92   46  124 1    
    93   46  125 1    
    94   47   48 am   BACKBONE|DICT|INTERRES
    95   47  126 1    
    96   48   49 2    
    97   48   50 1    
    98   50   51 1    
    99   50   52 1    
   100   50  127 1    
   101   51  128 1    
   102   51  129 1    
   103   51  130 1    
   104   52   53 am   BACKBONE|DICT|INTERRES
   105   52  131 1    
   106   53   54 2    
   107   53   55 1    
   108   55   56 1    
   109   55   59 1    
   110   55  132 1    
   111   56   57 1    
   112   56  133 1    
   113   56  134 1    
   114   57   58 1    
   115   58  135 1    
   116   58  136 1    
   117   59   60 am   BACKBONE|DICT|INTERRES
   118   59  137 1    
   119   60   61 2    
   120   60   62 1    
   121   62   63 1    
   122   62   64 1    
   123   62  138 1    
   124   63  139 1    
   125   63  140 1    
   126   63  141 1    
   127   64   65 am   BACKBONE|DICT|INTERRES
   128   64  142 1    
   129   65   66 2    
   130   65   67 1    
   131   67   68 1    
   132   67   69 1    
   133   67  143 1    
   134   68  144 1    
   135   68  145 1    
   136   68  146 1    
   137   69   70 am   BACKBONE|DICT|INTERRES
   138   69  147 1    
   139   70   71 2    
   140   70   72 1    
   141   72   73 1    
   142   72   74 1    
   143   72  148 1    
   144   73  149 1    
   145   73  150 1    
   146   73  151 1    
   147   74   75 am   BACKBONE|DICT|INTERRES
   148   74  152 1    
   149   75   76 2    
   150   75   77 1    
   151   77   78 1    
   152   77   79 1    
   153   77  153 1    
   154   78  154 1    
   155   78  155 1    
   156   78  156 1    
   157   79   80 am   BACKBONE|DICT|INTERRES
   158   79  157 1    
   159   80   81 2    
@<TRIPOS>SUBSTRUCTURE
     1 UNK         1 GROUP             0       ****    0 ROOT    
