@<TRIPOS>MOLECULE
3R207
157   159    1
SMALL
USER_CHARGES


@<TRIPOS>ATOM
      1 CA        -44.8304  -29.3332    8.0559 C.3       0 UNK        -0.1975 
      2 C         -45.6805  -28.7761    6.9247 C.2       0 UNK         0.4852 
      3 O         -45.1319  -28.2484    5.9564 O.2       0 UNK        -0.5216 
      4 N         -47.0118  -28.8802    7.0508 N.am      1 UNK        -0.4461 
      5 CA        -48.0374  -28.4277    6.0990 C.3       1 UNK         0.0864 
      6 C6        -49.4739  -28.6522    6.6442 C.3       14 UNK        -0.0898 
      7 S7        -49.7610  -30.3259    7.3180 S.3       14 UNK        -0.2598 
      8 C8        -50.2524  -29.9518    9.0362 C.3       14 UNK         0.0286 
      9 C9        -51.7564  -29.7410    9.1699 C.ar      14 UNK        -0.0844 
     10 C10       -52.3645  -28.5794    8.6802 C.ar      14 UNK        -0.0881 
     11 C11       -53.7463  -28.3861    8.8022 C.ar      14 UNK        -0.0643 
     12 C12       -54.5159  -29.3765    9.4164 C.ar      14 UNK        -0.0930 
     13 C13       -53.9244  -30.5379    9.9196 C.ar      14 UNK        -0.0827 
     14 C14       -52.5439  -30.7138    9.7935 C.ar      14 UNK        -0.1249 
     15 C15       -54.7759  -31.6086   10.5851 C.3       14 UNK         0.0141 
     16 S16       -54.9992  -31.2578   12.3570 S.3       14 UNK        -0.2313 
     17 C17       -56.8110  -31.0542   12.4774 C.3       14 UNK        -0.0915 
     18 CA        -57.3111  -29.6394   12.0795 C.3       13 UNK         0.0968 
     19 C         -58.8605  -29.5400   12.1774 C.2       13 UNK         0.5732 
     20 N         -59.4246  -28.6576   12.9940 N.am      13 UNK        -0.7310 
     21 O         -59.5664  -30.2723   11.4879 O.2       13 UNK        -0.5035 
     22 N         -56.5892  -28.5852   12.8042 N.am      13 UNK        -0.4233 
     23 C         -56.3858  -27.3352   12.3826 C.2       13 UNK         0.4989 
     24 O         -56.7701  -26.9121   11.2922 O.2       13 UNK        -0.4996 
     25 CA        -55.6309  -26.3816   13.3305 C.3       12 UNK         0.0216 
     26 CB        -56.6037  -25.7133   14.3207 C.3       12 UNK        -0.1964 
     27 N         -54.4746  -26.9553   14.0392 N.am      12 UNK        -0.4276 
     28 C         -54.4342  -27.9540   14.9349 C.2       12 UNK         0.5020 
     29 O         -55.4122  -28.6202   15.2789 O.2       12 UNK        -0.5489 
     30 CA        -53.0685  -28.2435   15.5773 C.3       11 UNK         0.0294 
     31 CB        -52.0918  -28.8552   14.5584 C.3       11 UNK        -0.2019 
     32 N         -52.4695  -27.0612   16.2053 N.am      11 UNK        -0.4493 
     33 C         -53.0190  -26.3718   17.2205 C.2       11 UNK         0.4932 
     34 O         -54.1023  -26.6577   17.7333 O.2       11 UNK        -0.5029 
     35 CA        -52.2190  -25.1705   17.7665 C.3       10 UNK         0.0280 
     36 CB        -52.7099  -24.6903   19.1493 C.3       10 UNK        -0.1976 
     37 N         -50.7718  -25.4043   17.7795 N.am      10 UNK        -0.4242 
     38 C         -50.1077  -26.3856   18.4148 C.2       10 UNK         0.5072 
     39 O         -50.6416  -27.1792   19.1919 O.2       10 UNK        -0.5224 
     40 CA        -48.5924  -26.5144   18.1333 C.3       9 UNK         0.0343 
     41 CB        -48.1209  -27.9846   18.1484 C.3       9 UNK        -0.2003 
     42 N         -48.1465  -25.8470   16.9013 N.am      9 UNK        -0.4272 
     43 C         -48.5773  -26.0826   15.6533 C.2       9 UNK         0.4988 
     44 O         -49.4046  -26.9453   15.3504 O.2       9 UNK        -0.5108 
     45 CA        -48.0404  -25.1364   14.5673 C.3       8 UNK         0.0248 
     46 CB        -47.1843  -25.9164   13.5595 C.3       8 UNK        -0.2001 
     47 N         -49.1249  -24.4372   13.8674 N.am      8 UNK        -0.4140 
     48 C         -50.0791  -23.7018   14.4611 C.2       8 UNK         0.5028 
     49 O         -50.1157  -23.4864   15.6744 O.2       8 UNK        -0.5428 
     50 CA        -51.1775  -23.0880   13.5762 C.3       7 UNK         0.0264 
     51 CB        -50.9392  -21.5796   13.4000 C.3       7 UNK        -0.1988 
     52 N         -51.2988  -23.7008   12.2531 N.am      7 UNK        -0.4454 
     53 C         -51.8237  -24.9027   11.9843 C.2       7 UNK         0.5027 
     54 O         -52.2574  -25.6553   12.8574 O.2       7 UNK        -0.5083 
     55 CA        -51.8805  -25.3517   10.5029 C.3       6 UNK         0.0844 
     56 C56       -53.3131  -25.1727    9.9289 C.3       14 UNK        -0.0967 
     57 S57       -53.4504  -25.6365    8.1658 S.3       14 UNK        -0.2604 
     58 C58       -54.4558  -27.1571    8.2335 C.3       14 UNK         0.0134 
     59 N         -50.8226  -24.7706    9.6568 N.am      6 UNK        -0.4116 
     60 C         -50.6672  -23.4979    9.2601 C.2       5 UNK         0.5034 
     61 O         -51.4160  -22.5819    9.6023 O.2       5 UNK        -0.5045 
     62 CA        -49.4455  -23.1948    8.3681 C.3       5 UNK         0.0224 
     63 CB        -48.9651  -21.7336    8.4951 C.3       5 UNK        -0.1978 
     64 N         -48.3259  -24.1243    8.5709 N.am      5 UNK        -0.4737 
     65 C         -47.6487  -24.3525    9.7069 C.2       4 UNK         0.5027 
     66 O         -47.8879  -23.7952   10.7782 O.2       4 UNK        -0.5211 
     67 CA        -46.5512  -25.4234    9.6442 C.3       4 UNK         0.0297 
     68 CB        -47.1650  -26.8147    9.8746 C.3       4 UNK        -0.1993 
     69 N         -45.8436  -25.4103    8.3613 N.am      4 UNK        -0.4486 
     70 C         -44.7448  -24.6868    8.1038 C.2       3 UNK         0.4961 
     71 O         -44.1997  -23.9586    8.9337 O.2       3 UNK        -0.5105 
     72 CA        -44.1246  -24.8007    6.6976 C.3       3 UNK         0.0299 
     73 CB        -42.8748  -25.6957    6.7366 C.3       3 UNK        -0.1972 
     74 N         -45.0591  -25.3276    5.6994 N.am      3 UNK        -0.4305 
     75 C         -45.9358  -24.5767    5.0155 C.2       2 UNK         0.5006 
     76 O         -45.9985  -23.3500    5.1027 O.2       2 UNK        -0.5106 
     77 CA        -46.9341  -25.3102    4.0952 C.3       2 UNK         0.0296 
     78 CB        -46.3874  -25.3824    2.6603 C.3       2 UNK        -0.2002 
     79 N         -47.2937  -26.6600    4.5469 N.am      2 UNK        -0.4032 
     80 C         -47.8452  -26.9411    5.7353 C.2       1 UNK         0.5000 
     81 O         -48.1310  -26.0796    6.5701 O.2       1 UNK        -0.5238 
     82 H82       -44.0969  -30.0359    7.6618 H         1 UNK         0.0889 
     83 H83       -45.4318  -29.8543    8.8005 H         1 UNK         0.0889 
     84 H84       -44.2954  -28.5255    8.5545 H         1 UNK         0.0889 
     85 H85       -47.3850  -29.3520    7.8617 H         1 UNK         0.3028 
     86 H86       -47.9214  -29.0268    5.1937 H         1 UNK         0.0864 
     87 H87       -50.2076  -28.4781    5.8549 H         1 UNK         0.0720 
     88 H88       -49.6956  -27.9220    7.4226 H         1 UNK         0.0720 
     89 H89       -49.7173  -29.0784    9.4112 H         1 UNK         0.0814 
     90 H90       -49.9348  -30.7836    9.6668 H         1 UNK         0.0814 
     91 H91       -51.7647  -27.8290    8.1897 H         1 UNK         0.1469 
     92 H92       -55.5842  -29.2424    9.4903 H         1 UNK         0.1381 
     93 H93       -52.0838  -31.6136   10.1789 H         1 UNK         0.1206 
     94 H94       -55.7398  -31.6824   10.0797 H         1 UNK         0.0813 
     95 H95       -54.3042  -32.5865   10.4769 H         1 UNK         0.0813 
     96 H96       -57.2912  -31.8229   11.8692 H         1 UNK         0.0638 
     97 H97       -57.0933  -31.2697   13.5095 H         1 UNK         0.0638 
     98 H98       -57.0974  -29.5113   11.0202 H         1 UNK         0.0568 
     99 H99       -58.8551  -28.0550   13.5651 H         1 UNK         0.3450 
    100 H100      -60.4296  -28.6015   13.0425 H         1 UNK         0.3450 
    101 H101      -56.2397  -28.8267   13.7305 H         1 UNK         0.2987 
    102 H102      -55.2173  -25.5913   12.7025 H         1 UNK         0.0766 
    103 H103      -57.0496  -26.4355   15.0053 H         1 UNK         0.0798 
    104 H104      -56.0980  -24.9558   14.9196 H         1 UNK         0.0798 
    105 H105      -57.4197  -25.2176   13.7929 H         1 UNK         0.0798 
    106 H106      -53.5844  -26.5231   13.7914 H         1 UNK         0.3198 
    107 H107      -53.2314  -28.9809   16.3661 H         1 UNK         0.0843 
    108 H108      -52.5338  -29.7212   14.0632 H         1 UNK         0.0831 
    109 H109      -51.1758  -29.1920   15.0441 H         1 UNK         0.0831 
    110 H110      -51.8106  -28.1437   13.7815 H         1 UNK         0.0831 
    111 H111      -51.5542  -26.7862   15.8657 H         1 UNK         0.3133 
    112 H112      -52.3862  -24.3560   17.0604 H         1 UNK         0.0566 
    113 H113      -52.1376  -23.8301   19.4964 H         1 UNK         0.0814 
    114 H114      -53.7565  -24.3859   19.1089 H         1 UNK         0.0814 
    115 H115      -52.6288  -25.4742   19.9029 H         1 UNK         0.0814 
    116 H116      -50.2482  -24.7997   17.1512 H         1 UNK         0.3091 
    117 H117      -48.0927  -25.9989   18.9546 H         1 UNK         0.0702 
    118 H118      -47.0499  -28.0603   17.9611 H         1 UNK         0.0785 
    119 H119      -48.6366  -28.5816   17.3953 H         1 UNK         0.0785 
    120 H120      -48.3113  -28.4492   19.1167 H         1 UNK         0.0785 
    121 H121      -47.4911  -25.0892   17.0379 H         1 UNK         0.2998 
    122 H122      -47.4117  -24.3742   15.0319 H         1 UNK         0.0697 
    123 H123      -47.7628  -26.7016   13.0728 H         1 UNK         0.0825 
    124 H124      -46.3404  -26.3975   14.0556 H         1 UNK         0.0825 
    125 H125      -46.7754  -25.2613   12.7913 H         1 UNK         0.0825 
    126 H126      -49.1504  -24.5272   12.8614 H         1 UNK         0.3029 
    127 H127      -52.1254  -23.2269   14.1008 H         1 UNK         0.0897 
    128 H128      -51.7534  -21.1110   12.8466 H         1 UNK         0.0792 
    129 H129      -50.8748  -21.0773   14.3664 H         1 UNK         0.0792 
    130 H130      -50.0101  -21.3790   12.8645 H         1 UNK         0.0792 
    131 H131      -51.0341  -23.1276   11.4586 H         1 UNK         0.3086 
    132 H132      -51.6708  -26.4221   10.5174 H         1 UNK         0.0583 
    133 H133      -54.0270  -25.7606   10.5088 H         1 UNK         0.1020 
    134 H134      -53.6356  -24.1340   10.0228 H         1 UNK         0.1020 
    135 H135      -55.3627  -26.9456    8.8026 H         1 UNK         0.0694 
    136 H136      -54.7796  -27.3948    7.2196 H         1 UNK         0.0694 
    137 H137      -50.1283  -25.4264    9.3322 H         1 UNK         0.2989 
    138 H138      -49.7834  -23.3451    7.3414 H         1 UNK         0.1055 
    139 H139      -48.1115  -21.5403    7.8453 H         1 UNK         0.0806 
    140 H140      -48.6706  -21.4917    9.5169 H         1 UNK         0.0806 
    141 H141      -49.7522  -21.0346    8.2095 H         1 UNK         0.0806 
    142 H142      -48.1092  -24.7137    7.7678 H         1 UNK         0.3061 
    143 H143      -45.8454  -25.2259   10.4539 H         1 UNK         0.0734 
    144 H144      -47.7455  -26.8421   10.7954 H         1 UNK         0.0832 
    145 H145      -47.8404  -27.0998    9.0691 H         1 UNK         0.0832 
    146 H146      -46.3927  -27.5786    9.9584 H         1 UNK         0.0832 
    147 H147      -46.2802  -25.9111    7.5985 H         1 UNK         0.3156 
    148 H148      -43.8073  -23.7997    6.3977 H         1 UNK         0.0589 
    149 H149      -43.1127  -26.7126    7.0496 H         1 UNK         0.0808 
    150 H150      -42.3953  -25.7497    5.7591 H         1 UNK         0.0808 
    151 H151      -42.1361  -25.3043    7.4375 H         1 UNK         0.0808 
    152 H152      -45.0730  -26.3381    5.5792 H         1 UNK         0.3098 
    153 H153      -47.8519  -24.7185    4.0809 H         1 UNK         0.0720 
    154 H154      -47.1225  -25.8053    1.9752 H         1 UNK         0.0791 
    155 H155      -45.4837  -25.9907    2.6030 H         1 UNK         0.0791 
    156 H156      -46.1354  -24.3883    2.2879 H         1 UNK         0.0791 
    157 H157      -47.0351  -27.4241    3.9388 H         1 UNK         0.3028 
@<TRIPOS>BOND
     1    1    2 1    
     2    1   82 1    
     3    1   83 1    
     4    1   84 1    
     5    2    3 2    
     6    2    4 am   BACKBONE|DICT|INTERRES
     7    4    5 1    
     8    4   85 1    
     9    5    6 1    
    10    5   80 1    
    11    5   86 1    
    12    6    7 1    
    13    6   87 1    
    14    6   88 1    
    15    7    8 1    
    16    8    9 1    
    17    8   89 1    
    18    8   90 1    
    19    9   10 ar   
    20    9   14 ar   
    21   10   11 ar   
    22   10   91 1    
    23   11   12 ar   
    24   11   58 1    
    25   12   13 ar   
    26   12   92 1    
    27   13   14 ar   
    28   13   15 1    
    29   14   93 1    
    30   15   16 1    
    31   15   94 1    
    32   15   95 1    
    33   16   17 1    
    34   17   18 1    
    35   17   96 1    
    36   17   97 1    
    37   18   19 1    
    38   18   22 1    
    39   18   98 1    
    40   19   20 am   BACKBONE|DICT|INTERRES
    41   19   21 2    
    42   20   99 1    
    43   20  100 1    
    44   22   23 am   BACKBONE|DICT|INTERRES
    45   22  101 1    
    46   23   24 2    
    47   23   25 1    
    48   25   26 1    
    49   25   27 1    
    50   25  102 1    
    51   26  103 1    
    52   26  104 1    
    53   26  105 1    
    54   27   28 am   BACKBONE|DICT|INTERRES
    55   27  106 1    
    56   28   29 2    
    57   28   30 1    
    58   30   31 1    
    59   30   32 1    
    60   30  107 1    
    61   31  108 1    
    62   31  109 1    
    63   31  110 1    
    64   32   33 am   BACKBONE|DICT|INTERRES
    65   32  111 1    
    66   33   34 2    
    67   33   35 1    
    68   35   36 1    
    69   35   37 1    
    70   35  112 1    
    71   36  113 1    
    72   36  114 1    
    73   36  115 1    
    74   37   38 am   BACKBONE|DICT|INTERRES
    75   37  116 1    
    76   38   39 2    
    77   38   40 1    
    78   40   41 1    
    79   40   42 1    
    80   40  117 1    
    81   41  118 1    
    82   41  119 1    
    83   41  120 1    
    84   42   43 am   BACKBONE|DICT|INTERRES
    85   42  121 1    
    86   43   44 2    
    87   43   45 1    
    88   45   46 1    
    89   45   47 1    
    90   45  122 1    
    91   46  123 1    
    92   46  124 1    
    93   46  125 1    
    94   47   48 am   BACKBONE|DICT|INTERRES
    95   47  126 1    
    96   48   49 2    
    97   48   50 1    
    98   50   51 1    
    99   50   52 1    
   100   50  127 1    
   101   51  128 1    
   102   51  129 1    
   103   51  130 1    
   104   52   53 am   BACKBONE|DICT|INTERRES
   105   52  131 1    
   106   53   54 2    
   107   53   55 1    
   108   55   56 1    
   109   55   59 1    
   110   55  132 1    
   111   56   57 1    
   112   56  133 1    
   113   56  134 1    
   114   57   58 1    
   115   58  135 1    
   116   58  136 1    
   117   59   60 am   BACKBONE|DICT|INTERRES
   118   59  137 1    
   119   60   61 2    
   120   60   62 1    
   121   62   63 1    
   122   62   64 1    
   123   62  138 1    
   124   63  139 1    
   125   63  140 1    
   126   63  141 1    
   127   64   65 am   BACKBONE|DICT|INTERRES
   128   64  142 1    
   129   65   66 2    
   130   65   67 1    
   131   67   68 1    
   132   67   69 1    
   133   67  143 1    
   134   68  144 1    
   135   68  145 1    
   136   68  146 1    
   137   69   70 am   BACKBONE|DICT|INTERRES
   138   69  147 1    
   139   70   71 2    
   140   70   72 1    
   141   72   73 1    
   142   72   74 1    
   143   72  148 1    
   144   73  149 1    
   145   73  150 1    
   146   73  151 1    
   147   74   75 am   BACKBONE|DICT|INTERRES
   148   74  152 1    
   149   75   76 2    
   150   75   77 1    
   151   77   78 1    
   152   77   79 1    
   153   77  153 1    
   154   78  154 1    
   155   78  155 1    
   156   78  156 1    
   157   79   80 am   BACKBONE|DICT|INTERRES
   158   79  157 1    
   159   80   81 2    
@<TRIPOS>SUBSTRUCTURE
     1 UNK         1 GROUP             0       ****    0 ROOT    
