@<TRIPOS>MOLECULE
3R207
157   159    1
SMALL
USER_CHARGES


@<TRIPOS>ATOM
      1 CA        -48.3965  -31.5477    8.3261 C.3       0 UNK        -0.1975 
      2 C         -48.9640  -30.3789    7.5350 C.2       0 UNK         0.4852 
      3 O         -49.2661  -29.3407    8.1220 O.2       0 UNK        -0.5216 
      4 N         -49.1002  -30.5396    6.2101 N.am      1 UNK        -0.4461 
      5 CA        -49.6078  -29.5629    5.2351 C.3       1 UNK         0.0864 
      6 C6        -51.0483  -29.0748    5.5462 C.3       14 UNK        -0.0898 
      7 S7        -51.8452  -28.1980    4.1541 S.3       14 UNK        -0.2598 
      8 C8        -53.6208  -28.5145    4.4554 C.3       14 UNK         0.0286 
      9 C9        -54.0389  -28.3012    5.9076 C.ar      14 UNK        -0.0844 
     10 C10       -53.6634  -27.1443    6.6001 C.ar      14 UNK        -0.0881 
     11 C11       -53.9608  -27.0002    7.9580 C.ar      14 UNK        -0.0643 
     12 C12       -54.6953  -27.9938    8.6098 C.ar      14 UNK        -0.0930 
     13 C13       -55.1068  -29.1383    7.9208 C.ar      14 UNK        -0.0827 
     14 C14       -54.7736  -29.2889    6.5719 C.ar      14 UNK        -0.1249 
     15 C15       -55.8738  -30.2258    8.6538 C.3       14 UNK         0.0141 
     16 S16       -54.7237  -31.2685    9.5987 S.3       14 UNK        -0.2313 
     17 C17       -55.7780  -31.8592   10.9675 C.3       14 UNK        -0.0915 
     18 CA        -56.1242  -30.7801   12.0423 C.3       13 UNK         0.0968 
     19 C         -56.9070  -31.3766   13.2520 C.2       13 UNK         0.5732 
     20 N         -56.6885  -30.9251   14.4825 N.am      13 UNK        -0.7310 
     21 O         -57.7581  -32.2445   13.0702 O.2       13 UNK        -0.5035 
     22 N         -54.9960  -29.9103   12.4142 N.am      13 UNK        -0.4233 
     23 C         -53.8369  -30.2951   12.9633 C.2       13 UNK         0.4989 
     24 O         -53.5251  -31.4649   13.1897 O.2       13 UNK        -0.4996 
     25 CA        -52.8617  -29.1673   13.3503 C.3       12 UNK         0.0216 
     26 CB        -51.9236  -28.8587   12.1686 C.3       12 UNK        -0.1964 
     27 N         -53.5050  -27.9244   13.8100 N.am      12 UNK        -0.4276 
     28 C         -54.4070  -27.8284   14.7995 C.2       12 UNK         0.5020 
     29 O         -54.8263  -28.7922   15.4433 O.2       12 UNK        -0.5489 
     30 CA        -54.8965  -26.4146   15.1346 C.3       11 UNK         0.0294 
     31 CB        -56.1793  -26.4053   15.9892 C.3       11 UNK        -0.2019 
     32 N         -53.8229  -25.7279   15.8405 N.am      11 UNK        -0.4493 
     33 C         -53.5790  -24.4145   15.8254 C.2       11 UNK         0.4932 
     34 O         -54.2910  -23.5970   15.2410 O.2       11 UNK        -0.5029 
     35 CA        -52.3244  -23.9197   16.5722 C.3       10 UNK         0.0280 
     36 CB        -52.6344  -23.6203   18.0516 C.3       10 UNK        -0.1976 
     37 N         -51.1477  -24.7902   16.4242 N.am      10 UNK        -0.4242 
     38 C         -50.9434  -26.0323   16.8878 C.2       10 UNK         0.5072 
     39 O         -51.7563  -26.6416   17.5842 O.2       10 UNK        -0.5224 
     40 CA        -49.6560  -26.7557   16.4543 C.3       9 UNK         0.0343 
     41 CB        -49.9984  -27.8964   15.4841 C.3       9 UNK        -0.2003 
     42 N         -48.6740  -25.8729   15.8193 N.am      9 UNK        -0.4272 
     43 C         -47.8442  -25.0647   16.4927 C.2       9 UNK         0.4988 
     44 O         -47.8036  -24.9942   17.7216 O.2       9 UNK        -0.5108 
     45 CA        -46.9081  -24.1765   15.6574 C.3       8 UNK         0.0248 
     46 CB        -45.6946  -24.9841   15.1695 C.3       8 UNK        -0.2001 
     47 N         -47.5715  -23.5338   14.5179 N.am      8 UNK        -0.4140 
     48 C         -48.5635  -22.6361   14.6223 C.2       8 UNK         0.5028 
     49 O         -49.0437  -22.2664   15.6940 O.2       8 UNK        -0.5428 
     50 CA        -49.1339  -22.0629   13.3142 C.3       7 UNK         0.0264 
     51 CB        -48.1802  -21.0201   12.7092 C.3       7 UNK        -0.1988 
     52 N         -49.4338  -23.0968   12.3227 N.am      7 UNK        -0.4454 
     53 C         -50.3702  -24.0449   12.4755 C.2       7 UNK         0.5027 
     54 O         -51.1178  -24.1161   13.4498 O.2       7 UNK        -0.5083 
     55 CA        -50.4674  -25.1241   11.3800 C.3       6 UNK         0.0844 
     56 C56       -51.3025  -24.6207   10.1785 C.3       14 UNK        -0.0967 
     57 S57       -51.6440  -25.9652    8.9974 S.3       14 UNK        -0.2604 
     58 C58       -53.4361  -25.8012    8.7312 C.3       14 UNK         0.0134 
     59 N         -49.1456  -25.6253   10.9854 N.am      6 UNK        -0.4116 
     60 C         -48.2635  -26.2029   11.8151 C.2       5 UNK         0.5034 
     61 O         -48.4820  -26.4371   13.0036 O.2       5 UNK        -0.5045 
     62 CA        -46.8728  -26.5067   11.2411 C.3       5 UNK         0.0224 
     63 CB        -46.8756  -27.8127   10.4302 C.3       5 UNK        -0.1978 
     64 N         -46.3748  -25.3987   10.4224 N.am      5 UNK        -0.4737 
     65 C         -46.0027  -24.2098   10.9193 C.2       4 UNK         0.5027 
     66 O         -45.9999  -23.9428   12.1198 O.2       4 UNK        -0.5211 
     67 CA        -45.6063  -23.1211    9.9086 C.3       4 UNK         0.0297 
     68 CB        -44.1345  -23.2779    9.4956 C.3       4 UNK        -0.1993 
     69 N         -46.4554  -23.1187    8.7160 N.am      4 UNK        -0.4486 
     70 C         -47.7673  -22.8421    8.7178 C.2       3 UNK         0.4961 
     71 O         -48.3965  -22.5051    9.7198 O.2       3 UNK        -0.5105 
     72 CA        -48.5136  -23.0211    7.3848 C.3       3 UNK         0.0299 
     73 CB        -48.4598  -21.7263    6.5590 C.3       3 UNK        -0.1972 
     74 N         -48.0181  -24.1434    6.5789 N.am      3 UNK        -0.4305 
     75 C         -48.0127  -25.4222    6.9795 C.2       2 UNK         0.5006 
     76 O         -48.3774  -25.7947    8.0958 O.2       2 UNK        -0.5106 
     77 CA        -47.4539  -26.4494    5.9946 C.3       2 UNK         0.0296 
     78 CB        -46.0081  -26.8272    6.3607 C.3       2 UNK        -0.2002 
     79 N         -48.3000  -27.6362    6.0394 N.am      2 UNK        -0.4032 
     80 C         -48.6177  -28.4023    4.9908 C.2       1 UNK         0.5000 
     81 O         -48.1525  -28.2364    3.8607 O.2       1 UNK        -0.5238 
     82 H82       -47.4848  -31.2436    8.8396 H         1 UNK         0.0889 
     83 H83       -48.1596  -32.3982    7.6872 H         1 UNK         0.0889 
     84 H84       -49.1163  -31.8756    9.0755 H         1 UNK         0.0889 
     85 H85       -48.8021  -31.4155    5.8025 H         1 UNK         0.3028 
     86 H86       -49.6601  -30.1173    4.2963 H         1 UNK         0.0864 
     87 H87       -51.6694  -29.9337    5.8056 H         1 UNK         0.0720 
     88 H88       -51.0622  -28.4207    6.4199 H         1 UNK         0.0720 
     89 H89       -53.8428  -29.5350    4.1395 H         1 UNK         0.0814 
     90 H90       -54.2119  -27.8585    3.8153 H         1 UNK         0.0814 
     91 H91       -53.0821  -26.3821    6.0993 H         1 UNK         0.1469 
     92 H92       -54.9216  -27.8938    9.6622 H         1 UNK         0.1381 
     93 H93       -55.0670  -30.1879    6.0472 H         1 UNK         0.1206 
     94 H94       -56.4362  -30.8474    7.9554 H         1 UNK         0.0813 
     95 H95       -56.6072  -29.7639    9.3145 H         1 UNK         0.0813 
     96 H96       -55.2569  -32.6966   11.4344 H         1 UNK         0.0638 
     97 H97       -56.6915  -32.2762   10.5400 H         1 UNK         0.0638 
     98 H98       -56.8439  -30.1015   11.5859 H         1 UNK         0.0568 
     99 H99       -57.2156  -31.3175   15.2457 H         1 UNK         0.3450 
    100 H100      -55.9931  -30.2100   14.6708 H         1 UNK         0.3450 
    101 H101      -55.1535  -28.9218   12.2942 H         1 UNK         0.2987 
    102 H102      -52.2575  -29.5426   14.1783 H         1 UNK         0.0766 
    103 H103      -51.1035  -28.2060   12.4628 H         1 UNK         0.0798 
    104 H104      -52.4529  -28.3848   11.3404 H         1 UNK         0.0798 
    105 H105      -51.4716  -29.7723   11.7791 H         1 UNK         0.0798 
    106 H106      -53.2080  -27.0714   13.3581 H         1 UNK         0.3198 
    107 H107      -55.1041  -25.9029   14.1920 H         1 UNK         0.0843 
    108 H108      -56.0188  -26.8700   16.9628 H         1 UNK         0.0831 
    109 H109      -56.9822  -26.9523   15.4934 H         1 UNK         0.0831 
    110 H110      -56.5355  -25.3891   16.1588 H         1 UNK         0.0831 
    111 H111      -53.1926  -26.3137   16.3848 H         1 UNK         0.3133 
    112 H112      -52.0378  -22.9772   16.1026 H         1 UNK         0.0566 
    113 H113      -51.7616  -23.2164   18.5646 H         1 UNK         0.0814 
    114 H114      -53.4322  -22.8816   18.1375 H         1 UNK         0.0814 
    115 H115      -52.9604  -24.5097   18.5913 H         1 UNK         0.0814 
    116 H116      -50.4374  -24.4154   15.8083 H         1 UNK         0.3091 
    117 H117      -49.2093  -27.1941   17.3492 H         1 UNK         0.0702 
    118 H118      -49.1056  -28.4400   15.1747 H         1 UNK         0.0785 
    119 H119      -50.4867  -27.5153   14.5878 H         1 UNK         0.0785 
    120 H120      -50.6749  -28.6167   15.9461 H         1 UNK         0.0785 
    121 H121      -48.6164  -25.9118   14.8031 H         1 UNK         0.2998 
    122 H122      -46.5417  -23.3821   16.3109 H         1 UNK         0.0697 
    123 H123      -45.9866  -25.7660   14.4677 H         1 UNK         0.0825 
    124 H124      -45.1832  -25.4665   16.0036 H         1 UNK         0.0825 
    125 H125      -44.9669  -24.3432   14.6715 H         1 UNK         0.0825 
    126 H126      -47.1985  -23.7508   13.5962 H         1 UNK         0.3029 
    127 H127      -50.0719  -21.5592   13.5584 H         1 UNK         0.0897 
    128 H128      -48.6187  -20.5460   11.8309 H         1 UNK         0.0792 
    129 H129      -47.9583  -20.2300   13.4278 H         1 UNK         0.0792 
    130 H130      -47.2312  -21.4646   12.4081 H         1 UNK         0.0792 
    131 H131      -48.9056  -23.0629   11.4532 H         1 UNK         0.3086 
    132 H132      -51.0021  -25.9648   11.8239 H         1 UNK         0.0583 
    133 H133      -52.2484  -24.1977   10.5225 H         1 UNK         0.1020 
    134 H134      -50.7849  -23.8171    9.6533 H         1 UNK         0.1020 
    135 H135      -53.9437  -25.7156    9.6933 H         1 UNK         0.0694 
    136 H136      -53.6424  -24.8821    8.1808 H         1 UNK         0.0694 
    137 H137      -48.8975  -25.5287   10.0048 H         1 UNK         0.2989 
    138 H138      -46.1905  -26.6366   12.0841 H         1 UNK         0.1055 
    139 H139      -47.2018  -28.6510   11.0472 H         1 UNK         0.0806 
    140 H140      -45.8796  -28.0525   10.0583 H         1 UNK         0.0806 
    141 H141      -47.5500  -27.7633    9.5757 H         1 UNK         0.0806 
    142 H142      -46.4309  -25.5122    9.4202 H         1 UNK         0.3061 
    143 H143      -45.7212  -22.1538   10.4026 H         1 UNK         0.0734 
    144 H144      -43.8157  -22.4644    8.8438 H         1 UNK         0.0832 
    145 H145      -43.4824  -23.2638   10.3702 H         1 UNK         0.0832 
    146 H146      -43.9567  -24.2186    8.9727 H         1 UNK         0.0832 
    147 H147      -46.0238  -23.3820    7.8424 H         1 UNK         0.3156 
    148 H148      -49.5592  -23.2287    7.6208 H         1 UNK         0.0589 
    149 H149      -47.4411  -21.4788    6.2576 H         1 UNK         0.0808 
    150 H150      -49.0684  -21.8039    5.6579 H         1 UNK         0.0808 
    151 H151      -48.8434  -20.8820    7.1339 H         1 UNK         0.0808 
    152 H152      -47.6871  -23.9221    5.6504 H         1 UNK         0.3098 
    153 H153      -47.4724  -26.0188    4.9911 H         1 UNK         0.0720 
    154 H154      -45.5968  -27.5453    5.6511 H         1 UNK         0.0791 
    155 H155      -45.9475  -27.2706    7.3556 H         1 UNK         0.0791 
    156 H156      -45.3575  -25.9519    6.3498 H         1 UNK         0.0791 
    157 H157      -48.7188  -27.8506    6.9430 H         1 UNK         0.3028 
@<TRIPOS>BOND
     1    1    2 1    
     2    1   82 1    
     3    1   83 1    
     4    1   84 1    
     5    2    3 2    
     6    2    4 am   BACKBONE|DICT|INTERRES
     7    4    5 1    
     8    4   85 1    
     9    5    6 1    
    10    5   80 1    
    11    5   86 1    
    12    6    7 1    
    13    6   87 1    
    14    6   88 1    
    15    7    8 1    
    16    8    9 1    
    17    8   89 1    
    18    8   90 1    
    19    9   10 ar   
    20    9   14 ar   
    21   10   11 ar   
    22   10   91 1    
    23   11   12 ar   
    24   11   58 1    
    25   12   13 ar   
    26   12   92 1    
    27   13   14 ar   
    28   13   15 1    
    29   14   93 1    
    30   15   16 1    
    31   15   94 1    
    32   15   95 1    
    33   16   17 1    
    34   17   18 1    
    35   17   96 1    
    36   17   97 1    
    37   18   19 1    
    38   18   22 1    
    39   18   98 1    
    40   19   20 am   BACKBONE|DICT|INTERRES
    41   19   21 2    
    42   20   99 1    
    43   20  100 1    
    44   22   23 am   BACKBONE|DICT|INTERRES
    45   22  101 1    
    46   23   24 2    
    47   23   25 1    
    48   25   26 1    
    49   25   27 1    
    50   25  102 1    
    51   26  103 1    
    52   26  104 1    
    53   26  105 1    
    54   27   28 am   BACKBONE|DICT|INTERRES
    55   27  106 1    
    56   28   29 2    
    57   28   30 1    
    58   30   31 1    
    59   30   32 1    
    60   30  107 1    
    61   31  108 1    
    62   31  109 1    
    63   31  110 1    
    64   32   33 am   BACKBONE|DICT|INTERRES
    65   32  111 1    
    66   33   34 2    
    67   33   35 1    
    68   35   36 1    
    69   35   37 1    
    70   35  112 1    
    71   36  113 1    
    72   36  114 1    
    73   36  115 1    
    74   37   38 am   BACKBONE|DICT|INTERRES
    75   37  116 1    
    76   38   39 2    
    77   38   40 1    
    78   40   41 1    
    79   40   42 1    
    80   40  117 1    
    81   41  118 1    
    82   41  119 1    
    83   41  120 1    
    84   42   43 am   BACKBONE|DICT|INTERRES
    85   42  121 1    
    86   43   44 2    
    87   43   45 1    
    88   45   46 1    
    89   45   47 1    
    90   45  122 1    
    91   46  123 1    
    92   46  124 1    
    93   46  125 1    
    94   47   48 am   BACKBONE|DICT|INTERRES
    95   47  126 1    
    96   48   49 2    
    97   48   50 1    
    98   50   51 1    
    99   50   52 1    
   100   50  127 1    
   101   51  128 1    
   102   51  129 1    
   103   51  130 1    
   104   52   53 am   BACKBONE|DICT|INTERRES
   105   52  131 1    
   106   53   54 2    
   107   53   55 1    
   108   55   56 1    
   109   55   59 1    
   110   55  132 1    
   111   56   57 1    
   112   56  133 1    
   113   56  134 1    
   114   57   58 1    
   115   58  135 1    
   116   58  136 1    
   117   59   60 am   BACKBONE|DICT|INTERRES
   118   59  137 1    
   119   60   61 2    
   120   60   62 1    
   121   62   63 1    
   122   62   64 1    
   123   62  138 1    
   124   63  139 1    
   125   63  140 1    
   126   63  141 1    
   127   64   65 am   BACKBONE|DICT|INTERRES
   128   64  142 1    
   129   65   66 2    
   130   65   67 1    
   131   67   68 1    
   132   67   69 1    
   133   67  143 1    
   134   68  144 1    
   135   68  145 1    
   136   68  146 1    
   137   69   70 am   BACKBONE|DICT|INTERRES
   138   69  147 1    
   139   70   71 2    
   140   70   72 1    
   141   72   73 1    
   142   72   74 1    
   143   72  148 1    
   144   73  149 1    
   145   73  150 1    
   146   73  151 1    
   147   74   75 am   BACKBONE|DICT|INTERRES
   148   74  152 1    
   149   75   76 2    
   150   75   77 1    
   151   77   78 1    
   152   77   79 1    
   153   77  153 1    
   154   78  154 1    
   155   78  155 1    
   156   78  156 1    
   157   79   80 am   BACKBONE|DICT|INTERRES
   158   79  157 1    
   159   80   81 2    
@<TRIPOS>SUBSTRUCTURE
     1 UNK         1 GROUP             0       ****    0 ROOT    
