@<TRIPOS>MOLECULE
3R207
157   159    1
SMALL
USER_CHARGES


@<TRIPOS>ATOM
      1 CA        -45.3683  -30.2912    6.6009 C.3       0 UNK        -0.1975 
      2 C         -46.1809  -30.3895    7.8900 C.2       0 UNK         0.4852 
      3 O         -45.5916  -30.3937    8.9685 O.2       0 UNK        -0.5216 
      4 N         -47.5196  -30.4806    7.8471 N.am      1 UNK        -0.4461 
      5 CA        -48.3876  -30.4683    6.6608 C.3       1 UNK         0.0864 
      6 C6        -49.8354  -30.8706    7.0394 C.3       14 UNK        -0.0898 
      7 S7        -50.8128  -31.5443    5.6482 S.3       14 UNK        -0.2598 
      8 C8        -51.7682  -30.1073    5.0495 C.3       14 UNK         0.0286 
      9 C9        -52.6427  -29.4925    6.1327 C.ar      14 UNK        -0.0844 
     10 C10       -52.2234  -28.3302    6.7876 C.ar      14 UNK        -0.0881 
     11 C11       -52.9857  -27.7893    7.8239 C.ar      14 UNK        -0.0643 
     12 C12       -54.1995  -28.3841    8.1694 C.ar      14 UNK        -0.0930 
     13 C13       -54.6338  -29.5437    7.5211 C.ar      14 UNK        -0.0827 
     14 C14       -53.8530  -30.0935    6.4984 C.ar      14 UNK        -0.1249 
     15 C15       -55.9304  -30.2046    7.9643 C.3       14 UNK         0.0141 
     16 S16       -55.7923  -30.7781    9.6880 S.3       14 UNK        -0.2313 
     17 C17       -57.5356  -30.9044   10.2123 C.3       14 UNK        -0.0915 
     18 CA        -58.3017  -29.5488   10.3399 C.3       13 UNK         0.0968 
     19 C         -59.7402  -29.7410   10.9103 C.2       13 UNK         0.5732 
     20 N         -60.2677  -28.8196   11.7078 N.am      13 UNK        -0.7310 
     21 O         -60.4071  -30.7254   10.5990 O.2       13 UNK        -0.5035 
     22 N         -57.5276  -28.4590   10.9675 N.am      13 UNK        -0.4233 
     23 C         -57.0094  -28.4530   12.2015 C.2       13 UNK         0.4989 
     24 O         -57.0980  -29.3847   13.0057 O.2       13 UNK        -0.4996 
     25 CA        -56.2906  -27.1635   12.6162 C.3       12 UNK         0.0216 
     26 CB        -57.2984  -26.0956   13.0841 C.3       12 UNK        -0.1964 
     27 N         -55.3499  -27.4764   13.6878 N.am      12 UNK        -0.4276 
     28 C         -54.2888  -26.7407   14.0326 C.2       12 UNK         0.5020 
     29 O         -53.9990  -25.6630   13.5068 O.2       12 UNK        -0.5489 
     30 CA        -53.3868  -27.3331   15.1243 C.3       11 UNK         0.0294 
     31 CB        -52.4742  -28.4195   14.5290 C.3       11 UNK        -0.2019 
     32 N         -52.5414  -26.2931   15.7077 N.am      11 UNK        -0.4493 
     33 C         -52.6619  -25.7830   16.9388 C.2       11 UNK         0.4932 
     34 O         -53.5318  -26.1215   17.7438 O.2       11 UNK        -0.5029 
     35 CA        -51.5978  -24.7378   17.3316 C.3       10 UNK         0.0280 
     36 CB        -51.6710  -24.3044   18.8113 C.3       10 UNK        -0.1976 
     37 N         -50.2501  -25.1915   16.9663 N.am      10 UNK        -0.4242 
     38 C         -49.5972  -26.2702   17.4261 C.2       10 UNK         0.5072 
     39 O         -49.9777  -26.9597   18.3734 O.2       10 UNK        -0.5224 
     40 CA        -48.3180  -26.6879   16.6775 C.3       9 UNK         0.0343 
     41 CB        -48.6264  -27.8626   15.7341 C.3       9 UNK        -0.2003 
     42 N         -47.7019  -25.6074   15.9025 N.am      9 UNK        -0.4272 
     43 C         -47.0134  -24.5871   16.4327 C.2       9 UNK         0.4988 
     44 O         -46.8017  -24.4563   17.6389 O.2       9 UNK        -0.5108 
     45 CA        -46.4773  -23.5272   15.4540 C.3       8 UNK         0.0248 
     46 CB        -45.1822  -24.0116   14.7824 C.3       8 UNK        -0.2001 
     47 N         -47.4544  -23.1454   14.4302 N.am      8 UNK        -0.4140 
     48 C         -48.6086  -22.5105   14.6847 C.2       8 UNK         0.5028 
     49 O         -48.9554  -22.1393   15.8063 O.2       8 UNK        -0.5428 
     50 CA        -49.5562  -22.2764   13.4965 C.3       7 UNK         0.0264 
     51 CB        -49.1161  -21.0515   12.6790 C.3       7 UNK        -0.1988 
     52 N         -49.6752  -23.4437   12.6196 N.am      7 UNK        -0.4454 
     53 C         -50.1660  -24.6324   13.0012 C.2       7 UNK         0.5027 
     54 O         -50.6060  -24.8609   14.1274 O.2       7 UNK        -0.5083 
     55 CA        -50.1213  -25.7792   11.9757 C.3       6 UNK         0.0844 
     56 C56       -51.3095  -25.6786   10.9942 C.3       14 UNK        -0.0967 
     57 S57       -51.5187  -27.2154   10.0488 S.3       14 UNK        -0.2604 
     58 C58       -52.4679  -26.6099    8.6236 C.3       14 UNK         0.0134 
     59 N         -48.8256  -25.8599   11.2953 N.am      6 UNK        -0.4116 
     60 C         -47.6517  -26.0669   11.9097 C.2       5 UNK         0.5034 
     61 O         -47.5318  -26.2717   13.1169 O.2       5 UNK        -0.5045 
     62 CA        -46.3892  -25.9595   11.0435 C.3       5 UNK         0.0224 
     63 CB        -46.1426  -27.2529   10.2508 C.3       5 UNK        -0.1978 
     64 N         -46.4554  -24.8136   10.1350 N.am      5 UNK        -0.4737 
     65 C         -46.4134  -23.5349   10.5362 C.2       4 UNK         0.5027 
     66 O         -46.2661  -23.1900   11.7085 O.2       4 UNK        -0.5211 
     67 CA        -46.6102  -22.4634    9.4511 C.3       4 UNK         0.0297 
     68 CB        -45.2822  -22.1667    8.7373 C.3       4 UNK        -0.1993 
     69 N         -47.6283  -22.8364    8.4651 N.am      4 UNK        -0.4486 
     70 C         -48.9312  -22.9833    8.7441 C.2       3 UNK         0.4961 
     71 O         -49.4210  -22.7904    9.8559 O.2       3 UNK        -0.5105 
     72 CA        -49.8355  -23.4745    7.6016 C.3       3 UNK         0.0299 
     73 CB        -50.2844  -22.2960    6.7238 C.3       3 UNK        -0.1972 
     74 N         -49.2258  -24.5133    6.7623 N.am      3 UNK        -0.4305 
     75 C         -48.7773  -25.6951    7.2068 C.2       2 UNK         0.5006 
     76 O         -48.7758  -26.0314    8.3929 O.2       2 UNK        -0.5106 
     77 CA        -48.1947  -26.6447    6.1579 C.3       2 UNK         0.0296 
     78 CB        -46.7262  -26.2911    5.8585 C.3       2 UNK        -0.2002 
     79 N         -48.2787  -28.0106    6.6662 N.am      2 UNK        -0.4032 
     80 C         -48.3458  -29.1164    5.9146 C.2       1 UNK         0.5000 
     81 O         -48.3329  -29.1047    4.6829 O.2       1 UNK        -0.5238 
     82 H82       -44.3277  -30.5536    6.7908 H         1 UNK         0.0889 
     83 H83       -45.3876  -29.2731    6.2135 H         1 UNK         0.0889 
     84 H84       -45.7369  -30.9684    5.8319 H         1 UNK         0.0889 
     85 H85       -48.0067  -30.5608    8.7282 H         1 UNK         0.3028 
     86 H86       -48.0049  -31.2296    5.9785 H         1 UNK         0.0864 
     87 H87       -50.3586  -30.0588    7.5431 H         1 UNK         0.0720 
     88 H88       -49.8017  -31.6751    7.7759 H         1 UNK         0.0720 
     89 H89       -52.3974  -30.4284    4.2181 H         1 UNK         0.0814 
     90 H90       -51.0863  -29.3631    4.6364 H         1 UNK         0.0814 
     91 H91       -51.2794  -27.8729    6.5261 H         1 UNK         0.1469 
     92 H92       -54.7845  -27.9734    8.9809 H         1 UNK         0.1381 
     93 H93       -54.1725  -30.9994    6.0012 H         1 UNK         0.1206 
     94 H94       -56.1851  -31.0492    7.3225 H         1 UNK         0.0813 
     95 H95       -56.7385  -29.4805    7.8656 H         1 UNK         0.0813 
     96 H96       -58.0499  -31.5647    9.5118 H         1 UNK         0.0638 
     97 H97       -57.5412  -31.4246   11.1716 H         1 UNK         0.0638 
     98 H98       -58.4827  -29.1963    9.3251 H         1 UNK         0.0568 
     99 H99       -59.7415  -28.0013   11.9656 H         1 UNK         0.3450 
    100 H100      -61.2029  -28.9511   12.0595 H         1 UNK         0.3450 
    101 H101      -57.4236  -27.6306   10.4001 H         1 UNK         0.2987 
    102 H102      -55.7306  -26.7891   11.7561 H         1 UNK         0.0766 
    103 H103      -56.7965  -25.1676   13.3589 H         1 UNK         0.0798 
    104 H104      -57.8695  -26.4343   13.9495 H         1 UNK         0.0798 
    105 H105      -58.0109  -25.8514   12.2953 H         1 UNK         0.0798 
    106 H106      -55.5144  -28.3759   14.1255 H         1 UNK         0.3198 
    107 H107      -54.0194  -27.7837   15.8923 H         1 UNK         0.0843 
    108 H108      -51.8081  -28.8350   15.2854 H         1 UNK         0.0831 
    109 H109      -51.8580  -28.0292   13.7185 H         1 UNK         0.0831 
    110 H110      -53.0577  -29.2469   14.1233 H         1 UNK         0.0831 
    111 H111      -51.8616  -25.8658   15.0810 H         1 UNK         0.3133 
    112 H112      -51.7940  -23.8553   16.7207 H         1 UNK         0.0566 
    113 H113      -50.9035  -23.5669   19.0456 H         1 UNK         0.0814 
    114 H114      -52.6370  -23.8501   19.0345 H         1 UNK         0.0814 
    115 H115      -51.5463  -25.1473   19.4915 H         1 UNK         0.0814 
    116 H116      -49.8690  -24.7489   16.1382 H         1 UNK         0.3091 
    117 H117      -47.5972  -27.0290   17.4235 H         1 UNK         0.0702 
    118 H118      -47.7225  -28.2270   15.2455 H         1 UNK         0.0785 
    119 H119      -49.3347  -27.5759   14.9554 H         1 UNK         0.0785 
    120 H120      -49.0615  -28.7014   16.2791 H         1 UNK         0.0785 
    121 H121      -47.7701  -25.6800   14.8895 H         1 UNK         0.2998 
    122 H122      -46.2412  -22.6325   16.0340 H         1 UNK         0.0697 
    123 H123      -44.7494  -23.2352   14.1512 H         1 UNK         0.0825 
    124 H124      -44.4321  -24.2799   15.5274 H         1 UNK         0.0825 
    125 H125      -45.3533  -24.8899   14.1594 H         1 UNK         0.0825 
    126 H126      -47.2167  -23.3630   13.4664 H         1 UNK         0.3029 
    127 H127      -50.5485  -22.0723   13.9046 H         1 UNK         0.0897 
    128 H128      -49.8312  -20.8262   11.8876 H         1 UNK         0.0792 
    129 H129      -49.0422  -20.1657   13.3113 H         1 UNK         0.0792 
    130 H130      -48.1417  -21.2041   12.2143 H         1 UNK         0.0792 
    131 H131      -49.3922  -23.3156   11.6498 H         1 UNK         0.3086 
    132 H132      -50.2321  -26.7046   12.5442 H         1 UNK         0.0583 
    133 H133      -52.2441  -25.4948   11.5277 H         1 UNK         0.1020 
    134 H134      -51.1754  -24.8393   10.3103 H         1 UNK         0.1020 
    135 H135      -53.2991  -25.9916    8.9666 H         1 UNK         0.0694 
    136 H136      -51.8354  -25.9763    8.0018 H         1 UNK         0.0694 
    137 H137      -48.8352  -25.7564   10.2839 H         1 UNK         0.2989 
    138 H138      -45.5410  -25.8082   11.7152 H         1 UNK         0.1055 
    139 H139      -46.0345  -28.1048   10.9236 H         1 UNK         0.0806 
    140 H140      -45.2274  -27.1915    9.6618 H         1 UNK         0.0806 
    141 H141      -46.9623  -27.4836    9.5717 H         1 UNK         0.0806 
    142 H142      -46.6474  -25.0102    9.1636 H         1 UNK         0.3061 
    143 H143      -46.9427  -21.5487    9.9468 H         1 UNK         0.0734 
    144 H144      -45.3887  -21.3498    8.0232 H         1 UNK         0.0832 
    145 H145      -44.5144  -21.8698    9.4534 H         1 UNK         0.0832 
    146 H146      -44.9057  -23.0377    8.1994 H         1 UNK         0.0832 
    147 H147      -47.3155  -23.0142    7.5219 H         1 UNK         0.3156 
    148 H148      -50.7262  -23.9062    8.0601 H         1 UNK         0.0589 
    149 H149      -49.4456  -21.8375    6.1985 H         1 UNK         0.0808 
    150 H150      -51.0160  -22.6110    5.9794 H         1 UNK         0.0808 
    151 H151      -50.7552  -21.5180    7.3269 H         1 UNK         0.0808 
    152 H152      -49.1725  -24.3170    5.7727 H         1 UNK         0.3098 
    153 H153      -48.7903  -26.5588    5.2463 H         1 UNK         0.0720 
    154 H154      -46.6314  -25.2679    5.4930 H         1 UNK         0.0791 
    155 H155      -46.3105  -26.9447    5.0914 H         1 UNK         0.0791 
    156 H156      -46.1009  -26.3821    6.7478 H         1 UNK         0.0791 
    157 H157      -48.3403  -28.0777    7.6747 H         1 UNK         0.3028 
@<TRIPOS>BOND
     1    1    2 1    
     2    1   82 1    
     3    1   83 1    
     4    1   84 1    
     5    2    3 2    
     6    2    4 am   BACKBONE|DICT|INTERRES
     7    4    5 1    
     8    4   85 1    
     9    5    6 1    
    10    5   80 1    
    11    5   86 1    
    12    6    7 1    
    13    6   87 1    
    14    6   88 1    
    15    7    8 1    
    16    8    9 1    
    17    8   89 1    
    18    8   90 1    
    19    9   10 ar   
    20    9   14 ar   
    21   10   11 ar   
    22   10   91 1    
    23   11   12 ar   
    24   11   58 1    
    25   12   13 ar   
    26   12   92 1    
    27   13   14 ar   
    28   13   15 1    
    29   14   93 1    
    30   15   16 1    
    31   15   94 1    
    32   15   95 1    
    33   16   17 1    
    34   17   18 1    
    35   17   96 1    
    36   17   97 1    
    37   18   19 1    
    38   18   22 1    
    39   18   98 1    
    40   19   20 am   BACKBONE|DICT|INTERRES
    41   19   21 2    
    42   20   99 1    
    43   20  100 1    
    44   22   23 am   BACKBONE|DICT|INTERRES
    45   22  101 1    
    46   23   24 2    
    47   23   25 1    
    48   25   26 1    
    49   25   27 1    
    50   25  102 1    
    51   26  103 1    
    52   26  104 1    
    53   26  105 1    
    54   27   28 am   BACKBONE|DICT|INTERRES
    55   27  106 1    
    56   28   29 2    
    57   28   30 1    
    58   30   31 1    
    59   30   32 1    
    60   30  107 1    
    61   31  108 1    
    62   31  109 1    
    63   31  110 1    
    64   32   33 am   BACKBONE|DICT|INTERRES
    65   32  111 1    
    66   33   34 2    
    67   33   35 1    
    68   35   36 1    
    69   35   37 1    
    70   35  112 1    
    71   36  113 1    
    72   36  114 1    
    73   36  115 1    
    74   37   38 am   BACKBONE|DICT|INTERRES
    75   37  116 1    
    76   38   39 2    
    77   38   40 1    
    78   40   41 1    
    79   40   42 1    
    80   40  117 1    
    81   41  118 1    
    82   41  119 1    
    83   41  120 1    
    84   42   43 am   BACKBONE|DICT|INTERRES
    85   42  121 1    
    86   43   44 2    
    87   43   45 1    
    88   45   46 1    
    89   45   47 1    
    90   45  122 1    
    91   46  123 1    
    92   46  124 1    
    93   46  125 1    
    94   47   48 am   BACKBONE|DICT|INTERRES
    95   47  126 1    
    96   48   49 2    
    97   48   50 1    
    98   50   51 1    
    99   50   52 1    
   100   50  127 1    
   101   51  128 1    
   102   51  129 1    
   103   51  130 1    
   104   52   53 am   BACKBONE|DICT|INTERRES
   105   52  131 1    
   106   53   54 2    
   107   53   55 1    
   108   55   56 1    
   109   55   59 1    
   110   55  132 1    
   111   56   57 1    
   112   56  133 1    
   113   56  134 1    
   114   57   58 1    
   115   58  135 1    
   116   58  136 1    
   117   59   60 am   BACKBONE|DICT|INTERRES
   118   59  137 1    
   119   60   61 2    
   120   60   62 1    
   121   62   63 1    
   122   62   64 1    
   123   62  138 1    
   124   63  139 1    
   125   63  140 1    
   126   63  141 1    
   127   64   65 am   BACKBONE|DICT|INTERRES
   128   64  142 1    
   129   65   66 2    
   130   65   67 1    
   131   67   68 1    
   132   67   69 1    
   133   67  143 1    
   134   68  144 1    
   135   68  145 1    
   136   68  146 1    
   137   69   70 am   BACKBONE|DICT|INTERRES
   138   69  147 1    
   139   70   71 2    
   140   70   72 1    
   141   72   73 1    
   142   72   74 1    
   143   72  148 1    
   144   73  149 1    
   145   73  150 1    
   146   73  151 1    
   147   74   75 am   BACKBONE|DICT|INTERRES
   148   74  152 1    
   149   75   76 2    
   150   75   77 1    
   151   77   78 1    
   152   77   79 1    
   153   77  153 1    
   154   78  154 1    
   155   78  155 1    
   156   78  156 1    
   157   79   80 am   BACKBONE|DICT|INTERRES
   158   79  157 1    
   159   80   81 2    
@<TRIPOS>SUBSTRUCTURE
     1 UNK         1 GROUP             0       ****    0 ROOT    
