@<TRIPOS>MOLECULE
3R207
157   159    1
SMALL
USER_CHARGES


@<TRIPOS>ATOM
      1 CA        -47.6694  -30.4470   11.9161 C.3       0 UNK        -0.1975 
      2 C         -47.3117  -29.9855   10.5103 C.2       0 UNK         0.4852 
      3 O         -46.2191  -29.4594   10.2964 O.2       0 UNK        -0.5216 
      4 N         -48.2229  -30.1865    9.5513 N.am      1 UNK        -0.4461 
      5 CA        -48.1096  -29.7136    8.1697 C.3       1 UNK         0.0864 
      6 C6        -48.9559  -30.5805    7.1975 C.3       14 UNK        -0.0898 
      7 S7        -50.7359  -30.6453    7.5992 S.3       14 UNK        -0.2598 
      8 C8        -51.4565  -29.4564    6.4142 C.3       14 UNK         0.0286 
      9 C9        -52.4640  -28.5195    7.0727 C.ar      14 UNK        -0.0844 
     10 C10       -52.3649  -27.1350    6.8944 C.ar      14 UNK        -0.0881 
     11 C11       -53.2999  -26.2691    7.4749 C.ar      14 UNK        -0.0643 
     12 C12       -54.3404  -26.8053    8.2433 C.ar      14 UNK        -0.0930 
     13 C13       -54.4548  -28.1878    8.4284 C.ar      14 UNK        -0.0827 
     14 C14       -53.5190  -29.0360    7.8314 C.ar      14 UNK        -0.1249 
     15 C15       -55.6026  -28.7795    9.2388 C.3       14 UNK         0.0141 
     16 S16       -55.6068  -28.1871   10.9584 S.3       14 UNK        -0.2313 
     17 C17       -56.7204  -29.3876   11.7703 C.3       14 UNK        -0.0915 
     18 CA        -56.0686  -30.1383   12.9658 C.3       13 UNK         0.0968 
     19 C         -54.9573  -31.1332   12.5283 C.2       13 UNK         0.5732 
     20 N         -53.7275  -31.0189   13.0130 N.am      13 UNK        -0.7310 
     21 O         -55.2274  -32.0518   11.7581 O.2       13 UNK        -0.5035 
     22 N         -55.6715  -29.2101   14.0393 N.am      13 UNK        -0.4233 
     23 C         -56.3847  -28.9667   15.1454 C.2       13 UNK         0.4989 
     24 O         -57.4267  -29.5625   15.4280 O.2       13 UNK        -0.4996 
     25 CA        -55.8849  -27.8389   16.0712 C.3       12 UNK         0.0216 
     26 CB        -56.5772  -27.8316   17.4520 C.3       12 UNK        -0.1964 
     27 N         -54.4264  -27.7736   16.2152 N.am      12 UNK        -0.4276 
     28 C         -53.6088  -28.6708   16.7871 C.2       12 UNK         0.5020 
     29 O         -53.9977  -29.7381   17.2639 O.2       12 UNK        -0.5489 
     30 CA        -52.1005  -28.3351   16.8542 C.3       11 UNK         0.0294 
     31 CB        -51.2583  -29.4438   16.1988 C.3       11 UNK        -0.2019 
     32 N         -51.7456  -27.0491   16.2438 N.am      11 UNK        -0.4493 
     33 C         -51.9130  -25.8441   16.8077 C.2       11 UNK         0.4932 
     34 O         -52.3008  -25.6777   17.9637 O.2       11 UNK        -0.5029 
     35 CA        -51.6726  -24.6166   15.9050 C.3       10 UNK         0.0280 
     36 CB        -50.1940  -24.1985   15.9182 C.3       10 UNK        -0.1976 
     37 N         -52.1225  -24.8400   14.5253 N.am      10 UNK        -0.4242 
     38 C         -53.3999  -25.0665   14.1809 C.2       10 UNK         0.5072 
     39 O         -54.3410  -24.9969   14.9706 O.2       10 UNK        -0.5224 
     40 CA        -53.6730  -25.5319   12.7442 C.3       9 UNK         0.0343 
     41 CB        -53.9090  -24.3416   11.8020 C.3       9 UNK        -0.2003 
     42 N         -52.6010  -26.3906   12.2343 N.am      9 UNK        -0.4272 
     43 C         -52.4007  -27.6524   12.6413 C.2       9 UNK         0.4988 
     44 O         -53.1131  -28.2183   13.4690 O.2       9 UNK        -0.5108 
     45 CA        -51.1937  -28.4095   12.0621 C.3       8 UNK         0.0248 
     46 CB        -51.5589  -29.0074   10.7001 C.3       8 UNK        -0.2001 
     47 N         -49.9896  -27.5855   11.9365 N.am      8 UNK        -0.4140 
     48 C         -49.3797  -26.9861   12.9717 C.2       8 UNK         0.5028 
     49 O         -49.6910  -27.1815   14.1459 O.2       8 UNK        -0.5428 
     50 CA        -48.3017  -25.9326   12.6482 C.3       7 UNK         0.0264 
     51 CB        -46.9048  -26.5695   12.6381 C.3       7 UNK        -0.1988 
     52 N         -48.5359  -25.2368   11.3785 N.am      7 UNK        -0.4454 
     53 C         -49.6602  -24.5759   11.0715 C.2       7 UNK         0.5027 
     54 O         -50.5498  -24.3404   11.8914 O.2       7 UNK        -0.5083 
     55 CA        -49.8521  -24.2087    9.5906 C.3       6 UNK         0.0844 
     56 C56       -51.3488  -24.0786    9.1993 C.3       14 UNK        -0.0967 
     57 S57       -51.5842  -24.0232    7.3941 S.3       14 UNK        -0.2604 
     58 C58       -53.2446  -24.7630    7.2194 C.3       14 UNK         0.0134 
     59 N         -49.0241  -23.0655    9.2096 N.am      6 UNK        -0.4116 
     60 C         -49.1177  -21.8071    9.6577 C.2       5 UNK         0.5034 
     61 O         -49.9820  -21.4053   10.4386 O.2       5 UNK        -0.5045 
     62 CA        -48.0324  -20.8442    9.1380 C.3       5 UNK         0.0224 
     63 CB        -48.1655  -19.4126    9.7019 C.3       5 UNK        -0.1978 
     64 N         -46.6791  -21.3738    9.3600 N.am      5 UNK        -0.4737 
     65 C         -46.1117  -21.6899   10.5361 C.2       4 UNK         0.5027 
     66 O         -46.6431  -21.5060   11.6319 O.2       4 UNK        -0.5211 
     67 CA        -44.7071  -22.3253   10.4595 C.3       4 UNK         0.0297 
     68 CB        -44.2700  -22.9772   11.7890 C.3       4 UNK        -0.1993 
     69 N         -44.5661  -23.2723    9.3435 N.am      4 UNK        -0.4486 
     70 C         -45.2854  -24.3853    9.1391 C.2       3 UNK         0.4961 
     71 O         -46.1598  -24.8030    9.9003 O.2       3 UNK        -0.5105 
     72 CA        -44.9635  -25.1670    7.8549 C.3       3 UNK         0.0299 
     73 CB        -43.8395  -26.1816    8.1191 C.3       3 UNK        -0.1972 
     74 N         -46.1291  -25.8796    7.3276 N.am      3 UNK        -0.4305 
     75 C         -47.2885  -25.3178    6.9541 C.2       2 UNK         0.5006 
     76 O         -47.4937  -24.1023    6.9642 O.2       2 UNK        -0.5106 
     77 CA        -48.4129  -26.2621    6.4905 C.3       2 UNK         0.0296 
     78 CB        -48.6092  -26.1597    4.9694 C.3       2 UNK        -0.2002 
     79 N         -48.1805  -27.6633    6.8495 N.am      2 UNK        -0.4032 
     80 C         -48.4279  -28.2051    8.0516 C.2       1 UNK         0.5000 
     81 O         -48.8903  -27.5778    9.0119 O.2       1 UNK        -0.5238 
     82 H82       -47.5680  -29.6223   12.6206 H         1 UNK         0.0889 
     83 H83       -47.0000  -31.2473   12.2299 H         1 UNK         0.0889 
     84 H84       -48.6935  -30.8153   11.9758 H         1 UNK         0.0889 
     85 H85       -49.1080  -30.6147    9.7794 H         1 UNK         0.3028 
     86 H86       -47.0652  -29.8287    7.8707 H         1 UNK         0.0864 
     87 H87       -48.8184  -30.2707    6.1605 H         1 UNK         0.0720 
     88 H88       -48.5857  -31.6064    7.2309 H         1 UNK         0.0720 
     89 H89       -50.6664  -28.8782    5.9347 H         1 UNK         0.0814 
     90 H90       -51.9546  -30.0106    5.6179 H         1 UNK         0.0814 
     91 H91       -51.5694  -26.7273    6.2869 H         1 UNK         0.1469 
     92 H92       -55.0762  -26.1496    8.6883 H         1 UNK         0.1381 
     93 H93       -53.6059  -30.1062    7.9601 H         1 UNK         0.1206 
     94 H94       -55.5402  -29.8690    9.2410 H         1 UNK         0.0813 
     95 H95       -56.5515  -28.5223    8.7666 H         1 UNK         0.0813 
     96 H96       -57.5959  -28.8394   12.1209 H         1 UNK         0.0638 
     97 H97       -57.1005  -30.0999   11.0362 H         1 UNK         0.0638 
     98 H98       -56.8395  -30.8001   13.3636 H         1 UNK         0.0568 
     99 H99       -53.4756  -30.2154   13.5718 H         1 UNK         0.3450 
    100 H100      -53.0281  -31.6883   12.7375 H         1 UNK         0.3450 
    101 H101      -54.8008  -28.7070   13.8792 H         1 UNK         0.2987 
    102 H102      -56.1699  -26.9130   15.5701 H         1 UNK         0.0766 
    103 H103      -56.2263  -27.0025   18.0666 H         1 UNK         0.0798 
    104 H104      -57.6572  -27.7205   17.3486 H         1 UNK         0.0798 
    105 H105      -56.3976  -28.7565   18.0009 H         1 UNK         0.0798 
    106 H106      -54.0043  -26.9346   15.8356 H         1 UNK         0.3198 
    107 H107      -51.8345  -28.2952   17.9125 H         1 UNK         0.0843 
    108 H108      -51.4312  -30.4064   16.6815 H         1 UNK         0.0831 
    109 H109      -50.1920  -29.2303   16.2759 H         1 UNK         0.0831 
    110 H110      -51.4985  -29.5624   15.1429 H         1 UNK         0.0831 
    111 H111      -51.3295  -27.0920   15.3174 H         1 UNK         0.3133 
    112 H112      -52.2583  -23.7882   16.3090 H         1 UNK         0.0566 
    113 H113      -49.5392  -25.0037   15.5872 H         1 UNK         0.0814 
    114 H114      -49.8803  -23.9236   16.9260 H         1 UNK         0.0814 
    115 H115      -50.0173  -23.3351   15.2765 H         1 UNK         0.0814 
    116 H116      -51.4156  -24.8772   13.7993 H         1 UNK         0.3091 
    117 H117      -54.5929  -26.1189   12.7669 H         1 UNK         0.0702 
    118 H118      -54.1179  -24.6760   10.7857 H         1 UNK         0.0785 
    119 H119      -53.0543  -23.6665   11.7713 H         1 UNK         0.0785 
    120 H120      -54.7683  -23.7562   12.1312 H         1 UNK         0.0785 
    121 H121      -51.9178  -25.9523   11.6326 H         1 UNK         0.2998 
    122 H122      -50.9645  -29.2310   12.7433 H         1 UNK         0.0697 
    123 H123      -51.6475  -28.2385    9.9315 H         1 UNK         0.0825 
    124 H124      -52.5111  -29.5390   10.7394 H         1 UNK         0.0825 
    125 H125      -50.8082  -29.7225   10.3752 H         1 UNK         0.0825 
    126 H126      -49.6466  -27.4089   10.9968 H         1 UNK         0.3029 
    127 H127      -48.3308  -25.1830   13.4410 H         1 UNK         0.0897 
    128 H128      -46.7245  -27.1423   13.5488 H         1 UNK         0.0792 
    129 H129      -46.7778  -27.2435   11.7911 H         1 UNK         0.0792 
    130 H130      -46.1263  -25.8102   12.5741 H         1 UNK         0.0792 
    131 H131      -47.7935  -25.3026   10.6834 H         1 UNK         0.3086 
    132 H132      -49.4537  -25.0526    9.0331 H         1 UNK         0.0583 
    133 H133      -51.9085  -24.9338    9.5811 H         1 UNK         0.1020 
    134 H134      -51.8006  -23.1923    9.6471 H         1 UNK         0.1020 
    135 H135      -53.9312  -24.2326    7.8814 H         1 UNK         0.0694 
    136 H136      -53.5966  -24.5783    6.2038 H         1 UNK         0.0694 
    137 H137      -48.2863  -23.2834    8.5463 H         1 UNK         0.2989 
    138 H138      -48.1724  -20.7841    8.0571 H         1 UNK         0.1055 
    139 H139      -49.1356  -18.9836    9.4478 H         1 UNK         0.0806 
    140 H140      -47.4021  -18.7517    9.2915 H         1 UNK         0.0806 
    141 H141      -48.0782  -19.3921   10.7886 H         1 UNK         0.0806 
    142 H142      -46.1541  -21.5877    8.5229 H         1 UNK         0.3061 
    143 H143      -44.0170  -21.5052   10.2555 H         1 UNK         0.0734 
    144 H144      -44.2361  -22.2406   12.5926 H         1 UNK         0.0832 
    145 H145      -44.9599  -23.7617   12.0994 H         1 UNK         0.0832 
    146 H146      -43.2754  -23.4156   11.7100 H         1 UNK         0.0832 
    147 H147      -43.8691  -23.0264    8.6532 H         1 UNK         0.3156 
    148 H148      -44.6329  -24.4627    7.0887 H         1 UNK         0.0589 
    149 H149      -44.1338  -26.9217    8.8653 H         1 UNK         0.0808 
    150 H150      -43.5598  -26.7134    7.2094 H         1 UNK         0.0808 
    151 H151      -42.9415  -25.6859    8.4905 H         1 UNK         0.0808 
    152 H152      -46.0673  -26.8855    7.3159 H         1 UNK         0.3098 
    153 H153      -49.3375  -25.9341    6.9650 H         1 UNK         0.0720 
    154 H154      -49.4414  -26.7781    4.6328 H         1 UNK         0.0791 
    155 H155      -48.8334  -25.1332    4.6751 H         1 UNK         0.0791 
    156 H156      -47.7169  -26.4679    4.4232 H         1 UNK         0.0791 
    157 H157      -47.8034  -28.2508    6.1193 H         1 UNK         0.3028 
@<TRIPOS>BOND
     1    1    2 1    
     2    1   82 1    
     3    1   83 1    
     4    1   84 1    
     5    2    3 2    
     6    2    4 am   BACKBONE|DICT|INTERRES
     7    4    5 1    
     8    4   85 1    
     9    5    6 1    
    10    5   80 1    
    11    5   86 1    
    12    6    7 1    
    13    6   87 1    
    14    6   88 1    
    15    7    8 1    
    16    8    9 1    
    17    8   89 1    
    18    8   90 1    
    19    9   10 ar   
    20    9   14 ar   
    21   10   11 ar   
    22   10   91 1    
    23   11   12 ar   
    24   11   58 1    
    25   12   13 ar   
    26   12   92 1    
    27   13   14 ar   
    28   13   15 1    
    29   14   93 1    
    30   15   16 1    
    31   15   94 1    
    32   15   95 1    
    33   16   17 1    
    34   17   18 1    
    35   17   96 1    
    36   17   97 1    
    37   18   19 1    
    38   18   22 1    
    39   18   98 1    
    40   19   20 am   BACKBONE|DICT|INTERRES
    41   19   21 2    
    42   20   99 1    
    43   20  100 1    
    44   22   23 am   BACKBONE|DICT|INTERRES
    45   22  101 1    
    46   23   24 2    
    47   23   25 1    
    48   25   26 1    
    49   25   27 1    
    50   25  102 1    
    51   26  103 1    
    52   26  104 1    
    53   26  105 1    
    54   27   28 am   BACKBONE|DICT|INTERRES
    55   27  106 1    
    56   28   29 2    
    57   28   30 1    
    58   30   31 1    
    59   30   32 1    
    60   30  107 1    
    61   31  108 1    
    62   31  109 1    
    63   31  110 1    
    64   32   33 am   BACKBONE|DICT|INTERRES
    65   32  111 1    
    66   33   34 2    
    67   33   35 1    
    68   35   36 1    
    69   35   37 1    
    70   35  112 1    
    71   36  113 1    
    72   36  114 1    
    73   36  115 1    
    74   37   38 am   BACKBONE|DICT|INTERRES
    75   37  116 1    
    76   38   39 2    
    77   38   40 1    
    78   40   41 1    
    79   40   42 1    
    80   40  117 1    
    81   41  118 1    
    82   41  119 1    
    83   41  120 1    
    84   42   43 am   BACKBONE|DICT|INTERRES
    85   42  121 1    
    86   43   44 2    
    87   43   45 1    
    88   45   46 1    
    89   45   47 1    
    90   45  122 1    
    91   46  123 1    
    92   46  124 1    
    93   46  125 1    
    94   47   48 am   BACKBONE|DICT|INTERRES
    95   47  126 1    
    96   48   49 2    
    97   48   50 1    
    98   50   51 1    
    99   50   52 1    
   100   50  127 1    
   101   51  128 1    
   102   51  129 1    
   103   51  130 1    
   104   52   53 am   BACKBONE|DICT|INTERRES
   105   52  131 1    
   106   53   54 2    
   107   53   55 1    
   108   55   56 1    
   109   55   59 1    
   110   55  132 1    
   111   56   57 1    
   112   56  133 1    
   113   56  134 1    
   114   57   58 1    
   115   58  135 1    
   116   58  136 1    
   117   59   60 am   BACKBONE|DICT|INTERRES
   118   59  137 1    
   119   60   61 2    
   120   60   62 1    
   121   62   63 1    
   122   62   64 1    
   123   62  138 1    
   124   63  139 1    
   125   63  140 1    
   126   63  141 1    
   127   64   65 am   BACKBONE|DICT|INTERRES
   128   64  142 1    
   129   65   66 2    
   130   65   67 1    
   131   67   68 1    
   132   67   69 1    
   133   67  143 1    
   134   68  144 1    
   135   68  145 1    
   136   68  146 1    
   137   69   70 am   BACKBONE|DICT|INTERRES
   138   69  147 1    
   139   70   71 2    
   140   70   72 1    
   141   72   73 1    
   142   72   74 1    
   143   72  148 1    
   144   73  149 1    
   145   73  150 1    
   146   73  151 1    
   147   74   75 am   BACKBONE|DICT|INTERRES
   148   74  152 1    
   149   75   76 2    
   150   75   77 1    
   151   77   78 1    
   152   77   79 1    
   153   77  153 1    
   154   78  154 1    
   155   78  155 1    
   156   78  156 1    
   157   79   80 am   BACKBONE|DICT|INTERRES
   158   79  157 1    
   159   80   81 2    
@<TRIPOS>SUBSTRUCTURE
     1 UNK         1 GROUP             0       ****    0 ROOT    
