@<TRIPOS>MOLECULE
3R207
157   159    1
SMALL
USER_CHARGES


@<TRIPOS>ATOM
      1 CA        -53.9098  -30.9588    7.3348 C.3       0 UNK        -0.1975 
      2 C         -53.0365  -30.6288    6.1336 C.2       0 UNK         0.4852 
      3 O         -53.2998  -31.1183    5.0346 O.2       0 UNK        -0.5216 
      4 N         -52.0043  -29.8042    6.3341 N.am      1 UNK        -0.4461 
      5 CA        -51.0252  -29.4014    5.3258 C.3       1 UNK         0.0864 
      6 C6        -51.5932  -28.3958    4.2774 C.3       14 UNK        -0.0898 
      7 S7        -51.8917  -26.7027    4.9005 S.3       14 UNK        -0.2598 
      8 C8        -53.6525  -26.7509    5.3554 C.3       14 UNK         0.0286 
      9 C9        -53.8513  -26.2446    6.7753 C.ar      14 UNK        -0.0844 
     10 C10       -53.7718  -24.8780    7.0519 C.ar      14 UNK        -0.0881 
     11 C11       -53.9417  -24.4011    8.3555 C.ar      14 UNK        -0.0643 
     12 C12       -54.2051  -25.3100    9.3892 C.ar      14 UNK        -0.0930 
     13 C13       -54.2842  -26.6813    9.1231 C.ar      14 UNK        -0.0827 
     14 C14       -54.1112  -27.1389    7.8146 C.ar      14 UNK        -0.1249 
     15 C15       -54.5682  -27.6816   10.2325 C.3       14 UNK         0.0141 
     16 S16       -53.0455  -28.5151   10.7739 S.3       14 UNK        -0.2313 
     17 C17       -53.7518  -30.0259   11.5177 C.3       14 UNK        -0.0915 
     18 CA        -52.6893  -31.0503   11.9982 C.3       13 UNK         0.0968 
     19 C         -51.9491  -31.7459   10.8157 C.2       13 UNK         0.5732 
     20 N         -50.6322  -31.6408   10.6912 N.am      13 UNK        -0.7310 
     21 O         -52.5862  -32.4145   10.0062 O.2       13 UNK        -0.5035 
     22 N         -51.8463  -30.4748   13.0560 N.am      13 UNK        -0.4233 
     23 C         -51.0561  -31.1643   13.8890 C.2       13 UNK         0.4989 
     24 O         -50.8836  -32.3819   13.8329 O.2       13 UNK        -0.4996 
     25 CA        -50.3624  -30.3538   14.9967 C.3       12 UNK         0.0216 
     26 CB        -49.0552  -29.7358   14.4814 C.3       12 UNK        -0.1964 
     27 N         -51.2219  -29.2996   15.5437 N.am      12 UNK        -0.4276 
     28 C         -52.3317  -29.5282   16.2619 C.2       12 UNK         0.5020 
     29 O         -52.7168  -30.6515   16.5890 O.2       12 UNK        -0.5489 
     30 CA        -53.1563  -28.3079   16.6887 C.3       11 UNK         0.0294 
     31 CB        -52.7806  -27.8799   18.1168 C.3       11 UNK        -0.2019 
     32 N         -52.9691  -27.1710   15.7883 N.am      11 UNK        -0.4493 
     33 C         -53.7540  -26.8811   14.7399 C.2       11 UNK         0.4932 
     34 O         -54.6702  -27.6115   14.3606 O.2       11 UNK        -0.5029 
     35 CA        -53.4813  -25.5540   13.9939 C.3       10 UNK         0.0280 
     36 CB        -54.7699  -24.8915   13.4638 C.3       10 UNK        -0.1976 
     37 N         -52.6847  -24.5919   14.7696 N.am      10 UNK        -0.4242 
     38 C         -52.9756  -24.0696   15.9721 C.2       10 UNK         0.5072 
     39 O         -54.0669  -24.2064   16.5282 O.2       10 UNK        -0.5224 
     40 CA        -51.8482  -23.3103   16.7067 C.3       9 UNK         0.0343 
     41 CB        -51.9487  -23.4783   18.2376 C.3       9 UNK        -0.2003 
     42 N         -50.4819  -23.6337   16.2688 N.am      9 UNK        -0.4272 
     43 C         -49.8771  -24.8300   16.1962 C.2       9 UNK         0.4988 
     44 O         -50.4449  -25.8958   16.4467 O.2       9 UNK        -0.5108 
     45 CA        -48.3974  -24.8282   15.7440 C.3       8 UNK         0.0248 
     46 CB        -47.8517  -26.2496   15.5163 C.3       8 UNK        -0.2001 
     47 N         -48.1788  -24.0401   14.5259 N.am      8 UNK        -0.4140 
     48 C         -48.1880  -22.7018   14.4443 C.2       8 UNK         0.5028 
     49 O         -48.2689  -21.9620   15.4260 O.2       8 UNK        -0.5428 
     50 CA        -48.2104  -22.0837   13.0357 C.3       7 UNK         0.0264 
     51 CB        -46.7826  -21.8763   12.5087 C.3       7 UNK        -0.1988 
     52 N         -48.9933  -22.8654   12.0710 N.am      7 UNK        -0.4454 
     53 C         -50.2959  -23.1699   12.1998 C.2       7 UNK         0.5027 
     54 O         -50.9928  -22.8035   13.1462 O.2       7 UNK        -0.5083 
     55 CA        -50.9107  -24.0813   11.1180 C.3       6 UNK         0.0844 
     56 C56       -51.2961  -23.2861    9.8461 C.3       14 UNK        -0.0967 
     57 S57       -52.8929  -22.4299   10.0890 S.3       14 UNK        -0.2604 
     58 C58       -53.8527  -22.8986    8.6104 C.3       14 UNK         0.0134 
     59 N         -50.0375  -25.2205   10.8360 N.am      6 UNK        -0.4116 
     60 C         -49.7852  -26.2127   11.7033 C.2       5 UNK         0.5034 
     61 O         -50.3394  -26.3391   12.7953 O.2       5 UNK        -0.5045 
     62 CA        -48.6849  -27.2067   11.3072 C.3       5 UNK         0.0224 
     63 CB        -49.2704  -28.3700   10.4965 C.3       5 UNK        -0.1978 
     64 N         -47.6023  -26.5610   10.5625 N.am      5 UNK        -0.4737 
     65 C         -46.7028  -25.7460   11.1344 C.2       4 UNK         0.5027 
     66 O         -46.6840  -25.4979   12.3396 O.2       4 UNK        -0.5211 
     67 CA        -45.6756  -25.0642   10.2131 C.3       4 UNK         0.0297 
     68 CB        -44.4262  -25.9457   10.0624 C.3       4 UNK        -0.1993 
     69 N         -46.2058  -24.7411    8.8873 N.am      4 UNK        -0.4486 
     70 C         -47.2332  -23.9140    8.6458 C.2       3 UNK         0.4961 
     71 O         -47.8234  -23.2800    9.5198 O.2       3 UNK        -0.5105 
     72 CA        -47.7235  -23.8249    7.1897 C.3       3 UNK         0.0299 
     73 CB        -47.0393  -22.6567    6.4633 C.3       3 UNK        -0.1972 
     74 N         -47.5288  -25.0644    6.4251 N.am      3 UNK        -0.4305 
     75 C         -48.0843  -26.2446    6.7364 C.2       2 UNK         0.5006 
     76 O         -48.8022  -26.4102    7.7235 O.2       2 UNK        -0.5106 
     77 CA        -47.7184  -27.4303    5.8255 C.3       2 UNK         0.0296 
     78 CB        -46.6836  -28.3539    6.5006 C.3       2 UNK        -0.2002 
     79 N         -48.9049  -28.1599    5.3598 N.am      2 UNK        -0.4032 
     80 C         -49.7398  -28.9502    6.0535 C.2       1 UNK         0.5000 
     81 O         -49.5403  -29.3385    7.2077 O.2       1 UNK        -0.5238 
     82 H82       -54.9354  -30.6377    7.1560 H         1 UNK         0.0889 
     83 H83       -53.5532  -30.4715    8.2420 H         1 UNK         0.0889 
     84 H84       -53.9142  -32.0341    7.5111 H         1 UNK         0.0889 
     85 H85       -51.7740  -29.4802    7.2658 H         1 UNK         0.3028 
     86 H86       -50.7379  -30.3060    4.7854 H         1 UNK         0.0864 
     87 H87       -52.5122  -28.7854    3.8378 H         1 UNK         0.0720 
     88 H88       -50.9042  -28.3163    3.4354 H         1 UNK         0.0720 
     89 H89       -54.0484  -27.7624    5.2563 H         1 UNK         0.0814 
     90 H90       -54.2196  -26.1322    4.6586 H         1 UNK         0.0814 
     91 H91       -53.5687  -24.1863    6.2455 H         1 UNK         0.1469 
     92 H92       -54.3421  -24.9498   10.3992 H         1 UNK         0.1381 
     93 H93       -54.1764  -28.1960    7.6079 H         1 UNK         0.1206 
     94 H94       -55.2855  -28.4195    9.8702 H         1 UNK         0.0813 
     95 H95       -55.0352  -27.1952   11.0892 H         1 UNK         0.0813 
     96 H96       -54.3769  -29.7249   12.3601 H         1 UNK         0.0638 
     97 H97       -54.4284  -30.4921   10.7991 H         1 UNK         0.0638 
     98 H98       -53.2442  -31.8586   12.4783 H         1 UNK         0.0568 
     99 H99       -50.1739  -32.1005    9.9213 H         1 UNK         0.3450 
    100 H100      -50.0946  -31.1282   11.3683 H         1 UNK         0.3450 
    101 H101      -51.9168  -29.4749   13.1696 H         1 UNK         0.2987 
    102 H102      -50.1168  -31.0445   15.8064 H         1 UNK         0.0766 
    103 H103      -49.2486  -28.9840   13.7185 H         1 UNK         0.0798 
    104 H104      -48.4064  -30.4945   14.0414 H         1 UNK         0.0798 
    105 H105      -48.4965  -29.2623   15.2888 H         1 UNK         0.0798 
    106 H106      -50.9694  -28.3406   15.3465 H         1 UNK         0.3198 
    107 H107      -54.2084  -28.6020   16.6898 H         1 UNK         0.0843 
    108 H108      -53.3819  -27.0322   18.4466 H         1 UNK         0.0831 
    109 H109      -51.7306  -27.5940   18.1918 H         1 UNK         0.0831 
    110 H110      -52.9489  -28.6927   18.8246 H         1 UNK         0.0831 
    111 H111      -52.2008  -26.5419   16.0120 H         1 UNK         0.3133 
    112 H112      -52.8791  -25.8271   13.1288 H         1 UNK         0.0566 
    113 H113      -54.5441  -23.9863   12.8997 H         1 UNK         0.0814 
    114 H114      -55.3131  -25.5603   12.7966 H         1 UNK         0.0814 
    115 H115      -55.4499  -24.6234   14.2725 H         1 UNK         0.0814 
    116 H116      -51.7819  -24.3547   14.3733 H         1 UNK         0.3091 
    117 H117      -51.9975  -22.2551   16.4741 H         1 UNK         0.0702 
    118 H118      -51.1672  -22.9180   18.7508 H         1 UNK         0.0785 
    119 H119      -51.8599  -24.5248   18.5322 H         1 UNK         0.0785 
    120 H120      -52.9046  -23.1128   18.6148 H         1 UNK         0.0785 
    121 H121      -49.9095  -22.8337   16.0116 H         1 UNK         0.2998 
    122 H122      -47.8200  -24.3766   16.5530 H         1 UNK         0.0697 
    123 H123      -46.7960  -26.2314   15.2449 H         1 UNK         0.0825 
    124 H124      -47.9449  -26.8573   16.4173 H         1 UNK         0.0825 
    125 H125      -48.3917  -26.7591   14.7184 H         1 UNK         0.0825 
    126 H126      -48.0552  -24.5665   13.6678 H         1 UNK         0.3029 
    127 H127      -48.6884  -21.1051   13.1161 H         1 UNK         0.0897 
    128 H128      -46.7840  -21.4287   11.5146 H         1 UNK         0.0792 
    129 H129      -46.2205  -21.2101   13.1645 H         1 UNK         0.0792 
    130 H130      -46.2332  -22.8154   12.4550 H         1 UNK         0.0792 
    131 H131      -48.5098  -23.1567   11.2228 H         1 UNK         0.3086 
    132 H132      -51.8265  -24.5064   11.5329 H         1 UNK         0.0583 
    133 H133      -50.5297  -22.5593    9.5692 H         1 UNK         0.1020 
    134 H134      -51.3769  -23.9626    8.9943 H         1 UNK         0.1020 
    135 H135      -54.8640  -22.5036    8.7130 H         1 UNK         0.0694 
    136 H136      -53.4110  -22.3909    7.7513 H         1 UNK         0.0694 
    137 H137      -49.5252  -25.2044    9.9650 H         1 UNK         0.2989 
    138 H138      -48.2567  -27.6116   12.2254 H         1 UNK         0.1055 
    139 H139      -48.5034  -29.0886   10.2078 H         1 UNK         0.0806 
    140 H140      -49.7644  -28.0241    9.5880 H         1 UNK         0.0806 
    141 H141      -50.0182  -28.9042   11.0815 H         1 UNK         0.0806 
    142 H142      -47.6113  -26.6715    9.5553 H         1 UNK         0.3061 
    143 H143      -45.3762  -24.1269   10.6850 H         1 UNK         0.0734 
    144 H144      -43.6508  -25.4424    9.4845 H         1 UNK         0.0832 
    145 H145      -43.9977  -26.1822   11.0376 H         1 UNK         0.0832 
    146 H146      -44.6544  -26.8917    9.5696 H         1 UNK         0.0832 
    147 H147      -45.7854  -25.2141    8.1011 H         1 UNK         0.3156 
    148 H148      -48.7967  -23.6244    7.2214 H         1 UNK         0.0589 
    149 H149      -45.9632  -22.8099    6.3723 H         1 UNK         0.0808 
    150 H150      -47.4462  -22.5182    5.4614 H         1 UNK         0.0808 
    151 H151      -47.1902  -21.7206    7.0034 H         1 UNK         0.0808 
    152 H152      -46.9406  -25.0020    5.6059 H         1 UNK         0.3098 
    153 H153      -47.2557  -27.0312    4.9215 H         1 UNK         0.0720 
    154 H154      -47.0336  -28.7274    7.4636 H         1 UNK         0.0791 
    155 H155      -45.7501  -27.8213    6.6851 H         1 UNK         0.0791 
    156 H156      -46.4484  -29.2133    5.8728 H         1 UNK         0.0791 
    157 H157      -49.2051  -27.9058    4.4293 H         1 UNK         0.3028 
@<TRIPOS>BOND
     1    1    2 1    
     2    1   82 1    
     3    1   83 1    
     4    1   84 1    
     5    2    3 2    
     6    2    4 am   BACKBONE|DICT|INTERRES
     7    4    5 1    
     8    4   85 1    
     9    5    6 1    
    10    5   80 1    
    11    5   86 1    
    12    6    7 1    
    13    6   87 1    
    14    6   88 1    
    15    7    8 1    
    16    8    9 1    
    17    8   89 1    
    18    8   90 1    
    19    9   10 ar   
    20    9   14 ar   
    21   10   11 ar   
    22   10   91 1    
    23   11   12 ar   
    24   11   58 1    
    25   12   13 ar   
    26   12   92 1    
    27   13   14 ar   
    28   13   15 1    
    29   14   93 1    
    30   15   16 1    
    31   15   94 1    
    32   15   95 1    
    33   16   17 1    
    34   17   18 1    
    35   17   96 1    
    36   17   97 1    
    37   18   19 1    
    38   18   22 1    
    39   18   98 1    
    40   19   20 am   BACKBONE|DICT|INTERRES
    41   19   21 2    
    42   20   99 1    
    43   20  100 1    
    44   22   23 am   BACKBONE|DICT|INTERRES
    45   22  101 1    
    46   23   24 2    
    47   23   25 1    
    48   25   26 1    
    49   25   27 1    
    50   25  102 1    
    51   26  103 1    
    52   26  104 1    
    53   26  105 1    
    54   27   28 am   BACKBONE|DICT|INTERRES
    55   27  106 1    
    56   28   29 2    
    57   28   30 1    
    58   30   31 1    
    59   30   32 1    
    60   30  107 1    
    61   31  108 1    
    62   31  109 1    
    63   31  110 1    
    64   32   33 am   BACKBONE|DICT|INTERRES
    65   32  111 1    
    66   33   34 2    
    67   33   35 1    
    68   35   36 1    
    69   35   37 1    
    70   35  112 1    
    71   36  113 1    
    72   36  114 1    
    73   36  115 1    
    74   37   38 am   BACKBONE|DICT|INTERRES
    75   37  116 1    
    76   38   39 2    
    77   38   40 1    
    78   40   41 1    
    79   40   42 1    
    80   40  117 1    
    81   41  118 1    
    82   41  119 1    
    83   41  120 1    
    84   42   43 am   BACKBONE|DICT|INTERRES
    85   42  121 1    
    86   43   44 2    
    87   43   45 1    
    88   45   46 1    
    89   45   47 1    
    90   45  122 1    
    91   46  123 1    
    92   46  124 1    
    93   46  125 1    
    94   47   48 am   BACKBONE|DICT|INTERRES
    95   47  126 1    
    96   48   49 2    
    97   48   50 1    
    98   50   51 1    
    99   50   52 1    
   100   50  127 1    
   101   51  128 1    
   102   51  129 1    
   103   51  130 1    
   104   52   53 am   BACKBONE|DICT|INTERRES
   105   52  131 1    
   106   53   54 2    
   107   53   55 1    
   108   55   56 1    
   109   55   59 1    
   110   55  132 1    
   111   56   57 1    
   112   56  133 1    
   113   56  134 1    
   114   57   58 1    
   115   58  135 1    
   116   58  136 1    
   117   59   60 am   BACKBONE|DICT|INTERRES
   118   59  137 1    
   119   60   61 2    
   120   60   62 1    
   121   62   63 1    
   122   62   64 1    
   123   62  138 1    
   124   63  139 1    
   125   63  140 1    
   126   63  141 1    
   127   64   65 am   BACKBONE|DICT|INTERRES
   128   64  142 1    
   129   65   66 2    
   130   65   67 1    
   131   67   68 1    
   132   67   69 1    
   133   67  143 1    
   134   68  144 1    
   135   68  145 1    
   136   68  146 1    
   137   69   70 am   BACKBONE|DICT|INTERRES
   138   69  147 1    
   139   70   71 2    
   140   70   72 1    
   141   72   73 1    
   142   72   74 1    
   143   72  148 1    
   144   73  149 1    
   145   73  150 1    
   146   73  151 1    
   147   74   75 am   BACKBONE|DICT|INTERRES
   148   74  152 1    
   149   75   76 2    
   150   75   77 1    
   151   77   78 1    
   152   77   79 1    
   153   77  153 1    
   154   78  154 1    
   155   78  155 1    
   156   78  156 1    
   157   79   80 am   BACKBONE|DICT|INTERRES
   158   79  157 1    
   159   80   81 2    
@<TRIPOS>SUBSTRUCTURE
     1 UNK         1 GROUP             0       ****    0 ROOT    
