@<TRIPOS>MOLECULE
3R207
157   159    1
SMALL
USER_CHARGES


@<TRIPOS>ATOM
      1 CA        -48.3449  -26.1043    3.6077 C.3       0 UNK        -0.1975 
      2 C         -48.7126  -25.1139    4.7019 C.2       0 UNK         0.4852 
      3 O         -48.1582  -24.0148    4.7456 O.2       0 UNK        -0.5216 
      4 N         -49.6318  -25.5009    5.5957 N.am      1 UNK        -0.4461 
      5 CA        -50.1250  -24.7048    6.7249 C.3       1 UNK         0.0864 
      6 C6        -51.3121  -25.4004    7.4308 C.3       14 UNK        -0.0898 
      7 S7        -52.7943  -25.4938    6.3683 S.3       14 UNK        -0.2598 
      8 C8        -52.8534  -27.2544    5.8939 C.3       14 UNK         0.0286 
      9 C9        -53.0523  -28.1689    7.0943 C.ar      14 UNK        -0.0844 
     10 C10       -52.0005  -28.9696    7.5515 C.ar      14 UNK        -0.0881 
     11 C11       -52.1619  -29.7761    8.6820 C.ar      14 UNK        -0.0643 
     12 C12       -53.4007  -29.8120    9.3270 C.ar      14 UNK        -0.0930 
     13 C13       -54.4645  -29.0289    8.8706 C.ar      14 UNK        -0.0827 
     14 C14       -54.2850  -28.2076    7.7539 C.ar      14 UNK        -0.1249 
     15 C15       -55.8038  -29.0858    9.5874 C.3       14 UNK         0.0141 
     16 S16       -55.6939  -28.3722   11.2601 S.3       14 UNK        -0.2313 
     17 C17       -57.1361  -29.1556   12.0633 C.3       14 UNK        -0.0915 
     18 CA        -56.7675  -30.3535   12.9810 C.3       13 UNK         0.0968 
     19 C         -56.2609  -31.5823   12.1662 C.2       13 UNK         0.5732 
     20 N         -54.9997  -31.9831   12.2765 N.am      13 UNK        -0.7310 
     21 O         -57.0332  -32.1835   11.4235 O.2       13 UNK        -0.5035 
     22 N         -55.9170  -29.9283   14.1051 N.am      13 UNK        -0.4233 
     23 C         -55.6489  -30.6686   15.1900 C.2       13 UNK         0.4989 
     24 O         -56.0822  -31.8067   15.3730 O.2       13 UNK        -0.4996 
     25 CA        -54.7537  -30.0286   16.2656 C.3       12 UNK         0.0216 
     26 CB        -53.2682  -30.2472   15.9318 C.3       12 UNK        -0.1964 
     27 N         -55.0022  -28.5982   16.4628 N.am      12 UNK        -0.4276 
     28 C         -56.1536  -28.0600   16.8910 C.2       12 UNK         0.5020 
     29 O         -57.1460  -28.7228   17.1964 O.2       12 UNK        -0.5489 
     30 CA        -56.2141  -26.5262   17.0184 C.3       11 UNK         0.0294 
     31 CB        -56.2559  -26.1097   18.4981 C.3       11 UNK        -0.2019 
     32 N         -55.1019  -25.8298   16.3656 N.am      11 UNK        -0.4493 
     33 C         -54.9310  -25.6892   15.0467 C.2       11 UNK         0.4932 
     34 O         -55.6978  -26.1631   14.2098 O.2       11 UNK        -0.5029 
     35 CA        -53.6910  -24.9040   14.5807 C.3       10 UNK         0.0280 
     36 CB        -53.8970  -23.3888   14.7674 C.3       10 UNK        -0.1976 
     37 N         -52.4167  -25.3500   15.1660 N.am      10 UNK        -0.4242 
     38 C         -52.0099  -25.3302   16.4464 C.2       10 UNK         0.5072 
     39 O         -52.6949  -24.9254   17.3866 O.2       10 UNK        -0.5224 
     40 CA        -50.5942  -25.8557   16.7219 C.3       9 UNK         0.0343 
     41 CB        -50.5312  -27.3840   16.5583 C.3       9 UNK        -0.2003 
     42 N         -49.6311  -25.2193   15.8248 N.am      9 UNK        -0.4272 
     43 C         -48.9872  -24.0730   16.0927 C.2       9 UNK         0.4988 
     44 O         -49.0382  -23.4923   17.1774 O.2       9 UNK        -0.5108 
     45 CA        -48.1555  -23.4558   14.9526 C.3       8 UNK         0.0248 
     46 CB        -46.7047  -23.9608   15.0039 C.3       8 UNK        -0.2001 
     47 N         -48.7308  -23.7324   13.6338 N.am      8 UNK        -0.4140 
     48 C         -49.8774  -23.1946   13.1888 C.2       8 UNK         0.5028 
     49 O         -50.4823  -22.3025   13.7832 O.2       8 UNK        -0.5428 
     50 CA        -50.4714  -23.7464   11.8781 C.3       7 UNK         0.0264 
     51 CB        -50.3379  -22.7122   10.7496 C.3       7 UNK        -0.1988 
     52 N         -49.9036  -25.0300   11.4452 N.am      7 UNK        -0.4454 
     53 C         -50.0521  -26.1914   12.1039 C.2       7 UNK         0.5027 
     54 O         -50.6669  -26.2981   13.1664 O.2       7 UNK        -0.5083 
     55 CA        -49.3597  -27.4266   11.5002 C.3       6 UNK         0.0844 
     56 C56       -50.3124  -28.1358   10.5115 C.3       14 UNK        -0.0967 
     57 S57       -49.5475  -29.5520    9.6480 S.3       14 UNK        -0.2604 
     58 C58       -50.9941  -30.5852    9.2336 C.3       14 UNK         0.0134 
     59 N         -48.0709  -27.0707   10.8994 N.am      6 UNK        -0.4116 
     60 C         -46.9751  -26.7299   11.5903 C.2       5 UNK         0.5034 
     61 O         -46.9578  -26.6398   12.8181 O.2       5 UNK        -0.5045 
     62 CA        -45.6981  -26.3875   10.7983 C.3       5 UNK         0.0224 
     63 CB        -44.4397  -27.0331   11.4146 C.3       5 UNK        -0.1978 
     64 N         -45.7871  -26.6532    9.3559 N.am      5 UNK        -0.4737 
     65 C         -45.8703  -27.8329    8.7191 C.2       4 UNK         0.5027 
     66 O         -45.8275  -28.9238    9.2857 O.2       4 UNK        -0.5211 
     67 CA        -46.0664  -27.7921    7.1899 C.3       4 UNK         0.0297 
     68 CB        -47.4670  -28.3053    6.8122 C.3       4 UNK        -0.1993 
     69 N         -45.8971  -26.4445    6.6416 N.am      4 UNK        -0.4486 
     70 C         -44.7217  -25.8889    6.3150 C.2       3 UNK         0.4961 
     71 O         -43.6507  -26.4951    6.3191 O.2       3 UNK        -0.5105 
     72 CA        -44.7412  -24.3912    5.9581 C.3       3 UNK         0.0299 
     73 CB        -44.7538  -24.1917    4.4342 C.3       3 UNK        -0.1972 
     74 N         -45.8751  -23.6812    6.5642 N.am      3 UNK        -0.4305 
     75 C         -45.9589  -23.3877    7.8720 C.2       2 UNK         0.5006 
     76 O         -45.0743  -23.6539    8.6844 O.2       2 UNK        -0.5106 
     77 CA        -47.2581  -22.7448    8.3825 C.3       2 UNK         0.0296 
     78 CB        -47.1593  -21.2120    8.3439 C.3       2 UNK        -0.2002 
     79 N         -48.4393  -23.1794    7.6358 N.am      2 UNK        -0.4032 
     80 C         -48.9852  -24.4000    7.7179 C.2       1 UNK         0.5000 
     81 O         -48.6039  -25.2709    8.5057 O.2       1 UNK        -0.5238 
     82 H82       -47.3274  -26.4658    3.7528 H         1 UNK         0.0889 
     83 H83       -48.3998  -25.6217    2.6323 H         1 UNK         0.0889 
     84 H84       -49.0132  -26.9651    3.5961 H         1 UNK         0.0889 
     85 H85       -50.0439  -26.4168    5.5072 H         1 UNK         0.3028 
     86 H86       -50.4863  -23.7545    6.3253 H         1 UNK         0.0864 
     87 H87       -51.5998  -24.8551    8.3314 H         1 UNK         0.0720 
     88 H88       -51.0234  -26.3963    7.7624 H         1 UNK         0.0720 
     89 H89       -51.9458  -27.5163    5.3491 H         1 UNK         0.0814 
     90 H90       -53.6776  -27.4009    5.1943 H         1 UNK         0.0814 
     91 H91       -51.0410  -28.9416    7.0534 H         1 UNK         0.1469 
     92 H92       -53.5379  -30.4359   10.1997 H         1 UNK         0.1381 
     93 H93       -55.0994  -27.5897    7.4005 H         1 UNK         0.1206 
     94 H94       -56.1235  -30.1268    9.6404 H         1 UNK         0.0813 
     95 H95       -56.5737  -28.5561    9.0243 H         1 UNK         0.0813 
     96 H96       -57.8628  -29.4569   11.3065 H         1 UNK         0.0638 
     97 H97       -57.6373  -28.3880   12.6551 H         1 UNK         0.0638 
     98 H98       -57.7022  -30.6893   13.4341 H         1 UNK         0.0568 
     99 H99       -54.3632  -31.5012   12.8889 H         1 UNK         0.3450 
    100 H100      -54.6911  -32.7866   11.7532 H         1 UNK         0.3450 
    101 H101      -55.5258  -29.0003   14.0324 H         1 UNK         0.2987 
    102 H102      -54.9689  -30.5326   17.2103 H         1 UNK         0.0766 
    103 H103      -52.6262  -29.9123   16.7464 H         1 UNK         0.0798 
    104 H104      -52.9705  -29.7149   15.0274 H         1 UNK         0.0798 
    105 H105      -53.0553  -31.3055   15.7727 H         1 UNK         0.0798 
    106 H106      -54.2455  -27.9662   16.2495 H         1 UNK         0.3198 
    107 H107      -57.1425  -26.2013   16.5438 H         1 UNK         0.0843 
    108 H108      -55.3433  -26.3955   19.0230 H         1 UNK         0.0831 
    109 H109      -57.0920  -26.5825   19.0154 H         1 UNK         0.0831 
    110 H110      -56.3803  -25.0318   18.6037 H         1 UNK         0.0831 
    111 H111      -54.3842  -25.4259   16.9670 H         1 UNK         0.3133 
    112 H112      -53.5933  -25.0871   13.5092 H         1 UNK         0.0566 
    113 H113      -53.0714  -22.8217   14.3389 H         1 UNK         0.0814 
    114 H114      -54.8092  -23.0556   14.2707 H         1 UNK         0.0814 
    115 H115      -53.9811  -23.1120   15.8187 H         1 UNK         0.0814 
    116 H116      -51.7675  -25.7416   14.4844 H         1 UNK         0.3091 
    117 H117      -50.3417  -25.6211   17.7584 H         1 UNK         0.0702 
    118 H118      -49.5366  -27.7635   16.7930 H         1 UNK         0.0785 
    119 H119      -50.7773  -27.7027   15.5448 H         1 UNK         0.0785 
    120 H120      -51.2311  -27.8746   17.2357 H         1 UNK         0.0785 
    121 H121      -49.5578  -25.6106   14.8944 H         1 UNK         0.2998 
    122 H122      -48.1428  -22.3732   15.0971 H         1 UNK         0.0697 
    123 H123      -46.6492  -25.0462   14.9162 H         1 UNK         0.0825 
    124 H124      -46.2339  -23.6893   15.9497 H         1 UNK         0.0825 
    125 H125      -46.1017  -23.5269   14.2060 H         1 UNK         0.0825 
    126 H126      -48.2882  -24.4565   13.0861 H         1 UNK         0.3029 
    127 H127      -51.5363  -23.9070   12.0613 H         1 UNK         0.0897 
    128 H128      -50.8037  -23.0598    9.8284 H         1 UNK         0.0792 
    129 H129      -50.8290  -21.7766   11.0212 H         1 UNK         0.0792 
    130 H130      -49.2957  -22.4769   10.5407 H         1 UNK         0.0792 
    131 H131      -49.3788  -25.0359   10.5779 H         1 UNK         0.3086 
    132 H132      -49.1585  -28.1195   12.3203 H         1 UNK         0.0583 
    133 H133      -51.1988  -28.4871   11.0443 H         1 UNK         0.1020 
    134 H134      -50.6715  -27.4380    9.7548 H         1 UNK         0.1020 
    135 H135      -50.6968  -31.3338    8.4982 H         1 UNK         0.0694 
    136 H136      -51.2928  -31.1333   10.1285 H         1 UNK         0.0694 
    137 H137      -48.0243  -27.0742    9.8895 H         1 UNK         0.2989 
    138 H138      -45.5833  -25.3062   10.8901 H         1 UNK         0.1055 
    139 H139      -44.2918  -26.6981   12.4421 H         1 UNK         0.0806 
    140 H140      -43.5427  -26.7651   10.8565 H         1 UNK         0.0806 
    141 H141      -44.5097  -28.1208   11.4383 H         1 UNK         0.0806 
    142 H142      -45.8121  -25.8202    8.7829 H         1 UNK         0.3061 
    143 H143      -45.3254  -28.4593    6.7444 H         1 UNK         0.0734 
    144 H144      -47.6101  -28.3157    5.7320 H         1 UNK         0.0832 
    145 H145      -47.6133  -29.3275    7.1641 H         1 UNK         0.0832 
    146 H146      -48.2567  -27.6968    7.2541 H         1 UNK         0.0832 
    147 H147      -46.7196  -25.8602    6.6237 H         1 UNK         0.3156 
    148 H148      -43.8191  -23.9509    6.3439 H         1 UNK         0.0589 
    149 H149      -45.6389  -24.6271    3.9716 H         1 UNK         0.0808 
    150 H150      -44.7252  -23.1339    4.1724 H         1 UNK         0.0808 
    151 H151      -43.8837  -24.6620    3.9740 H         1 UNK         0.0808 
    152 H152      -46.6619  -23.4765    5.9537 H         1 UNK         0.3098 
    153 H153      -47.3762  -23.0528    9.4229 H         1 UNK         0.0720 
    154 H154      -48.0443  -20.7466    8.7783 H         1 UNK         0.0791 
    155 H155      -47.0483  -20.8383    7.3251 H         1 UNK         0.0791 
    156 H156      -46.2980  -20.8624    8.9151 H         1 UNK         0.0791 
    157 H157      -48.7900  -22.5412    6.9349 H         1 UNK         0.3028 
@<TRIPOS>BOND
     1    1    2 1    
     2    1   82 1    
     3    1   83 1    
     4    1   84 1    
     5    2    3 2    
     6    2    4 am   BACKBONE|DICT|INTERRES
     7    4    5 1    
     8    4   85 1    
     9    5    6 1    
    10    5   80 1    
    11    5   86 1    
    12    6    7 1    
    13    6   87 1    
    14    6   88 1    
    15    7    8 1    
    16    8    9 1    
    17    8   89 1    
    18    8   90 1    
    19    9   10 ar   
    20    9   14 ar   
    21   10   11 ar   
    22   10   91 1    
    23   11   12 ar   
    24   11   58 1    
    25   12   13 ar   
    26   12   92 1    
    27   13   14 ar   
    28   13   15 1    
    29   14   93 1    
    30   15   16 1    
    31   15   94 1    
    32   15   95 1    
    33   16   17 1    
    34   17   18 1    
    35   17   96 1    
    36   17   97 1    
    37   18   19 1    
    38   18   22 1    
    39   18   98 1    
    40   19   20 am   BACKBONE|DICT|INTERRES
    41   19   21 2    
    42   20   99 1    
    43   20  100 1    
    44   22   23 am   BACKBONE|DICT|INTERRES
    45   22  101 1    
    46   23   24 2    
    47   23   25 1    
    48   25   26 1    
    49   25   27 1    
    50   25  102 1    
    51   26  103 1    
    52   26  104 1    
    53   26  105 1    
    54   27   28 am   BACKBONE|DICT|INTERRES
    55   27  106 1    
    56   28   29 2    
    57   28   30 1    
    58   30   31 1    
    59   30   32 1    
    60   30  107 1    
    61   31  108 1    
    62   31  109 1    
    63   31  110 1    
    64   32   33 am   BACKBONE|DICT|INTERRES
    65   32  111 1    
    66   33   34 2    
    67   33   35 1    
    68   35   36 1    
    69   35   37 1    
    70   35  112 1    
    71   36  113 1    
    72   36  114 1    
    73   36  115 1    
    74   37   38 am   BACKBONE|DICT|INTERRES
    75   37  116 1    
    76   38   39 2    
    77   38   40 1    
    78   40   41 1    
    79   40   42 1    
    80   40  117 1    
    81   41  118 1    
    82   41  119 1    
    83   41  120 1    
    84   42   43 am   BACKBONE|DICT|INTERRES
    85   42  121 1    
    86   43   44 2    
    87   43   45 1    
    88   45   46 1    
    89   45   47 1    
    90   45  122 1    
    91   46  123 1    
    92   46  124 1    
    93   46  125 1    
    94   47   48 am   BACKBONE|DICT|INTERRES
    95   47  126 1    
    96   48   49 2    
    97   48   50 1    
    98   50   51 1    
    99   50   52 1    
   100   50  127 1    
   101   51  128 1    
   102   51  129 1    
   103   51  130 1    
   104   52   53 am   BACKBONE|DICT|INTERRES
   105   52  131 1    
   106   53   54 2    
   107   53   55 1    
   108   55   56 1    
   109   55   59 1    
   110   55  132 1    
   111   56   57 1    
   112   56  133 1    
   113   56  134 1    
   114   57   58 1    
   115   58  135 1    
   116   58  136 1    
   117   59   60 am   BACKBONE|DICT|INTERRES
   118   59  137 1    
   119   60   61 2    
   120   60   62 1    
   121   62   63 1    
   122   62   64 1    
   123   62  138 1    
   124   63  139 1    
   125   63  140 1    
   126   63  141 1    
   127   64   65 am   BACKBONE|DICT|INTERRES
   128   64  142 1    
   129   65   66 2    
   130   65   67 1    
   131   67   68 1    
   132   67   69 1    
   133   67  143 1    
   134   68  144 1    
   135   68  145 1    
   136   68  146 1    
   137   69   70 am   BACKBONE|DICT|INTERRES
   138   69  147 1    
   139   70   71 2    
   140   70   72 1    
   141   72   73 1    
   142   72   74 1    
   143   72  148 1    
   144   73  149 1    
   145   73  150 1    
   146   73  151 1    
   147   74   75 am   BACKBONE|DICT|INTERRES
   148   74  152 1    
   149   75   76 2    
   150   75   77 1    
   151   77   78 1    
   152   77   79 1    
   153   77  153 1    
   154   78  154 1    
   155   78  155 1    
   156   78  156 1    
   157   79   80 am   BACKBONE|DICT|INTERRES
   158   79  157 1    
   159   80   81 2    
@<TRIPOS>SUBSTRUCTURE
     1 UNK         1 GROUP             0       ****    0 ROOT    
