@<TRIPOS>MOLECULE
3R207
157   159    1
SMALL
USER_CHARGES


@<TRIPOS>ATOM
      1 CA        -48.2562  -30.6716    4.3407 C.3       0 UNK        -0.1975 
      2 C         -48.2946  -29.6002    5.4196 C.2       0 UNK         0.4852 
      3 O         -47.2733  -28.9631    5.6801 O.2       0 UNK        -0.5216 
      4 N         -49.4712  -29.3847    6.0295 N.am      1 UNK        -0.4461 
      5 CA        -49.7297  -28.4543    7.1429 C.3       1 UNK         0.0864 
      6 C6        -49.1548  -28.9632    8.4908 C.3       14 UNK        -0.0898 
      7 S7        -49.9409  -30.5068    9.0561 S.3       14 UNK        -0.2598 
      8 C8        -51.0638  -29.8780   10.3456 C.3       14 UNK         0.0286 
      9 C9        -52.2499  -29.1375    9.7466 C.ar      14 UNK        -0.0844 
     10 C10       -52.2360  -27.7450    9.6271 C.ar      14 UNK        -0.0881 
     11 C11       -53.3358  -27.0647    9.0899 C.ar      14 UNK        -0.0643 
     12 C12       -54.4570  -27.7924    8.6784 C.ar      14 UNK        -0.0930 
     13 C13       -54.4801  -29.1856    8.7911 C.ar      14 UNK        -0.0827 
     14 C14       -53.3718  -29.8508    9.3216 C.ar      14 UNK        -0.1249 
     15 C15       -55.6867  -29.9809    8.3152 C.3       14 UNK         0.0141 
     16 S16       -56.4655  -30.9263    9.6623 S.3       14 UNK        -0.2313 
     17 C17       -57.3874  -29.6400   10.5764 C.3       14 UNK        -0.0915 
     18 CA        -56.8716  -29.3528   12.0136 C.3       13 UNK         0.0968 
     19 C         -56.8491  -30.6178   12.9248 C.2       13 UNK         0.5732 
     20 N         -55.7063  -31.0505   13.4466 N.am      13 UNK        -0.7310 
     21 O         -57.8973  -31.2090   13.1746 O.2       13 UNK        -0.5035 
     22 N         -55.6250  -28.5743   12.0048 N.am      13 UNK        -0.4233 
     23 C         -55.2152  -27.8155   13.0296 C.2       13 UNK         0.4989 
     24 O         -55.8704  -27.6300   14.0571 O.2       13 UNK        -0.4996 
     25 CA        -53.8372  -27.1514   12.8840 C.3       12 UNK         0.0216 
     26 CB        -53.9247  -25.6320   13.0981 C.3       12 UNK        -0.1964 
     27 N         -52.8370  -27.7082   13.7954 N.am      12 UNK        -0.4276 
     28 C         -52.4879  -29.0000   13.8878 C.2       12 UNK         0.5020 
     29 O         -52.9942  -29.9052   13.2230 O.2       12 UNK        -0.5489 
     30 CA        -51.3772  -29.3404   14.8898 C.3       11 UNK         0.0294 
     31 CB        -49.9977  -29.0224   14.2877 C.3       11 UNK        -0.2019 
     32 N         -51.5505  -28.6032   16.1429 N.am      11 UNK        -0.4493 
     33 C         -52.2180  -29.0700   17.2085 C.2       11 UNK         0.4932 
     34 O         -52.7250  -30.1909   17.2605 O.2       11 UNK        -0.5029 
     35 CA        -52.3302  -28.1496   18.4394 C.3       10 UNK         0.0280 
     36 CB        -51.2230  -28.4787   19.4541 C.3       10 UNK        -0.1976 
     37 N         -52.2671  -26.7259   18.1058 N.am      10 UNK        -0.4242 
     38 C         -53.2515  -26.0360   17.5123 C.2       10 UNK         0.5072 
     39 O         -54.3642  -26.5024   17.2702 O.2       10 UNK        -0.5224 
     40 CA        -52.9400  -24.5824   17.1037 C.3       9 UNK         0.0343 
     41 CB        -53.4671  -23.6021   18.1640 C.3       9 UNK        -0.2003 
     42 N         -51.5185  -24.3064   16.8562 N.am      9 UNK        -0.4272 
     43 C         -50.7597  -24.9236   15.9410 C.2       9 UNK         0.4988 
     44 O         -51.1655  -25.8353   15.2169 O.2       9 UNK        -0.5108 
     45 CA        -49.3019  -24.4614   15.8364 C.3       8 UNK         0.0248 
     46 CB        -48.3316  -25.6551   15.7962 C.3       8 UNK        -0.2001 
     47 N         -49.1460  -23.6585   14.6273 N.am      8 UNK        -0.4140 
     48 C         -49.3636  -22.3355   14.5698 C.2       8 UNK         0.5028 
     49 O         -49.6436  -21.6517   15.5559 O.2       8 UNK        -0.5428 
     50 CA        -49.2524  -21.6423   13.1970 C.3       7 UNK         0.0264 
     51 CB        -47.8903  -20.9433   13.0606 C.3       7 UNK        -0.1988 
     52 N         -49.4489  -22.5491   12.0626 N.am      7 UNK        -0.4454 
     53 C         -50.6211  -23.1315   11.7611 C.2       7 UNK         0.5027 
     54 O         -51.6713  -22.8606   12.3442 O.2       7 UNK        -0.5083 
     55 CA        -50.6502  -24.2040   10.6448 C.3       6 UNK         0.0844 
     56 C56       -51.3272  -23.6188    9.3783 C.3       14 UNK        -0.0967 
     57 S57       -51.8362  -24.8965    8.1866 S.3       14 UNK        -0.2604 
     58 C58       -53.3385  -25.5441    8.9914 C.3       14 UNK         0.0134 
     59 N         -49.3383  -24.8116   10.3671 N.am      6 UNK        -0.4116 
     60 C         -48.5782  -25.4406   11.2772 C.2       5 UNK         0.5034 
     61 O         -48.9716  -25.7087   12.4113 O.2       5 UNK        -0.5045 
     62 CA        -47.1068  -25.7377   10.9284 C.3       5 UNK         0.0224 
     63 CB        -46.8636  -27.2308   10.6687 C.3       5 UNK        -0.1978 
     64 N         -46.5386  -24.9578    9.8239 N.am      5 UNK        -0.4737 
     65 C         -46.4324  -23.6259    9.7665 C.2       4 UNK         0.5027 
     66 O         -46.9012  -22.8785   10.6248 O.2       4 UNK        -0.5211 
     67 CA        -45.7005  -23.0047    8.5603 C.3       4 UNK         0.0297 
     68 CB        -44.2606  -22.6138    8.9444 C.3       4 UNK        -0.1993 
     69 N         -45.7212  -23.7928    7.3169 N.am      4 UNK        -0.4486 
     70 C         -45.1611  -24.9785    7.0378 C.2       3 UNK         0.4961 
     71 O         -44.5362  -25.6509    7.8588 O.2       3 UNK        -0.5105 
     72 CA        -45.3817  -25.5122    5.6064 C.3       3 UNK         0.0299 
     73 CB        -44.5801  -26.7961    5.3244 C.3       3 UNK        -0.1972 
     74 N         -46.7999  -25.7701    5.3440 N.am      3 UNK        -0.4305 
     75 C         -47.7300  -24.8264    5.1302 C.2       2 UNK         0.5006 
     76 O         -47.4607  -23.6271    5.0366 O.2       2 UNK        -0.5106 
     77 CA        -49.2053  -25.2601    5.0289 C.3       2 UNK         0.0296 
     78 CB        -49.6852  -25.1897    3.5699 C.3       2 UNK        -0.2002 
     79 N         -49.5050  -26.5909    5.5639 N.am      2 UNK        -0.4032 
     80 C         -49.3109  -26.9979    6.8280 C.2       1 UNK         0.5000 
     81 O         -48.8135  -26.2846    7.7028 O.2       1 UNK        -0.5238 
     82 H82       -47.9526  -30.2352    3.3895 H         1 UNK         0.0889 
     83 H83       -49.2267  -31.1477    4.2022 H         1 UNK         0.0889 
     84 H84       -47.5349  -31.4437    4.6071 H         1 UNK         0.0889 
     85 H85       -50.2663  -29.9462    5.7572 H         1 UNK         0.3028 
     86 H86       -50.8148  -28.4093    7.2457 H         1 UNK         0.0864 
     87 H87       -49.2774  -28.2169    9.2762 H         1 UNK         0.0720 
     88 H88       -48.0829  -29.1424    8.3996 H         1 UNK         0.0720 
     89 H89       -50.5174  -29.2345   11.0367 H         1 UNK         0.0814 
     90 H90       -51.4238  -30.7187   10.9409 H         1 UNK         0.0814 
     91 H91       -51.3711  -27.1876    9.9589 H         1 UNK         0.1469 
     92 H92       -55.3128  -27.2738    8.2678 H         1 UNK         0.1381 
     93 H93       -53.3845  -30.9291    9.4075 H         1 UNK         0.1206 
     94 H94       -56.4296  -29.3360    7.8434 H         1 UNK         0.0813 
     95 H95       -55.3592  -30.6803    7.5448 H         1 UNK         0.0813 
     96 H96       -57.4006  -28.7162    9.9962 H         1 UNK         0.0638 
     97 H97       -58.4285  -29.9639   10.6235 H         1 UNK         0.0638 
     98 H98       -57.6259  -28.7063   12.4665 H         1 UNK         0.0568 
     99 H99       -55.7145  -31.8664   14.0364 H         1 UNK         0.3450 
    100 H100      -54.8279  -30.5770   13.2540 H         1 UNK         0.3450 
    101 H101      -55.0120  -28.7274   11.2153 H         1 UNK         0.2987 
    102 H102      -53.4772  -27.3251   11.8744 H         1 UNK         0.0766 
    103 H103      -54.6174  -25.1752   12.3903 H         1 UNK         0.0798 
    104 H104      -52.9545  -25.1559   12.9596 H         1 UNK         0.0798 
    105 H105      -54.2738  -25.3882   14.1020 H         1 UNK         0.0798 
    106 H106      -52.3291  -27.0362   14.3659 H         1 UNK         0.3198 
    107 H107      -51.4166  -30.4143   15.0863 H         1 UNK         0.0843 
    108 H108      -49.9187  -27.9804   13.9748 H         1 UNK         0.0831 
    109 H109      -49.8091  -29.6386   13.4080 H         1 UNK         0.0831 
    110 H110      -49.1964  -29.2215   14.9992 H         1 UNK         0.0831 
    111 H111      -51.2222  -27.6444   16.1478 H         1 UNK         0.3133 
    112 H112      -53.2941  -28.3478   18.9133 H         1 UNK         0.0566 
    113 H113      -51.3287  -27.8875   20.3640 H         1 UNK         0.0814 
    114 H114      -50.2292  -28.2929   19.0445 H         1 UNK         0.0814 
    115 H115      -51.2626  -29.5290   19.7468 H         1 UNK         0.0814 
    116 H116      -51.3971  -26.2491   18.2923 H         1 UNK         0.3091 
    117 H117      -53.4723  -24.3907   16.1702 H         1 UNK         0.0702 
    118 H118      -53.3498  -22.5672   17.8418 H         1 UNK         0.0785 
    119 H119      -52.9487  -23.7199   19.1164 H         1 UNK         0.0785 
    120 H120      -54.5304  -23.7621   18.3496 H         1 UNK         0.0785 
    121 H121      -51.1073  -23.5534   17.3905 H         1 UNK         0.2998 
    122 H122      -49.0495  -23.8635   16.7149 H         1 UNK         0.0697 
    123 H123      -48.5057  -26.2967   14.9329 H         1 UNK         0.0825 
    124 H124      -48.4370  -26.2747   16.6875 H         1 UNK         0.0825 
    125 H125      -47.2954  -25.3194   15.7549 H         1 UNK         0.0825 
    126 H126      -49.0012  -24.1780   13.7675 H         1 UNK         0.3029 
    127 H127      -50.0319  -20.8782   13.1556 H         1 UNK         0.0897 
    128 H128      -47.0658  -21.6559   13.1075 H         1 UNK         0.0792 
    129 H129      -47.7410  -20.2182   13.8618 H         1 UNK         0.0792 
    130 H130      -47.8128  -20.4039   12.1163 H         1 UNK         0.0792 
    131 H131      -48.6186  -22.7830   11.5220 H         1 UNK         0.3086 
    132 H132      -51.2817  -25.0055   11.0317 H         1 UNK         0.0583 
    133 H133      -52.2164  -23.0375    9.6334 H         1 UNK         0.1020 
    134 H134      -50.6537  -22.9230    8.8745 H         1 UNK         0.1020 
    135 H135      -53.4447  -25.1359    9.9967 H         1 UNK         0.0694 
    136 H136      -54.2039  -25.1928    8.4276 H         1 UNK         0.0694 
    137 H137      -48.9729  -24.7116    9.4288 H         1 UNK         0.2989 
    138 H138      -46.5424  -25.4678   11.8237 H         1 UNK         0.1055 
    139 H139      -45.8166  -27.4879   10.8304 H         1 UNK         0.0806 
    140 H140      -47.1048  -27.4944    9.6415 H         1 UNK         0.0806 
    141 H141      -47.4581  -27.8627   11.3307 H         1 UNK         0.0806 
    142 H142      -46.0803  -25.4810    9.0850 H         1 UNK         0.3061 
    143 H143      -46.2372  -22.0838    8.3265 H         1 UNK         0.0734 
    144 H144      -43.6592  -23.4839    9.2092 H         1 UNK         0.0832 
    145 H145      -43.7589  -22.0936    8.1285 H         1 UNK         0.0832 
    146 H146      -44.2563  -21.9447    9.8060 H         1 UNK         0.0832 
    147 H147      -46.2813  -23.3934    6.5672 H         1 UNK         0.3156 
    148 H148      -45.0305  -24.7449    4.9133 H         1 UNK         0.0589 
    149 H149      -44.7161  -27.1319    4.2963 H         1 UNK         0.0808 
    150 H150      -43.5123  -26.6307    5.4733 H         1 UNK         0.0808 
    151 H151      -44.8791  -27.6118    5.9843 H         1 UNK         0.0808 
    152 H152      -47.1039  -26.7313    5.4518 H         1 UNK         0.3098 
    153 H153      -49.7844  -24.5429    5.6143 H         1 UNK         0.0720 
    154 H154      -49.5099  -24.1991    3.1473 H         1 UNK         0.0791 
    155 H155      -50.7549  -25.3856    3.4930 H         1 UNK         0.0791 
    156 H156      -49.1633  -25.9101    2.9387 H         1 UNK         0.0791 
    157 H157      -49.9010  -27.2555    4.9154 H         1 UNK         0.3028 
@<TRIPOS>BOND
     1    1    2 1    
     2    1   82 1    
     3    1   83 1    
     4    1   84 1    
     5    2    3 2    
     6    2    4 am   BACKBONE|DICT|INTERRES
     7    4    5 1    
     8    4   85 1    
     9    5    6 1    
    10    5   80 1    
    11    5   86 1    
    12    6    7 1    
    13    6   87 1    
    14    6   88 1    
    15    7    8 1    
    16    8    9 1    
    17    8   89 1    
    18    8   90 1    
    19    9   10 ar   
    20    9   14 ar   
    21   10   11 ar   
    22   10   91 1    
    23   11   12 ar   
    24   11   58 1    
    25   12   13 ar   
    26   12   92 1    
    27   13   14 ar   
    28   13   15 1    
    29   14   93 1    
    30   15   16 1    
    31   15   94 1    
    32   15   95 1    
    33   16   17 1    
    34   17   18 1    
    35   17   96 1    
    36   17   97 1    
    37   18   19 1    
    38   18   22 1    
    39   18   98 1    
    40   19   20 am   BACKBONE|DICT|INTERRES
    41   19   21 2    
    42   20   99 1    
    43   20  100 1    
    44   22   23 am   BACKBONE|DICT|INTERRES
    45   22  101 1    
    46   23   24 2    
    47   23   25 1    
    48   25   26 1    
    49   25   27 1    
    50   25  102 1    
    51   26  103 1    
    52   26  104 1    
    53   26  105 1    
    54   27   28 am   BACKBONE|DICT|INTERRES
    55   27  106 1    
    56   28   29 2    
    57   28   30 1    
    58   30   31 1    
    59   30   32 1    
    60   30  107 1    
    61   31  108 1    
    62   31  109 1    
    63   31  110 1    
    64   32   33 am   BACKBONE|DICT|INTERRES
    65   32  111 1    
    66   33   34 2    
    67   33   35 1    
    68   35   36 1    
    69   35   37 1    
    70   35  112 1    
    71   36  113 1    
    72   36  114 1    
    73   36  115 1    
    74   37   38 am   BACKBONE|DICT|INTERRES
    75   37  116 1    
    76   38   39 2    
    77   38   40 1    
    78   40   41 1    
    79   40   42 1    
    80   40  117 1    
    81   41  118 1    
    82   41  119 1    
    83   41  120 1    
    84   42   43 am   BACKBONE|DICT|INTERRES
    85   42  121 1    
    86   43   44 2    
    87   43   45 1    
    88   45   46 1    
    89   45   47 1    
    90   45  122 1    
    91   46  123 1    
    92   46  124 1    
    93   46  125 1    
    94   47   48 am   BACKBONE|DICT|INTERRES
    95   47  126 1    
    96   48   49 2    
    97   48   50 1    
    98   50   51 1    
    99   50   52 1    
   100   50  127 1    
   101   51  128 1    
   102   51  129 1    
   103   51  130 1    
   104   52   53 am   BACKBONE|DICT|INTERRES
   105   52  131 1    
   106   53   54 2    
   107   53   55 1    
   108   55   56 1    
   109   55   59 1    
   110   55  132 1    
   111   56   57 1    
   112   56  133 1    
   113   56  134 1    
   114   57   58 1    
   115   58  135 1    
   116   58  136 1    
   117   59   60 am   BACKBONE|DICT|INTERRES
   118   59  137 1    
   119   60   61 2    
   120   60   62 1    
   121   62   63 1    
   122   62   64 1    
   123   62  138 1    
   124   63  139 1    
   125   63  140 1    
   126   63  141 1    
   127   64   65 am   BACKBONE|DICT|INTERRES
   128   64  142 1    
   129   65   66 2    
   130   65   67 1    
   131   67   68 1    
   132   67   69 1    
   133   67  143 1    
   134   68  144 1    
   135   68  145 1    
   136   68  146 1    
   137   69   70 am   BACKBONE|DICT|INTERRES
   138   69  147 1    
   139   70   71 2    
   140   70   72 1    
   141   72   73 1    
   142   72   74 1    
   143   72  148 1    
   144   73  149 1    
   145   73  150 1    
   146   73  151 1    
   147   74   75 am   BACKBONE|DICT|INTERRES
   148   74  152 1    
   149   75   76 2    
   150   75   77 1    
   151   77   78 1    
   152   77   79 1    
   153   77  153 1    
   154   78  154 1    
   155   78  155 1    
   156   78  156 1    
   157   79   80 am   BACKBONE|DICT|INTERRES
   158   79  157 1    
   159   80   81 2    
@<TRIPOS>SUBSTRUCTURE
     1 UNK         1 GROUP             0       ****    0 ROOT    
