@<TRIPOS>MOLECULE
3R207
157   159    1
SMALL
USER_CHARGES


@<TRIPOS>ATOM
      1 CA        -53.0297  -27.7306    6.5919 C.3       0 UNK        -0.1975 
      2 C         -52.9747  -28.5548    5.3090 C.2       0 UNK         0.4852 
      3 O         -53.9552  -28.5812    4.5669 O.2       0 UNK        -0.5216 
      4 N         -51.8680  -29.2449    5.0020 N.am      1 UNK        -0.4461 
      5 CA        -50.5951  -29.2383    5.7278 C.3       1 UNK         0.0864 
      6 C6        -49.8459  -30.5790    5.5152 C.3       14 UNK        -0.0898 
      7 S7        -48.4840  -30.8398    6.7025 S.3       14 UNK        -0.2598 
      8 C8        -49.2850  -31.8847    7.9645 C.3       14 UNK         0.0286 
      9 C9        -50.4378  -31.1693    8.6565 C.ar      14 UNK        -0.0844 
     10 C10       -50.2069  -29.9758    9.3489 C.ar      14 UNK        -0.0881 
     11 C11       -51.2634  -29.2973    9.9605 C.ar      14 UNK        -0.0643 
     12 C12       -52.5491  -29.8330    9.9031 C.ar      14 UNK        -0.0930 
     13 C13       -52.7898  -31.0401    9.2450 C.ar      14 UNK        -0.0827 
     14 C14       -51.7325  -31.6997    8.6100 C.ar      14 UNK        -0.1249 
     15 C15       -54.1870  -31.6381    9.2703 C.3       14 UNK         0.0141 
     16 S16       -55.3891  -30.5829    8.4050 S.3       14 UNK        -0.2313 
     17 C17       -56.9439  -31.1415    9.1768 C.3       14 UNK        -0.0915 
     18 CA        -57.5347  -30.1025   10.1702 C.3       13 UNK         0.0968 
     19 C         -58.9685  -30.5103   10.5957 C.2       13 UNK         0.5732 
     20 N         -59.9685  -30.2039    9.7809 N.am      13 UNK        -0.7310 
     21 O         -59.1817  -31.1238   11.6412 O.2       13 UNK        -0.5035 
     22 N         -56.6964  -29.9166   11.3660 N.am      13 UNK        -0.4233 
     23 C         -55.9683  -28.8291   11.6376 C.2       13 UNK         0.4989 
     24 O         -55.8087  -27.8893   10.8525 O.2       13 UNK        -0.4996 
     25 CA        -55.3167  -28.7617   13.0290 C.3       12 UNK         0.0216 
     26 CB        -54.1798  -29.7914   13.1983 C.3       12 UNK        -0.1964 
     27 N         -54.8224  -27.3997   13.2161 N.am      12 UNK        -0.4276 
     28 C         -54.3941  -26.8302   14.3468 C.2       12 UNK         0.5020 
     29 O         -54.3089  -27.4214   15.4245 O.2       12 UNK        -0.5489 
     30 CA        -54.0319  -25.3386   14.2204 C.3       11 UNK         0.0294 
     31 CB        -55.2929  -24.4502   14.2408 C.3       11 UNK        -0.2019 
     32 N         -53.0277  -24.8729   15.1845 N.am      11 UNK        -0.4493 
     33 C         -53.1332  -24.6586   16.5046 C.2       11 UNK         0.4932 
     34 O         -54.1622  -24.8129   17.1651 O.2       11 UNK        -0.5029 
     35 CA        -51.8485  -24.1383   17.1825 C.3       10 UNK         0.0280 
     36 CB        -51.9679  -23.9971   18.7157 C.3       10 UNK        -0.1976 
     37 N         -50.6683  -24.9214   16.7976 N.am      10 UNK        -0.4242 
     38 C         -50.4081  -26.2054   17.0870 C.2       10 UNK         0.5072 
     39 O         -51.0974  -26.8990   17.8357 O.2       10 UNK        -0.5224 
     40 CA        -49.1789  -26.8481   16.4155 C.3       9 UNK         0.0343 
     41 CB        -49.6323  -27.8163   15.3096 C.3       9 UNK        -0.2003 
     42 N         -48.2272  -25.8875   15.8465 N.am      9 UNK        -0.4272 
     43 C         -47.3950  -25.1141   16.5582 C.2       9 UNK         0.4988 
     44 O         -47.3308  -25.1284   17.7878 O.2       9 UNK        -0.5108 
     45 CA        -46.4896  -24.1520   15.7666 C.3       8 UNK         0.0248 
     46 CB        -45.2511  -24.8839   15.2245 C.3       8 UNK        -0.2001 
     47 N         -47.1894  -23.4823   14.6662 N.am      8 UNK        -0.4140 
     48 C         -48.1701  -22.5818   14.8323 C.2       8 UNK         0.5028 
     49 O         -48.5602  -22.1861   15.9311 O.2       8 UNK        -0.5428 
     50 CA        -48.8660  -22.0658   13.5611 C.3       7 UNK         0.0264 
     51 CB        -48.0273  -20.9702   12.8839 C.3       7 UNK        -0.1988 
     52 N         -49.1568  -23.1375   12.6051 N.am      7 UNK        -0.4454 
     53 C         -49.9767  -24.1674   12.8578 C.2       7 UNK         0.5027 
     54 O         -50.6388  -24.2662   13.8905 O.2       7 UNK        -0.5083 
     55 CA        -50.0323  -25.3190   11.8381 C.3       6 UNK         0.0844 
     56 C56       -51.1418  -25.1155   10.7801 C.3       14 UNK        -0.0967 
     57 S57       -51.4459  -26.5518    9.6825 S.3       14 UNK        -0.2604 
     58 C58       -51.0189  -27.9996   10.7044 C.3       14 UNK         0.0134 
     59 N         -48.7283  -25.5963   11.2330 N.am      6 UNK        -0.4116 
     60 C         -47.6790  -26.0901   11.9030 C.2       5 UNK         0.5034 
     61 O         -47.6994  -26.3655   13.1010 O.2       5 UNK        -0.5045 
     62 CA        -46.3751  -26.2634   11.1150 C.3       5 UNK         0.0224 
     63 CB        -46.4064  -27.5501   10.2731 C.3       5 UNK        -0.1978 
     64 N         -46.1097  -25.1051   10.2611 N.am      5 UNK        -0.4737 
     65 C         -45.7890  -23.8897   10.7275 C.2       4 UNK         0.5027 
     66 O         -45.6294  -23.6344   11.9218 O.2       4 UNK        -0.5211 
     67 CA        -45.6694  -22.7637    9.6868 C.3       4 UNK         0.0297 
     68 CB        -44.2733  -22.7668    9.0444 C.3       4 UNK        -0.1993 
     69 N         -46.6945  -22.8449    8.6412 N.am      4 UNK        -0.4486 
     70 C         -48.0074  -22.6843    8.8599 C.2       3 UNK         0.4961 
     71 O         -48.4920  -22.4324    9.9610 O.2       3 UNK        -0.5105 
     72 CA        -48.9479  -22.8752    7.6597 C.3       3 UNK         0.0299 
     73 CB        -49.0657  -21.5712    6.8550 C.3       3 UNK        -0.1972 
     74 N         -48.5697  -23.9752    6.7664 N.am      3 UNK        -0.4305 
     75 C         -48.4503  -25.2572    7.1361 C.2       2 UNK         0.5006 
     76 O         -48.5361  -25.6542    8.3001 O.2       2 UNK        -0.5106 
     77 CA        -48.1571  -26.2659    6.0247 C.3       2 UNK         0.0296 
     78 CB        -46.6815  -26.6979    6.0612 C.3       2 UNK        -0.2002 
     79 N         -49.0111  -27.4323    6.2310 N.am      2 UNK        -0.4032 
     80 C         -49.7453  -28.0292    5.2846 C.2       1 UNK         0.5000 
     81 O         -49.7611  -27.6768    4.1014 O.2       1 UNK        -0.5238 
     82 H82       -52.9596  -28.3775    7.4656 H         1 UNK         0.0889 
     83 H83       -53.9728  -27.1890    6.6603 H         1 UNK         0.0889 
     84 H84       -52.2243  -26.9981    6.6293 H         1 UNK         0.0889 
     85 H85       -51.8517  -29.7481    4.1266 H         1 UNK         0.3028 
     86 H86       -50.8106  -29.1357    6.7909 H         1 UNK         0.0864 
     87 H87       -49.4443  -30.6464    4.5021 H         1 UNK         0.0720 
     88 H88       -50.5423  -31.4140    5.6112 H         1 UNK         0.0720 
     89 H89       -48.5431  -32.1669    8.7126 H         1 UNK         0.0814 
     90 H90       -49.6209  -32.8131    7.4999 H         1 UNK         0.0814 
     91 H91       -49.2062  -29.5681    9.3951 H         1 UNK         0.1469 
     92 H92       -53.3688  -29.3056   10.3684 H         1 UNK         0.1381 
     93 H93       -51.9151  -32.6309    8.0913 H         1 UNK         0.1206 
     94 H94       -54.1984  -32.6337    8.8242 H         1 UNK         0.0813 
     95 H95       -54.4880  -31.7600   10.3118 H         1 UNK         0.0813 
     96 H96       -56.7949  -32.1052    9.6672 H         1 UNK         0.0638 
     97 H97       -57.6454  -31.3275    8.3614 H         1 UNK         0.0638 
     98 H98       -57.6301  -29.1488    9.6470 H         1 UNK         0.0568 
     99 H99       -60.9065  -30.4707   10.0361 H         1 UNK         0.3450 
    100 H100      -59.8058  -29.7111    8.9164 H         1 UNK         0.3450 
    101 H101      -56.8285  -30.6170   12.0827 H         1 UNK         0.2987 
    102 H102      -56.0949  -28.9546   13.7702 H         1 UNK         0.0766 
    103 H103      -54.4837  -30.7880   12.8766 H         1 UNK         0.0798 
    104 H104      -53.8804  -29.8739   14.2432 H         1 UNK         0.0798 
    105 H105      -53.2927  -29.5167   12.6307 H         1 UNK         0.0798 
    106 H106      -54.9032  -26.8459   12.3695 H         1 UNK         0.3198 
    107 H107      -53.5572  -25.2096   13.2466 H         1 UNK         0.0843 
    108 H108      -55.8610  -24.5708   15.1636 H         1 UNK         0.0831 
    109 H109      -55.9631  -24.7017   13.4180 H         1 UNK         0.0831 
    110 H110      -55.0381  -23.3954   14.1381 H         1 UNK         0.0831 
    111 H111      -52.1108  -24.6954   14.7732 H         1 UNK         0.3133 
    112 H112      -51.6803  -23.1379   16.7806 H         1 UNK         0.0566 
    113 H113      -51.0416  -23.6243   19.1528 H         1 UNK         0.0814 
    114 H114      -52.7575  -23.2925   18.9791 H         1 UNK         0.0814 
    115 H115      -52.2098  -24.9450   19.1968 H         1 UNK         0.0814 
    116 H116      -50.0512  -24.4685   16.1352 H         1 UNK         0.3091 
    117 H117      -48.6566  -27.4266   17.1803 H         1 UNK         0.0702 
    118 H118      -50.2933  -28.5864   15.7095 H         1 UNK         0.0785 
    119 H119      -50.1789  -27.2969   14.5226 H         1 UNK         0.0785 
    120 H120      -48.7834  -28.3242   14.8513 H         1 UNK         0.0785 
    121 H121      -48.1501  -25.8752   14.8315 H         1 UNK         0.2998 
    122 H122      -46.1460  -23.3799   16.4583 H         1 UNK         0.0697 
    123 H123      -45.5187  -25.6647   14.5124 H         1 UNK         0.0825 
    124 H124      -44.6931  -25.3576   16.0333 H         1 UNK         0.0825 
    125 H125      -44.5722  -24.1946   14.7219 H         1 UNK         0.0825 
    126 H126      -46.9055  -23.7273   13.7241 H         1 UNK         0.3029 
    127 H127      -49.8186  -21.6251   13.8634 H         1 UNK         0.0897 
    128 H128      -48.5564  -20.5350   12.0359 H         1 UNK         0.0792 
    129 H129      -47.0746  -21.3558   12.5200 H         1 UNK         0.0792 
    130 H130      -47.8082  -20.1592   13.5798 H         1 UNK         0.0792 
    131 H131      -48.7155  -23.0677   11.6900 H         1 UNK         0.3086 
    132 H132      -50.2998  -26.1878   12.4385 H         1 UNK         0.0583 
    133 H133      -52.0890  -24.8773   11.2668 H         1 UNK         0.1020 
    134 H134      -50.9063  -24.2553   10.1506 H         1 UNK         0.1020 
    135 H135      -49.9716  -27.9590   11.0019 H         1 UNK         0.0694 
    136 H136      -51.6103  -27.9847   11.6210 H         1 UNK         0.0694 
    137 H137      -48.6452  -25.4443   10.2310 H         1 UNK         0.2989 
    138 H138      -45.5601  -26.3476   11.8378 H         1 UNK         0.1055 
    139 H139      -46.5537  -28.4244   10.9087 H         1 UNK         0.0806 
    140 H140      -45.4691  -27.6958    9.7361 H         1 UNK         0.0806 
    141 H141      -47.2143  -27.5442    9.5415 H         1 UNK         0.0806 
    142 H142      -46.2886  -25.2137    9.2730 H         1 UNK         0.3061 
    143 H143      -45.8009  -21.8149   10.2118 H         1 UNK         0.0734 
    144 H144      -43.4955  -22.6893    9.8056 H         1 UNK         0.0832 
    145 H145      -44.1457  -21.9220    8.3673 H         1 UNK         0.0832 
    146 H146      -44.0868  -23.6818    8.4809 H         1 UNK         0.0832 
    147 H147      -46.3849  -23.0517    7.7028 H         1 UNK         0.3156 
    148 H148      -49.9357  -23.1137    8.0594 H         1 UNK         0.0589 
    149 H149      -48.1196  -21.2956    6.3873 H         1 UNK         0.0808 
    150 H150      -49.8176  -21.6547    6.0701 H         1 UNK         0.0808 
    151 H151      -49.3644  -20.7420    7.4983 H         1 UNK         0.0808 
    152 H152      -48.4620  -23.7422    5.7894 H         1 UNK         0.3098 
    153 H153      -48.3687  -25.8004    5.0597 H         1 UNK         0.0720 
    154 H154      -46.4625  -27.4156    5.2704 H         1 UNK         0.0791 
    155 H155      -46.4189  -27.1623    7.0128 H         1 UNK         0.0791 
    156 H156      -46.0182  -25.8441    5.9178 H         1 UNK         0.0791 
    157 H157      -49.0856  -27.7373    7.1926 H         1 UNK         0.3028 
@<TRIPOS>BOND
     1    1    2 1    
     2    1   82 1    
     3    1   83 1    
     4    1   84 1    
     5    2    3 2    
     6    2    4 am   BACKBONE|DICT|INTERRES
     7    4    5 1    
     8    4   85 1    
     9    5    6 1    
    10    5   80 1    
    11    5   86 1    
    12    6    7 1    
    13    6   87 1    
    14    6   88 1    
    15    7    8 1    
    16    8    9 1    
    17    8   89 1    
    18    8   90 1    
    19    9   10 ar   
    20    9   14 ar   
    21   10   11 ar   
    22   10   91 1    
    23   11   12 ar   
    24   11   58 1    
    25   12   13 ar   
    26   12   92 1    
    27   13   14 ar   
    28   13   15 1    
    29   14   93 1    
    30   15   16 1    
    31   15   94 1    
    32   15   95 1    
    33   16   17 1    
    34   17   18 1    
    35   17   96 1    
    36   17   97 1    
    37   18   19 1    
    38   18   22 1    
    39   18   98 1    
    40   19   20 am   BACKBONE|DICT|INTERRES
    41   19   21 2    
    42   20   99 1    
    43   20  100 1    
    44   22   23 am   BACKBONE|DICT|INTERRES
    45   22  101 1    
    46   23   24 2    
    47   23   25 1    
    48   25   26 1    
    49   25   27 1    
    50   25  102 1    
    51   26  103 1    
    52   26  104 1    
    53   26  105 1    
    54   27   28 am   BACKBONE|DICT|INTERRES
    55   27  106 1    
    56   28   29 2    
    57   28   30 1    
    58   30   31 1    
    59   30   32 1    
    60   30  107 1    
    61   31  108 1    
    62   31  109 1    
    63   31  110 1    
    64   32   33 am   BACKBONE|DICT|INTERRES
    65   32  111 1    
    66   33   34 2    
    67   33   35 1    
    68   35   36 1    
    69   35   37 1    
    70   35  112 1    
    71   36  113 1    
    72   36  114 1    
    73   36  115 1    
    74   37   38 am   BACKBONE|DICT|INTERRES
    75   37  116 1    
    76   38   39 2    
    77   38   40 1    
    78   40   41 1    
    79   40   42 1    
    80   40  117 1    
    81   41  118 1    
    82   41  119 1    
    83   41  120 1    
    84   42   43 am   BACKBONE|DICT|INTERRES
    85   42  121 1    
    86   43   44 2    
    87   43   45 1    
    88   45   46 1    
    89   45   47 1    
    90   45  122 1    
    91   46  123 1    
    92   46  124 1    
    93   46  125 1    
    94   47   48 am   BACKBONE|DICT|INTERRES
    95   47  126 1    
    96   48   49 2    
    97   48   50 1    
    98   50   51 1    
    99   50   52 1    
   100   50  127 1    
   101   51  128 1    
   102   51  129 1    
   103   51  130 1    
   104   52   53 am   BACKBONE|DICT|INTERRES
   105   52  131 1    
   106   53   54 2    
   107   53   55 1    
   108   55   56 1    
   109   55   59 1    
   110   55  132 1    
   111   56   57 1    
   112   56  133 1    
   113   56  134 1    
   114   57   58 1    
   115   58  135 1    
   116   58  136 1    
   117   59   60 am   BACKBONE|DICT|INTERRES
   118   59  137 1    
   119   60   61 2    
   120   60   62 1    
   121   62   63 1    
   122   62   64 1    
   123   62  138 1    
   124   63  139 1    
   125   63  140 1    
   126   63  141 1    
   127   64   65 am   BACKBONE|DICT|INTERRES
   128   64  142 1    
   129   65   66 2    
   130   65   67 1    
   131   67   68 1    
   132   67   69 1    
   133   67  143 1    
   134   68  144 1    
   135   68  145 1    
   136   68  146 1    
   137   69   70 am   BACKBONE|DICT|INTERRES
   138   69  147 1    
   139   70   71 2    
   140   70   72 1    
   141   72   73 1    
   142   72   74 1    
   143   72  148 1    
   144   73  149 1    
   145   73  150 1    
   146   73  151 1    
   147   74   75 am   BACKBONE|DICT|INTERRES
   148   74  152 1    
   149   75   76 2    
   150   75   77 1    
   151   77   78 1    
   152   77   79 1    
   153   77  153 1    
   154   78  154 1    
   155   78  155 1    
   156   78  156 1    
   157   79   80 am   BACKBONE|DICT|INTERRES
   158   79  157 1    
   159   80   81 2    
@<TRIPOS>SUBSTRUCTURE
     1 UNK         1 GROUP             0       ****    0 ROOT    
