@<TRIPOS>MOLECULE
3R207
157   159    1
SMALL
USER_CHARGES


@<TRIPOS>ATOM
      1 CA        -50.4842  -30.2824    9.4687 C.3       0 UNK        -0.1975 
      2 C         -49.7588  -30.5012    8.1504 C.2       0 UNK         0.4852 
      3 O         -48.6834  -31.1010    8.1390 O.2       0 UNK        -0.5216 
      4 N         -50.3522  -30.0488    7.0370 N.am      1 UNK        -0.4461 
      5 CA        -49.8452  -30.2764    5.6795 C.3       1 UNK         0.0864 
      6 C6        -50.9773  -30.2117    4.6199 C.3       14 UNK        -0.0898 
      7 S7        -51.6063  -28.5434    4.2179 S.3       14 UNK        -0.2598 
      8 C8        -53.1715  -28.4565    5.1563 C.3       14 UNK         0.0286 
      9 C9        -52.9963  -28.1222    6.6362 C.ar      14 UNK        -0.0844 
     10 C10       -52.0119  -27.2270    7.0672 C.ar      14 UNK        -0.0881 
     11 C11       -51.8732  -26.9122    8.4202 C.ar      14 UNK        -0.0643 
     12 C12       -52.7518  -27.4688    9.3535 C.ar      14 UNK        -0.0930 
     13 C13       -53.7652  -28.3361    8.9336 C.ar      14 UNK        -0.0827 
     14 C14       -53.8729  -28.6680    7.5785 C.ar      14 UNK        -0.1249 
     15 C15       -54.7810  -28.8785    9.9268 C.3       14 UNK         0.0141 
     16 S16       -54.4933  -30.6305   10.3218 S.3       14 UNK        -0.2313 
     17 C17       -53.3384  -30.5429   11.7301 C.3       14 UNK        -0.0915 
     18 CA        -54.1005  -30.5783   13.0848 C.3       13 UNK         0.0968 
     19 C         -53.2503  -31.1819   14.2403 C.2       13 UNK         0.5732 
     20 N         -53.0840  -30.5085   15.3727 N.am      13 UNK        -0.7310 
     21 O         -52.7536  -32.2990   14.1191 O.2       13 UNK        -0.5035 
     22 N         -54.6634  -29.2577   13.4059 N.am      13 UNK        -0.4233 
     23 C         -55.8823  -29.0378   13.9119 C.2       13 UNK         0.4989 
     24 O         -56.7136  -29.9250   14.1090 O.2       13 UNK        -0.4996 
     25 CA        -56.2427  -27.5872   14.2759 C.3       12 UNK         0.0216 
     26 CB        -56.4547  -27.4523   15.7941 C.3       12 UNK        -0.1964 
     27 N         -55.2129  -26.6272   13.8671 N.am      12 UNK        -0.4276 
     28 C         -55.2690  -25.8414   12.7830 C.2       12 UNK         0.5020 
     29 O         -56.1844  -25.8970   11.9607 O.2       12 UNK        -0.5489 
     30 CA        -54.1165  -24.8359   12.5500 C.3       11 UNK         0.0294 
     31 CB        -54.6481  -23.4430   12.1521 C.3       11 UNK        -0.2019 
     32 N         -53.1536  -24.7286   13.6560 N.am      11 UNK        -0.4493 
     33 C         -53.3773  -24.3251   14.9158 C.2       11 UNK         0.4932 
     34 O         -54.4598  -23.8941   15.3151 O.2       11 UNK        -0.5029 
     35 CA        -52.2010  -24.4803   15.9038 C.3       10 UNK         0.0280 
     36 CB        -52.6666  -24.4704   17.3745 C.3       10 UNK        -0.1976 
     37 N         -51.3561  -25.6599   15.6652 N.am      10 UNK        -0.4242 
     38 C         -51.7476  -26.9422   15.5519 C.2       10 UNK         0.5072 
     39 O         -52.9253  -27.3063   15.5127 O.2       10 UNK        -0.5224 
     40 CA        -50.6486  -28.0157   15.4414 C.3       9 UNK         0.0343 
     41 CB        -50.4861  -28.4522   13.9807 C.3       9 UNK        -0.2003 
     42 N         -49.3515  -27.5862   15.9668 N.am      9 UNK        -0.4272 
     43 C         -49.1014  -27.3639   17.2666 C.2       9 UNK         0.4988 
     44 O         -49.9115  -27.6003   18.1638 O.2       9 UNK        -0.5108 
     45 CA        -47.7339  -26.7645   17.6480 C.3       8 UNK         0.0248 
     46 CB        -46.8477  -27.8309   18.3134 C.3       8 UNK        -0.2001 
     47 N         -46.9907  -26.1521   16.5423 N.am      8 UNK        -0.4140 
     48 C         -47.3959  -25.1210   15.7879 C.2       8 UNK         0.5028 
     49 O         -48.4905  -24.5672   15.9135 O.2       8 UNK        -0.5428 
     50 CA        -46.4333  -24.6412   14.6836 C.3       7 UNK         0.0264 
     51 CB        -45.0483  -25.3299   14.6978 C.3       7 UNK        -0.1988 
     52 N         -47.0361  -24.7487   13.3512 N.am      7 UNK        -0.4454 
     53 C         -47.5553  -25.8456   12.7736 C.2       7 UNK         0.5027 
     54 O         -47.5909  -26.9527   13.3159 O.2       7 UNK        -0.5083 
     55 CA        -48.1209  -25.6493   11.3461 C.3       6 UNK         0.0844 
     56 C56       -48.9507  -26.8557   10.8235 C.3       14 UNK        -0.0967 
     57 S57       -49.1819  -26.7705    9.0213 S.3       14 UNK        -0.2604 
     58 C58       -50.7905  -25.9410    8.8511 C.3       14 UNK         0.0134 
     59 N         -48.8282  -24.3686   11.2201 N.am      6 UNK        -0.4116 
     60 C         -49.9379  -24.0150   11.8876 C.2       5 UNK         0.5034 
     61 O         -50.5224  -24.7575   12.6776 O.2       5 UNK        -0.5045 
     62 CA        -50.4985  -22.6012   11.6520 C.3       5 UNK         0.0224 
     63 CB        -50.5121  -21.8009   12.9651 C.3       5 UNK        -0.1978 
     64 N         -49.7552  -21.8427   10.6413 N.am      5 UNK        -0.4737 
     65 C         -49.9725  -21.9121    9.3218 C.2       4 UNK         0.5027 
     66 O         -50.8660  -22.5907    8.8157 O.2       4 UNK        -0.5211 
     67 CA        -49.0567  -21.0724    8.4090 C.3       4 UNK         0.0297 
     68 CB        -47.8831  -20.3814    9.1431 C.3       4 UNK        -0.1993 
     69 N         -48.5585  -21.8403    7.2619 N.am      4 UNK        -0.4486 
     70 C         -47.8149  -22.9561    7.2884 C.2       3 UNK         0.4961 
     71 O         -47.4477  -23.5271    8.3192 O.2       3 UNK        -0.5105 
     72 CA        -47.3369  -23.4526    5.9125 C.3       3 UNK         0.0299 
     73 CB        -46.0863  -22.6709    5.4746 C.3       3 UNK        -0.1972 
     74 N         -47.0173  -24.8804    5.9104 N.am      3 UNK        -0.4305 
     75 C         -47.9143  -25.8641    5.7742 C.2       2 UNK         0.5006 
     76 O         -49.1218  -25.6678    5.6199 O.2       2 UNK        -0.5106 
     77 CA        -47.3618  -27.3014    5.7596 C.3       2 UNK         0.0296 
     78 CB        -46.2438  -27.5400    6.7963 C.3       2 UNK        -0.2002 
     79 N         -48.4458  -28.2594    5.9816 N.am      2 UNK        -0.4032 
     80 C         -48.6160  -29.4100    5.3163 C.2       1 UNK         0.5000 
     81 O         -47.8421  -29.8132    4.4448 O.2       1 UNK        -0.5238 
     82 H82       -51.5307  -30.0312    9.3085 H         1 UNK         0.0889 
     83 H83       -50.0176  -29.4790   10.0347 H         1 UNK         0.0889 
     84 H84       -50.4500  -31.1885   10.0727 H         1 UNK         0.0889 
     85 H85       -51.2221  -29.5350    7.1027 H         1 UNK         0.3028 
     86 H86       -49.4815  -31.3066    5.6595 H         1 UNK         0.0864 
     87 H87       -50.6156  -30.6463    3.6863 H         1 UNK         0.0720 
     88 H88       -51.8084  -30.8493    4.9251 H         1 UNK         0.0720 
     89 H89       -53.7175  -29.3929    5.0318 H         1 UNK         0.0814 
     90 H90       -53.7936  -27.6803    4.7092 H         1 UNK         0.0814 
     91 H91       -51.3472  -26.7665    6.3495 H         1 UNK         0.1469 
     92 H92       -52.6572  -27.2123   10.3992 H         1 UNK         0.1381 
     93 H93       -54.6597  -29.3373    7.2571 H         1 UNK         0.1206 
     94 H94       -54.7928  -28.2815   10.8384 H         1 UNK         0.0813 
     95 H95       -55.7795  -28.7817    9.4982 H         1 UNK         0.0813 
     96 H96       -52.7061  -29.6579   11.6466 H         1 UNK         0.0638 
     97 H97       -52.6705  -31.4001   11.6290 H         1 UNK         0.0638 
     98 H98       -54.9214  -31.2895   12.9754 H         1 UNK         0.0568 
     99 H99       -52.5519  -30.9311   16.1159 H         1 UNK         0.3450 
    100 H100      -53.4662  -29.5815   15.4879 H         1 UNK         0.3450 
    101 H101      -54.0368  -28.4724   13.3234 H         1 UNK         0.2987 
    102 H102      -57.1876  -27.3550   13.7803 H         1 UNK         0.0766 
    103 H103      -57.2478  -28.1158   16.1415 H         1 UNK         0.0798 
    104 H104      -56.7426  -26.4359   16.0636 H         1 UNK         0.0798 
    105 H105      -55.5515  -27.7018   16.3526 H         1 UNK         0.0798 
    106 H106      -54.4093  -26.5507   14.4865 H         1 UNK         0.3198 
    107 H107      -53.5488  -25.2231   11.7028 H         1 UNK         0.0843 
    108 H108      -55.3054  -23.0278   12.9166 H         1 UNK         0.0831 
    109 H109      -55.2226  -23.4937   11.2263 H         1 UNK         0.0831 
    110 H110      -53.8368  -22.7348   11.9892 H         1 UNK         0.0831 
    111 H111      -52.1977  -24.9978   13.4247 H         1 UNK         0.3133 
    112 H112      -51.5574  -23.6130   15.7531 H         1 UNK         0.0566 
    113 H113      -53.3491  -25.2951   17.5841 H         1 UNK         0.0814 
    114 H114      -53.1878  -23.5437   17.6179 H         1 UNK         0.0814 
    115 H115      -51.8214  -24.5538   18.0579 H         1 UNK         0.0814 
    116 H116      -50.3591  -25.4665   15.6354 H         1 UNK         0.3091 
    117 H117      -50.9718  -28.8788   16.0252 H         1 UNK         0.0702 
    118 H118      -49.7431  -29.2429   13.8760 H         1 UNK         0.0785 
    119 H119      -50.1773  -27.6118   13.3646 H         1 UNK         0.0785 
    120 H120      -51.4239  -28.8267   13.5728 H         1 UNK         0.0785 
    121 H121      -48.6340  -27.3692   15.2847 H         1 UNK         0.2998 
    122 H122      -47.9284  -25.9775   18.3795 H         1 UNK         0.0697 
    123 H123      -46.5951  -28.6346   17.6206 H         1 UNK         0.0825 
    124 H124      -47.3542  -28.2845   19.1667 H         1 UNK         0.0825 
    125 H125      -45.9174  -27.4010   18.6855 H         1 UNK         0.0825 
    126 H126      -46.0885  -26.5550   16.3342 H         1 UNK         0.3029 
    127 H127      -46.2745  -23.5777   14.8692 H         1 UNK         0.0897 
    128 H128      -45.1144  -26.4000   14.4967 H         1 UNK         0.0792 
    129 H129      -44.5471  -25.1970   15.6577 H         1 UNK         0.0792 
    130 H130      -44.3935  -24.8981   13.9407 H         1 UNK         0.0792 
    131 H131      -47.0933  -23.8839   12.8328 H         1 UNK         0.3086 
    132 H132      -47.2383  -25.5626   10.7100 H         1 UNK         0.0583 
    133 H133      -48.4393  -27.7966   11.0335 H         1 UNK         0.1020 
    134 H134      -49.9240  -26.9215   11.3062 H         1 UNK         0.1020 
    135 H135      -51.0783  -25.4413    9.7742 H         1 UNK         0.0694 
    136 H136      -50.6892  -25.1551    8.1013 H         1 UNK         0.0694 
    137 H137      -48.4472  -23.7251   10.5391 H         1 UNK         0.2989 
    138 H138      -51.5304  -22.7237   11.3171 H         1 UNK         0.1055 
    139 H139      -50.9380  -20.8078   12.8207 H         1 UNK         0.0806 
    140 H140      -49.5099  -21.6818   13.3786 H         1 UNK         0.0806 
    141 H141      -51.1180  -22.3005   13.7211 H         1 UNK         0.0806 
    142 H142      -49.0088  -21.2487   10.9743 H         1 UNK         0.3061 
    143 H143      -49.6911  -20.2868    7.9958 H         1 UNK         0.0734 
    144 H144      -47.2180  -21.0992    9.6249 H         1 UNK         0.0832 
    145 H145      -47.2808  -19.7956    8.4484 H         1 UNK         0.0832 
    146 H146      -48.2409  -19.6885    9.9058 H         1 UNK         0.0832 
    147 H147      -48.8220  -21.4749    6.3571 H         1 UNK         0.3156 
    148 H148      -48.1290  -23.2705    5.1826 H         1 UNK         0.0589 
    149 H149      -45.2588  -22.8099    6.1718 H         1 UNK         0.0808 
    150 H150      -46.2887  -21.6003    5.4215 H         1 UNK         0.0808 
    151 H151      -45.7486  -22.9826    4.4859 H         1 UNK         0.0808 
    152 H152      -46.0538  -25.1248    6.0840 H         1 UNK         0.3098 
    153 H153      -46.9444  -27.4525    4.7622 H         1 UNK         0.0720 
    154 H154      -45.3502  -26.9605    6.5640 H         1 UNK         0.0791 
    155 H155      -45.9425  -28.5876    6.8154 H         1 UNK         0.0791 
    156 H156      -46.5594  -27.2696    7.8040 H         1 UNK         0.0791 
    157 H157      -49.1484  -27.9701    6.6494 H         1 UNK         0.3028 
@<TRIPOS>BOND
     1    1    2 1    
     2    1   82 1    
     3    1   83 1    
     4    1   84 1    
     5    2    3 2    
     6    2    4 am   BACKBONE|DICT|INTERRES
     7    4    5 1    
     8    4   85 1    
     9    5    6 1    
    10    5   80 1    
    11    5   86 1    
    12    6    7 1    
    13    6   87 1    
    14    6   88 1    
    15    7    8 1    
    16    8    9 1    
    17    8   89 1    
    18    8   90 1    
    19    9   10 ar   
    20    9   14 ar   
    21   10   11 ar   
    22   10   91 1    
    23   11   12 ar   
    24   11   58 1    
    25   12   13 ar   
    26   12   92 1    
    27   13   14 ar   
    28   13   15 1    
    29   14   93 1    
    30   15   16 1    
    31   15   94 1    
    32   15   95 1    
    33   16   17 1    
    34   17   18 1    
    35   17   96 1    
    36   17   97 1    
    37   18   19 1    
    38   18   22 1    
    39   18   98 1    
    40   19   20 am   BACKBONE|DICT|INTERRES
    41   19   21 2    
    42   20   99 1    
    43   20  100 1    
    44   22   23 am   BACKBONE|DICT|INTERRES
    45   22  101 1    
    46   23   24 2    
    47   23   25 1    
    48   25   26 1    
    49   25   27 1    
    50   25  102 1    
    51   26  103 1    
    52   26  104 1    
    53   26  105 1    
    54   27   28 am   BACKBONE|DICT|INTERRES
    55   27  106 1    
    56   28   29 2    
    57   28   30 1    
    58   30   31 1    
    59   30   32 1    
    60   30  107 1    
    61   31  108 1    
    62   31  109 1    
    63   31  110 1    
    64   32   33 am   BACKBONE|DICT|INTERRES
    65   32  111 1    
    66   33   34 2    
    67   33   35 1    
    68   35   36 1    
    69   35   37 1    
    70   35  112 1    
    71   36  113 1    
    72   36  114 1    
    73   36  115 1    
    74   37   38 am   BACKBONE|DICT|INTERRES
    75   37  116 1    
    76   38   39 2    
    77   38   40 1    
    78   40   41 1    
    79   40   42 1    
    80   40  117 1    
    81   41  118 1    
    82   41  119 1    
    83   41  120 1    
    84   42   43 am   BACKBONE|DICT|INTERRES
    85   42  121 1    
    86   43   44 2    
    87   43   45 1    
    88   45   46 1    
    89   45   47 1    
    90   45  122 1    
    91   46  123 1    
    92   46  124 1    
    93   46  125 1    
    94   47   48 am   BACKBONE|DICT|INTERRES
    95   47  126 1    
    96   48   49 2    
    97   48   50 1    
    98   50   51 1    
    99   50   52 1    
   100   50  127 1    
   101   51  128 1    
   102   51  129 1    
   103   51  130 1    
   104   52   53 am   BACKBONE|DICT|INTERRES
   105   52  131 1    
   106   53   54 2    
   107   53   55 1    
   108   55   56 1    
   109   55   59 1    
   110   55  132 1    
   111   56   57 1    
   112   56  133 1    
   113   56  134 1    
   114   57   58 1    
   115   58  135 1    
   116   58  136 1    
   117   59   60 am   BACKBONE|DICT|INTERRES
   118   59  137 1    
   119   60   61 2    
   120   60   62 1    
   121   62   63 1    
   122   62   64 1    
   123   62  138 1    
   124   63  139 1    
   125   63  140 1    
   126   63  141 1    
   127   64   65 am   BACKBONE|DICT|INTERRES
   128   64  142 1    
   129   65   66 2    
   130   65   67 1    
   131   67   68 1    
   132   67   69 1    
   133   67  143 1    
   134   68  144 1    
   135   68  145 1    
   136   68  146 1    
   137   69   70 am   BACKBONE|DICT|INTERRES
   138   69  147 1    
   139   70   71 2    
   140   70   72 1    
   141   72   73 1    
   142   72   74 1    
   143   72  148 1    
   144   73  149 1    
   145   73  150 1    
   146   73  151 1    
   147   74   75 am   BACKBONE|DICT|INTERRES
   148   74  152 1    
   149   75   76 2    
   150   75   77 1    
   151   77   78 1    
   152   77   79 1    
   153   77  153 1    
   154   78  154 1    
   155   78  155 1    
   156   78  156 1    
   157   79   80 am   BACKBONE|DICT|INTERRES
   158   79  157 1    
   159   80   81 2    
@<TRIPOS>SUBSTRUCTURE
     1 UNK         1 GROUP             0       ****    0 ROOT    
