@<TRIPOS>MOLECULE
3R207
157   159    1
SMALL
USER_CHARGES


@<TRIPOS>ATOM
      1 CA        -53.6190  -21.8528    8.7663 C.3       0 UNK        -0.1975 
      2 C         -52.5079  -22.8865    8.8584 C.2       0 UNK         0.4852 
      3 O         -51.5114  -22.7771    8.1444 O.2       0 UNK        -0.5216 
      4 N         -52.6541  -23.8724    9.7553 N.am      1 UNK        -0.4461 
      5 CA        -51.7448  -25.0163    9.9566 C.3       1 UNK         0.0864 
      6 C6        -51.8015  -26.0481    8.7967 C.3       14 UNK        -0.0898 
      7 S7        -53.4915  -26.6380    8.4577 S.3       14 UNK        -0.2598 
      8 C8        -53.1932  -27.9399    7.2230 C.3       14 UNK         0.0286 
      9 C9        -52.7377  -29.2455    7.8605 C.ar      14 UNK        -0.0844 
     10 C10       -51.3748  -29.5354    7.9733 C.ar      14 UNK        -0.0881 
     11 C11       -50.9434  -30.7496    8.5253 C.ar      14 UNK        -0.0643 
     12 C12       -51.9006  -31.6714    8.9588 C.ar      14 UNK        -0.0930 
     13 C13       -53.2666  -31.3983    8.8491 C.ar      14 UNK        -0.0827 
     14 C14       -53.6797  -30.1804    8.3019 C.ar      14 UNK        -0.1249 
     15 C15       -54.2904  -32.4440    9.2735 C.3       14 UNK         0.0141 
     16 S16       -55.1171  -32.0389   10.8444 S.3       14 UNK        -0.2313 
     17 C17       -53.7610  -32.1953   12.0614 C.3       14 UNK        -0.0915 
     18 CA        -53.8279  -31.1092   13.1713 C.3       13 UNK         0.0968 
     19 C         -52.7280  -31.2915   14.2644 C.2       13 UNK         0.5732 
     20 N         -52.3758  -30.2646   15.0261 N.am      13 UNK        -0.7310 
     21 O         -52.1948  -32.3835   14.4450 O.2       13 UNK        -0.5035 
     22 N         -53.9276  -29.7653   12.5780 N.am      13 UNK        -0.4233 
     23 C         -54.3527  -28.6455   13.1708 C.2       13 UNK         0.4989 
     24 O         -54.6024  -28.5538   14.3747 O.2       13 UNK        -0.4996 
     25 CA        -54.4868  -27.4325   12.2377 C.3       12 UNK         0.0216 
     26 CB        -55.4765  -27.7095   11.0829 C.3       12 UNK        -0.1964 
     27 N         -54.8086  -26.1932   12.9546 N.am      12 UNK        -0.4276 
     28 C         -55.9950  -25.7905   13.4392 C.2       12 UNK         0.5020 
     29 O         -57.0373  -26.4417   13.3503 O.2       12 UNK        -0.5489 
     30 CA        -56.0557  -24.4153   14.1410 C.3       11 UNK         0.0294 
     31 CB        -56.4370  -24.5821   15.6226 C.3       11 UNK        -0.2019 
     32 N         -54.8241  -23.6241   14.0650 N.am      11 UNK        -0.4493 
     33 C         -54.2802  -23.1011   12.9569 C.2       11 UNK         0.4932 
     34 O         -54.7760  -23.1850   11.8340 O.2       11 UNK        -0.5029 
     35 CA        -52.9043  -22.4303   13.1181 C.3       10 UNK         0.0280 
     36 CB        -53.0613  -20.9149   13.3124 C.3       10 UNK        -0.1976 
     37 N         -52.0914  -22.9855   14.2079 N.am      10 UNK        -0.4242 
     38 C         -51.7210  -24.2686   14.3369 C.2       10 UNK         0.5072 
     39 O         -51.9918  -25.1537   13.5184 O.2       10 UNK        -0.5224 
     40 CA        -50.9889  -24.6188   15.6361 C.3       9 UNK         0.0343 
     41 CB        -51.9482  -24.5290   16.8415 C.3       9 UNK        -0.2003 
     42 N         -50.4435  -25.9693   15.5422 N.am      9 UNK        -0.4272 
     43 C         -49.4609  -26.4601   16.3076 C.2       9 UNK         0.4988 
     44 O         -48.8750  -25.8016   17.1684 O.2       9 UNK        -0.5108 
     45 CA        -49.0712  -27.9377   16.1152 C.3       8 UNK         0.0248 
     46 CB        -49.6873  -28.7968   17.2323 C.3       8 UNK        -0.2001 
     47 N         -49.4500  -28.5003   14.8159 N.am      8 UNK        -0.4140 
     48 C         -48.8602  -28.1916   13.6556 C.2       8 UNK         0.5028 
     49 O         -47.9663  -27.3500   13.5384 O.2       8 UNK        -0.5428 
     50 CA        -49.3913  -28.9334   12.4203 C.3       7 UNK         0.0264 
     51 CB        -50.6633  -28.2541   11.8933 C.3       7 UNK        -0.1988 
     52 N         -48.3912  -28.9557   11.3568 N.am      7 UNK        -0.4454 
     53 C         -47.3526  -29.8021   11.2956 C.2       7 UNK         0.5027 
     54 O         -47.1625  -30.7138   12.1023 O.2       7 UNK        -0.5083 
     55 CA        -46.3652  -29.6050   10.1241 C.3       6 UNK         0.0844 
     56 C56       -46.7412  -30.4744    8.8965 C.3       14 UNK        -0.0967 
     57 S57       -48.2580  -29.9232    8.0356 S.3       14 UNK        -0.2604 
     58 C58       -49.4697  -31.1258    8.6866 C.3       14 UNK         0.0134 
     59 N         -46.2326  -28.1923    9.7675 N.am      6 UNK        -0.4116 
     60 C         -45.5722  -27.2722   10.4801 C.2       5 UNK         0.5034 
     61 O         -44.8835  -27.5419   11.4651 O.2       5 UNK        -0.5045 
     62 CA        -45.7260  -25.8000   10.0559 C.3       5 UNK         0.0224 
     63 CB        -44.3625  -25.1178    9.8216 C.3       5 UNK        -0.1978 
     64 N         -46.6410  -25.5726    8.9273 N.am      5 UNK        -0.4737 
     65 C         -46.4701  -25.8640    7.6284 C.2       4 UNK         0.5027 
     66 O         -45.5007  -26.4705    7.1751 O.2       4 UNK        -0.5211 
     67 CA        -47.5819  -25.3922    6.6759 C.3       4 UNK         0.0297 
     68 CB        -48.7048  -26.4388    6.5911 C.3       4 UNK        -0.1993 
     69 N         -48.1336  -24.1025    7.1008 N.am      4 UNK        -0.4486 
     70 C         -47.5072  -22.9272    6.9352 C.2       3 UNK         0.4961 
     71 O         -46.4745  -22.7865    6.2793 O.2       3 UNK        -0.5105 
     72 CA        -48.1186  -21.7042    7.6389 C.3       3 UNK         0.0299 
     73 CB        -49.1289  -20.9969    6.7213 C.3       3 UNK        -0.1972 
     74 N         -48.7556  -22.0649    8.9096 N.am      3 UNK        -0.4305 
     75 C         -48.0713  -22.3242   10.0371 C.2       2 UNK         0.5006 
     76 O         -46.8499  -22.2038   10.1319 O.2       2 UNK        -0.5106 
     77 CA        -48.8560  -22.8110   11.2717 C.3       2 UNK         0.0296 
     78 CB        -49.1007  -21.6485   12.2475 C.3       2 UNK        -0.2002 
     79 N         -50.1354  -23.4467   10.9575 N.am      2 UNK        -0.4032 
     80 C         -50.2895  -24.5895   10.2754 C.2       1 UNK         0.5000 
     81 O         -49.3379  -25.2588    9.8664 O.2       1 UNK        -0.5238 
     82 H82       -53.2755  -20.8952    9.1629 H         1 UNK         0.0889 
     83 H83       -54.5063  -22.1586    9.3246 H         1 UNK         0.0889 
     84 H84       -53.9089  -21.7087    7.7237 H         1 UNK         0.0889 
     85 H85       -53.4959  -23.8835   10.3225 H         1 UNK         0.3028 
     86 H86       -52.1001  -25.5182   10.8565 H         1 UNK         0.0864 
     87 H87       -51.1858  -26.9156    9.0366 H         1 UNK         0.0720 
     88 H88       -51.3973  -25.6176    7.8790 H         1 UNK         0.0720 
     89 H89       -52.4629  -27.5922    6.4905 H         1 UNK         0.0814 
     90 H90       -54.1170  -28.1101    6.6682 H         1 UNK         0.0814 
     91 H91       -50.6601  -28.8070    7.6204 H         1 UNK         0.1469 
     92 H92       -51.5774  -32.6153    9.3767 H         1 UNK         0.1381 
     93 H93       -54.7357  -29.9666    8.2064 H         1 UNK         0.1206 
     94 H94       -53.8280  -33.4287    9.3580 H         1 UNK         0.0813 
     95 H95       -55.0492  -32.5346    8.4951 H         1 UNK         0.0813 
     96 H96       -52.7974  -32.1479   11.5541 H         1 UNK         0.0638 
     97 H97       -53.8269  -33.1940   12.4968 H         1 UNK         0.0638 
     98 H98       -54.7644  -31.2746   13.7065 H         1 UNK         0.0568 
     99 H99       -51.7448  -30.4309   15.7921 H         1 UNK         0.3450 
    100 H100      -52.9340  -29.4201   14.9785 H         1 UNK         0.3450 
    101 H101      -53.7367  -29.7363   11.5873 H         1 UNK         0.2987 
    102 H102      -53.5054  -27.2606   11.7956 H         1 UNK         0.0766 
    103 H103      -55.6800  -26.8069   10.5069 H         1 UNK         0.0798 
    104 H104      -56.4301  -28.0953   11.4444 H         1 UNK         0.0798 
    105 H105      -55.0776  -28.4498   10.3891 H         1 UNK         0.0798 
    106 H106      -54.0051  -25.6073   13.1536 H         1 UNK         0.3198 
    107 H107      -56.8442  -23.8446   13.6459 H         1 UNK         0.0843 
    108 H108      -55.6812  -25.1452   16.1718 H         1 UNK         0.0831 
    109 H109      -57.3804  -25.1201   15.7261 H         1 UNK         0.0831 
    110 H110      -56.5641  -23.6171   16.1137 H         1 UNK         0.0831 
    111 H111      -54.3269  -23.4945   14.9334 H         1 UNK         0.3133 
    112 H112      -52.3594  -22.5888   12.1903 H         1 UNK         0.0566 
    113 H113      -53.5777  -20.6772   14.2434 H         1 UNK         0.0814 
    114 H114      -52.0940  -20.4122   13.3265 H         1 UNK         0.0814 
    115 H115      -53.6397  -20.4747   12.4986 H         1 UNK         0.0814 
    116 H116      -51.8274  -22.3384   14.9380 H         1 UNK         0.3091 
    117 H117      -50.1674  -23.9103   15.7617 H         1 UNK         0.0702 
    118 H118      -51.4370  -24.7609   17.7760 H         1 UNK         0.0785 
    119 H119      -52.7841  -25.2228   16.7409 H         1 UNK         0.0785 
    120 H120      -52.3642  -23.5270   16.9514 H         1 UNK         0.0785 
    121 H121      -50.8486  -26.5363   14.8089 H         1 UNK         0.2998 
    122 H122      -47.9842  -27.9983   16.2019 H         1 UNK         0.0697 
    123 H123      -50.7772  -28.7647   17.2129 H         1 UNK         0.0825 
    124 H124      -49.3720  -28.4414   18.2143 H         1 UNK         0.0825 
    125 H125      -49.3756  -29.8385   17.1538 H         1 UNK         0.0825 
    126 H126      -50.1920  -29.1855   14.8150 H         1 UNK         0.3029 
    127 H127      -49.6322  -29.9614   12.7014 H         1 UNK         0.0897 
    128 H128      -51.4345  -28.2289   12.6621 H         1 UNK         0.0792 
    129 H129      -51.0736  -28.7828   11.0324 H         1 UNK         0.0792 
    130 H130      -50.4684  -27.2241   11.5989 H         1 UNK         0.0792 
    131 H131      -48.4425  -28.2119   10.6769 H         1 UNK         0.3086 
    132 H132      -45.3901  -29.9490   10.4759 H         1 UNK         0.0583 
    133 H133      -45.9245  -30.4418    8.1735 H         1 UNK         0.1020 
    134 H134      -46.8299  -31.5254    9.1791 H         1 UNK         0.1020 
    135 H135      -49.2923  -32.0850    8.1974 H         1 UNK         0.0694 
    136 H136      -49.2834  -31.2827    9.7494 H         1 UNK         0.0694 
    137 H137      -46.7364  -27.8895    8.9468 H         1 UNK         0.2989 
    138 H138      -46.1937  -25.3033   10.9080 H         1 UNK         0.1055 
    139 H139      -43.7453  -25.1599   10.7199 H         1 UNK         0.0806 
    140 H140      -44.4875  -24.0655    9.5652 H         1 UNK         0.0806 
    141 H141      -43.7985  -25.5959    9.0204 H         1 UNK         0.0806 
    142 H142      -47.5435  -25.1844    9.1921 H         1 UNK         0.3061 
    143 H143      -47.1492  -25.2758    5.6797 H         1 UNK         0.0734 
    144 H144      -49.5154  -26.1048    5.9434 H         1 UNK         0.0832 
    145 H145      -48.3274  -27.3756    6.1792 H         1 UNK         0.0832 
    146 H146      -49.1255  -26.6648    7.5707 H         1 UNK         0.0832 
    147 H147      -48.9746  -24.1247    7.6606 H         1 UNK         0.3156 
    148 H148      -47.3106  -20.9991    7.8467 H         1 UNK         0.0589 
    149 H149      -49.9265  -21.6667    6.3993 H         1 UNK         0.0808 
    150 H150      -49.5872  -20.1410    7.2169 H         1 UNK         0.0808 
    151 H151      -48.6380  -20.6260    5.8207 H         1 UNK         0.0808 
    152 H152      -49.7605  -22.2126    8.8809 H         1 UNK         0.3098 
    153 H153      -48.2345  -23.5547   11.7754 H         1 UNK         0.0720 
    154 H154      -49.5490  -21.9977   13.1773 H         1 UNK         0.0791 
    155 H155      -49.7577  -20.8909   11.8186 H         1 UNK         0.0791 
    156 H156      -48.1635  -21.1556   12.5104 H         1 UNK         0.0791 
    157 H157      -50.9669  -22.9489   11.2335 H         1 UNK         0.3028 
@<TRIPOS>BOND
     1    1    2 1    
     2    1   82 1    
     3    1   83 1    
     4    1   84 1    
     5    2    3 2    
     6    2    4 am   BACKBONE|DICT|INTERRES
     7    4    5 1    
     8    4   85 1    
     9    5    6 1    
    10    5   80 1    
    11    5   86 1    
    12    6    7 1    
    13    6   87 1    
    14    6   88 1    
    15    7    8 1    
    16    8    9 1    
    17    8   89 1    
    18    8   90 1    
    19    9   10 ar   
    20    9   14 ar   
    21   10   11 ar   
    22   10   91 1    
    23   11   12 ar   
    24   11   58 1    
    25   12   13 ar   
    26   12   92 1    
    27   13   14 ar   
    28   13   15 1    
    29   14   93 1    
    30   15   16 1    
    31   15   94 1    
    32   15   95 1    
    33   16   17 1    
    34   17   18 1    
    35   17   96 1    
    36   17   97 1    
    37   18   19 1    
    38   18   22 1    
    39   18   98 1    
    40   19   20 am   BACKBONE|DICT|INTERRES
    41   19   21 2    
    42   20   99 1    
    43   20  100 1    
    44   22   23 am   BACKBONE|DICT|INTERRES
    45   22  101 1    
    46   23   24 2    
    47   23   25 1    
    48   25   26 1    
    49   25   27 1    
    50   25  102 1    
    51   26  103 1    
    52   26  104 1    
    53   26  105 1    
    54   27   28 am   BACKBONE|DICT|INTERRES
    55   27  106 1    
    56   28   29 2    
    57   28   30 1    
    58   30   31 1    
    59   30   32 1    
    60   30  107 1    
    61   31  108 1    
    62   31  109 1    
    63   31  110 1    
    64   32   33 am   BACKBONE|DICT|INTERRES
    65   32  111 1    
    66   33   34 2    
    67   33   35 1    
    68   35   36 1    
    69   35   37 1    
    70   35  112 1    
    71   36  113 1    
    72   36  114 1    
    73   36  115 1    
    74   37   38 am   BACKBONE|DICT|INTERRES
    75   37  116 1    
    76   38   39 2    
    77   38   40 1    
    78   40   41 1    
    79   40   42 1    
    80   40  117 1    
    81   41  118 1    
    82   41  119 1    
    83   41  120 1    
    84   42   43 am   BACKBONE|DICT|INTERRES
    85   42  121 1    
    86   43   44 2    
    87   43   45 1    
    88   45   46 1    
    89   45   47 1    
    90   45  122 1    
    91   46  123 1    
    92   46  124 1    
    93   46  125 1    
    94   47   48 am   BACKBONE|DICT|INTERRES
    95   47  126 1    
    96   48   49 2    
    97   48   50 1    
    98   50   51 1    
    99   50   52 1    
   100   50  127 1    
   101   51  128 1    
   102   51  129 1    
   103   51  130 1    
   104   52   53 am   BACKBONE|DICT|INTERRES
   105   52  131 1    
   106   53   54 2    
   107   53   55 1    
   108   55   56 1    
   109   55   59 1    
   110   55  132 1    
   111   56   57 1    
   112   56  133 1    
   113   56  134 1    
   114   57   58 1    
   115   58  135 1    
   116   58  136 1    
   117   59   60 am   BACKBONE|DICT|INTERRES
   118   59  137 1    
   119   60   61 2    
   120   60   62 1    
   121   62   63 1    
   122   62   64 1    
   123   62  138 1    
   124   63  139 1    
   125   63  140 1    
   126   63  141 1    
   127   64   65 am   BACKBONE|DICT|INTERRES
   128   64  142 1    
   129   65   66 2    
   130   65   67 1    
   131   67   68 1    
   132   67   69 1    
   133   67  143 1    
   134   68  144 1    
   135   68  145 1    
   136   68  146 1    
   137   69   70 am   BACKBONE|DICT|INTERRES
   138   69  147 1    
   139   70   71 2    
   140   70   72 1    
   141   72   73 1    
   142   72   74 1    
   143   72  148 1    
   144   73  149 1    
   145   73  150 1    
   146   73  151 1    
   147   74   75 am   BACKBONE|DICT|INTERRES
   148   74  152 1    
   149   75   76 2    
   150   75   77 1    
   151   77   78 1    
   152   77   79 1    
   153   77  153 1    
   154   78  154 1    
   155   78  155 1    
   156   78  156 1    
   157   79   80 am   BACKBONE|DICT|INTERRES
   158   79  157 1    
   159   80   81 2    
@<TRIPOS>SUBSTRUCTURE
     1 UNK         1 GROUP             0       ****    0 ROOT    
