@<TRIPOS>MOLECULE
3R207
157   159    1
SMALL
USER_CHARGES


@<TRIPOS>ATOM
      1 CA        -47.9050  -31.6350    0.8709 C.3       0 UNK        -0.1975 
      2 C         -47.9667  -30.2338    1.4602 C.2       0 UNK         0.4852 
      3 O         -47.3971  -29.3021    0.8886 O.2       0 UNK        -0.5216 
      4 N         -48.6507  -30.0729    2.6011 N.am      1 UNK        -0.4461 
      5 CA        -48.7852  -28.8102    3.3333 C.3       1 UNK         0.0864 
      6 C6        -50.0907  -28.7934    4.1760 C.3       14 UNK        -0.0898 
      7 S7        -50.7112  -27.0999    4.4522 S.3       14 UNK        -0.2598 
      8 C8        -50.1985  -26.8065    6.1703 C.3       14 UNK         0.0286 
      9 C9        -51.3645  -26.8711    7.1425 C.ar      14 UNK        -0.0844 
     10 C10       -52.0266  -25.6986    7.5149 C.ar      14 UNK        -0.0881 
     11 C11       -53.0740  -25.7405    8.4371 C.ar      14 UNK        -0.0643 
     12 C12       -53.4614  -26.9676    8.9803 C.ar      14 UNK        -0.0930 
     13 C13       -52.8088  -28.1538    8.6211 C.ar      14 UNK        -0.0827 
     14 C14       -51.7584  -28.0924    7.6985 C.ar      14 UNK        -0.1249 
     15 C15       -53.1684  -29.5034    9.2474 C.3       14 UNK         0.0141 
     16 S16       -54.8549  -29.6043    9.9419 S.3       14 UNK        -0.2313 
     17 C17       -54.6681  -30.9510   11.1615 C.3       14 UNK        -0.0915 
     18 CA        -54.5076  -30.4602   12.6295 C.3       13 UNK         0.0968 
     19 C         -53.0722  -29.9356   12.9447 C.2       13 UNK         0.5732 
     20 N         -52.8962  -28.7656   13.5481 N.am      13 UNK        -0.7310 
     21 O         -52.0936  -30.6134   12.6426 O.2       13 UNK        -0.5035 
     22 N         -55.5899  -29.5399   13.0091 N.am      13 UNK        -0.4233 
     23 C         -56.0407  -29.3571   14.2530 C.2       13 UNK         0.4989 
     24 O         -55.7154  -30.0507   15.2195 O.2       13 UNK        -0.4996 
     25 CA        -57.0215  -28.1875   14.4484 C.3       12 UNK         0.0216 
     26 CB        -58.4671  -28.7018   14.5445 C.3       12 UNK        -0.1964 
     27 N         -56.7012  -27.4033   15.6444 N.am      12 UNK        -0.4276 
     28 C         -55.5415  -26.7654   15.8522 C.2       12 UNK         0.5020 
     29 O         -54.6273  -26.7113   15.0230 O.2       12 UNK        -0.5489 
     30 CA        -55.3690  -26.1028   17.2249 C.3       11 UNK         0.0294 
     31 CB        -55.2147  -27.1730   18.3261 C.3       11 UNK        -0.2019 
     32 N         -54.1828  -25.2536   17.1854 N.am      11 UNK        -0.4493 
     33 C         -53.8160  -24.3496   18.1022 C.2       11 UNK         0.4932 
     34 O         -54.5103  -24.0390   19.0721 O.2       11 UNK        -0.5029 
     35 CA        -52.4262  -23.7090   17.9058 C.3       10 UNK         0.0280 
     36 CB        -51.8994  -22.9836   19.1622 C.3       10 UNK        -0.1976 
     37 N         -51.4496  -24.6810   17.3981 N.am      10 UNK        -0.4242 
     38 C         -51.0315  -25.8065   17.9998 C.2       10 UNK         0.5072 
     39 O         -51.3001  -26.1157   19.1615 O.2       10 UNK        -0.5224 
     40 CA        -50.2071  -26.7833   17.1454 C.3       9 UNK         0.0343 
     41 CB        -51.1427  -27.8101   16.4864 C.3       9 UNK        -0.2003 
     42 N         -49.4117  -26.1167   16.1114 N.am      9 UNK        -0.4272 
     43 C         -48.2835  -25.4338   16.3569 C.2       9 UNK         0.4988 
     44 O         -47.7744  -25.3292   17.4735 O.2       9 UNK        -0.5108 
     45 CA        -47.6119  -24.7413   15.1581 C.3       8 UNK         0.0248 
     46 CB        -46.8489  -25.7598   14.2967 C.3       8 UNK        -0.2001 
     47 N         -48.5633  -23.9980   14.3286 N.am      8 UNK        -0.4140 
     48 C         -49.2509  -22.9226   14.7420 C.2       8 UNK         0.5028 
     49 O         -49.1236  -22.4068   15.8526 O.2       8 UNK        -0.5428 
     50 CA        -50.2737  -22.3342   13.7596 C.3       7 UNK         0.0264 
     51 CB        -49.6042  -21.3384   12.7989 C.3       7 UNK        -0.1988 
     52 N         -50.9611  -23.3733   12.9934 N.am      7 UNK        -0.4454 
     53 C         -51.8838  -24.2026   13.5008 C.2       7 UNK         0.5027 
     54 O         -52.2579  -24.1725   14.6728 O.2       7 UNK        -0.5083 
     55 CA        -52.4646  -25.2643   12.5466 C.3       6 UNK         0.0844 
     56 C56       -53.5925  -24.6707   11.6651 C.3       14 UNK        -0.0967 
     57 S57       -52.9989  -23.6522   10.2621 S.3       14 UNK        -0.2604 
     58 C58       -53.7923  -24.4607    8.8368 C.3       14 UNK         0.0134 
     59 N         -51.4235  -25.9462   11.7725 N.am      6 UNK        -0.4116 
     60 C         -50.4254  -26.6695   12.3009 C.2       5 UNK         0.5034 
     61 O         -50.3360  -26.9413   13.4978 O.2       5 UNK        -0.5045 
     62 CA        -49.3062  -27.1273   11.3514 C.3       5 UNK         0.0224 
     63 CB        -49.5677  -28.5493   10.8393 C.3       5 UNK        -0.1978 
     64 N         -49.0891  -26.2296   10.2151 N.am      5 UNK        -0.4737 
     65 C         -48.7338  -24.9430   10.3013 C.2       4 UNK         0.5027 
     66 O         -48.5434  -24.3609   11.3710 O.2       4 UNK        -0.5211 
     67 CA        -48.5912  -24.1880    8.9671 C.3       4 UNK         0.0297 
     68 CB        -48.7694  -22.6694    9.1469 C.3       4 UNK        -0.1993 
     69 N         -47.3155  -24.4459    8.2911 N.am      4 UNK        -0.4486 
     70 C         -46.9265  -25.6161    7.7677 C.2       3 UNK         0.4961 
     71 O         -47.5743  -26.6594    7.8479 O.2       3 UNK        -0.5105 
     72 CA        -45.5879  -25.6272    7.0265 C.3       3 UNK         0.0299 
     73 CB        -44.4250  -25.9030    7.9966 C.3       3 UNK        -0.1972 
     74 N         -45.6316  -26.6573    5.9888 N.am      3 UNK        -0.4305 
     75 C         -44.8999  -26.6615    4.8705 C.2       2 UNK         0.5006 
     76 O         -44.0974  -25.7724    4.5818 O.2       2 UNK        -0.5106 
     77 CA        -45.0679  -27.8481    3.9039 C.3       2 UNK         0.0296 
     78 CB        -44.4069  -29.1249    4.4618 C.3       2 UNK        -0.2002 
     79 N         -46.4440  -28.0991    3.4520 N.am      2 UNK        -0.4032 
     80 C         -47.4977  -28.5466    4.1501 C.2       1 UNK         0.5000 
     81 O         -47.4602  -28.8024    5.3547 O.2       1 UNK        -0.5238 
     82 H82       -48.4570  -32.3559    1.4737 H         1 UNK         0.0889 
     83 H83       -46.8698  -31.9687    0.8059 H         1 UNK         0.0889 
     84 H84       -48.3281  -31.6380   -0.1332 H         1 UNK         0.0889 
     85 H85       -49.0712  -30.8790    3.0419 H         1 UNK         0.3028 
     86 H86       -48.8685  -28.0110    2.5925 H         1 UNK         0.0864 
     87 H87       -50.8833  -29.3112    3.6332 H         1 UNK         0.0720 
     88 H88       -49.9873  -29.3376    5.1164 H         1 UNK         0.0720 
     89 H89       -49.7120  -25.8321    6.2260 H         1 UNK         0.0814 
     90 H90       -49.4475  -27.5373    6.4641 H         1 UNK         0.0814 
     91 H91       -51.7244  -24.7508    7.0903 H         1 UNK         0.1469 
     92 H92       -54.2731  -26.9904    9.6904 H         1 UNK         0.1381 
     93 H93       -51.2341  -28.9968    7.4207 H         1 UNK         0.1206 
     94 H94       -53.0570  -30.2973    8.5073 H         1 UNK         0.0813 
     95 H95       -52.4461  -29.7126   10.0352 H         1 UNK         0.0813 
     96 H96       -53.8471  -31.6083   10.8691 H         1 UNK         0.0638 
     97 H97       -55.5652  -31.5678   11.0927 H         1 UNK         0.0638 
     98 H98       -54.6091  -31.3489   13.2551 H         1 UNK         0.0568 
     99 H99       -53.6785  -28.2070   13.8653 H         1 UNK         0.3450 
    100 H100      -51.9556  -28.4434   13.7229 H         1 UNK         0.3450 
    101 H101      -55.9082  -28.9289   12.2712 H         1 UNK         0.2987 
    102 H102      -56.9488  -27.5169   13.5894 H         1 UNK         0.0766 
    103 H103      -59.1776  -27.8796   14.6332 H         1 UNK         0.0798 
    104 H104      -58.6050  -29.3606   15.4032 H         1 UNK         0.0798 
    105 H105      -58.7399  -29.2684   13.6530 H         1 UNK         0.0798 
    106 H106      -57.3819  -27.4229   16.3897 H         1 UNK         0.3198 
    107 H107      -56.2440  -25.4810   17.4248 H         1 UNK         0.0843 
    108 H108      -56.0809  -27.8342   18.3655 H         1 UNK         0.0831 
    109 H109      -55.1145  -26.7234   19.3139 H         1 UNK         0.0831 
    110 H110      -54.3362  -27.7968   18.1547 H         1 UNK         0.0831 
    111 H111      -53.6040  -25.3996   16.3637 H         1 UNK         0.3133 
    112 H112      -52.5436  -22.9597   17.1220 H         1 UNK         0.0566 
    113 H113      -50.9144  -22.5516   18.9847 H         1 UNK         0.0814 
    114 H114      -52.5646  -22.1680   19.4478 H         1 UNK         0.0814 
    115 H115      -51.8237  -23.6539   20.0187 H         1 UNK         0.0814 
    116 H116      -51.2180  -24.5604   16.4183 H         1 UNK         0.3091 
    117 H117      -49.5281  -27.3201   17.8114 H         1 UNK         0.0702 
    118 H118      -50.5842  -28.5415   15.9019 H         1 UNK         0.0785 
    119 H119      -51.8624  -27.3279   15.8234 H         1 UNK         0.0785 
    120 H120      -51.7122  -28.3599   17.2369 H         1 UNK         0.0785 
    121 H121      -49.7390  -26.2139   15.1531 H         1 UNK         0.2998 
    122 H122      -46.8890  -24.0219   15.5485 H         1 UNK         0.0697 
    123 H123      -47.4988  -26.5635   13.9532 H         1 UNK         0.0825 
    124 H124      -46.0423  -26.2208   14.8681 H         1 UNK         0.0825 
    125 H125      -46.4003  -25.2892   13.4213 H         1 UNK         0.0825 
    126 H126      -48.6833  -24.3034   13.3670 H         1 UNK         0.3029 
    127 H127      -51.0214  -21.7926   14.3436 H         1 UNK         0.0897 
    128 H128      -50.3302  -20.8928   12.1186 H         1 UNK         0.0792 
    129 H129      -49.1346  -20.5233   13.3511 H         1 UNK         0.0792 
    130 H130      -48.8275  -21.8123   12.1982 H         1 UNK         0.0792 
    131 H131      -50.6732  -23.4979   12.0327 H         1 UNK         0.3086 
    132 H132      -52.9227  -26.0224   13.1816 H         1 UNK         0.0583 
    133 H133      -54.2156  -25.4825   11.2955 H         1 UNK         0.1020 
    134 H134      -54.2715  -24.0638   12.2679 H         1 UNK         0.1020 
    135 H135      -54.8415  -24.6612    9.0600 H         1 UNK         0.0694 
    136 H136      -53.7924  -23.7633    7.9977 H         1 UNK         0.0694 
    137 H137      -51.4255  -25.7795   10.7764 H         1 UNK         0.2989 
    138 H138      -48.3809  -27.1451   11.9280 H         1 UNK         0.1055 
    139 H139      -49.7452  -29.2396   11.6656 H         1 UNK         0.0806 
    140 H140      -48.7170  -28.9300   10.2738 H         1 UNK         0.0806 
    141 H141      -50.4405  -28.5832   10.1915 H         1 UNK         0.0806 
    142 H142      -49.1031  -26.6460    9.2903 H         1 UNK         0.3061 
    143 H143      -49.3934  -24.5324    8.3125 H         1 UNK         0.0734 
    144 H144      -49.7173  -22.4437    9.6377 H         1 UNK         0.0832 
    145 H145      -47.9755  -22.2374    9.7574 H         1 UNK         0.0832 
    146 H146      -48.7746  -22.1529    8.1870 H         1 UNK         0.0832 
    147 H147      -46.6915  -23.6560    8.2086 H         1 UNK         0.3156 
    148 H148      -45.4479  -24.6509    6.5574 H         1 UNK         0.0589 
    149 H149      -44.5257  -26.8782    8.4749 H         1 UNK         0.0808 
    150 H150      -43.4639  -25.8802    7.4827 H         1 UNK         0.0808 
    151 H151      -44.3861  -25.1530    8.7876 H         1 UNK         0.0808 
    152 H152      -46.3211  -27.3947    6.1319 H         1 UNK         0.3098 
    153 H153      -44.5206  -27.5820    2.9979 H         1 UNK         0.0720 
    154 H154      -44.4453  -29.9388    3.7377 H         1 UNK         0.0791 
    155 H155      -44.8856  -29.4698    5.3787 H         1 UNK         0.0791 
    156 H156      -43.3561  -28.9476    4.6946 H         1 UNK         0.0791 
    157 H157      -46.5890  -27.9828    2.4551 H         1 UNK         0.3028 
@<TRIPOS>BOND
     1    1    2 1    
     2    1   82 1    
     3    1   83 1    
     4    1   84 1    
     5    2    3 2    
     6    2    4 am   BACKBONE|DICT|INTERRES
     7    4    5 1    
     8    4   85 1    
     9    5    6 1    
    10    5   80 1    
    11    5   86 1    
    12    6    7 1    
    13    6   87 1    
    14    6   88 1    
    15    7    8 1    
    16    8    9 1    
    17    8   89 1    
    18    8   90 1    
    19    9   10 ar   
    20    9   14 ar   
    21   10   11 ar   
    22   10   91 1    
    23   11   12 ar   
    24   11   58 1    
    25   12   13 ar   
    26   12   92 1    
    27   13   14 ar   
    28   13   15 1    
    29   14   93 1    
    30   15   16 1    
    31   15   94 1    
    32   15   95 1    
    33   16   17 1    
    34   17   18 1    
    35   17   96 1    
    36   17   97 1    
    37   18   19 1    
    38   18   22 1    
    39   18   98 1    
    40   19   20 am   BACKBONE|DICT|INTERRES
    41   19   21 2    
    42   20   99 1    
    43   20  100 1    
    44   22   23 am   BACKBONE|DICT|INTERRES
    45   22  101 1    
    46   23   24 2    
    47   23   25 1    
    48   25   26 1    
    49   25   27 1    
    50   25  102 1    
    51   26  103 1    
    52   26  104 1    
    53   26  105 1    
    54   27   28 am   BACKBONE|DICT|INTERRES
    55   27  106 1    
    56   28   29 2    
    57   28   30 1    
    58   30   31 1    
    59   30   32 1    
    60   30  107 1    
    61   31  108 1    
    62   31  109 1    
    63   31  110 1    
    64   32   33 am   BACKBONE|DICT|INTERRES
    65   32  111 1    
    66   33   34 2    
    67   33   35 1    
    68   35   36 1    
    69   35   37 1    
    70   35  112 1    
    71   36  113 1    
    72   36  114 1    
    73   36  115 1    
    74   37   38 am   BACKBONE|DICT|INTERRES
    75   37  116 1    
    76   38   39 2    
    77   38   40 1    
    78   40   41 1    
    79   40   42 1    
    80   40  117 1    
    81   41  118 1    
    82   41  119 1    
    83   41  120 1    
    84   42   43 am   BACKBONE|DICT|INTERRES
    85   42  121 1    
    86   43   44 2    
    87   43   45 1    
    88   45   46 1    
    89   45   47 1    
    90   45  122 1    
    91   46  123 1    
    92   46  124 1    
    93   46  125 1    
    94   47   48 am   BACKBONE|DICT|INTERRES
    95   47  126 1    
    96   48   49 2    
    97   48   50 1    
    98   50   51 1    
    99   50   52 1    
   100   50  127 1    
   101   51  128 1    
   102   51  129 1    
   103   51  130 1    
   104   52   53 am   BACKBONE|DICT|INTERRES
   105   52  131 1    
   106   53   54 2    
   107   53   55 1    
   108   55   56 1    
   109   55   59 1    
   110   55  132 1    
   111   56   57 1    
   112   56  133 1    
   113   56  134 1    
   114   57   58 1    
   115   58  135 1    
   116   58  136 1    
   117   59   60 am   BACKBONE|DICT|INTERRES
   118   59  137 1    
   119   60   61 2    
   120   60   62 1    
   121   62   63 1    
   122   62   64 1    
   123   62  138 1    
   124   63  139 1    
   125   63  140 1    
   126   63  141 1    
   127   64   65 am   BACKBONE|DICT|INTERRES
   128   64  142 1    
   129   65   66 2    
   130   65   67 1    
   131   67   68 1    
   132   67   69 1    
   133   67  143 1    
   134   68  144 1    
   135   68  145 1    
   136   68  146 1    
   137   69   70 am   BACKBONE|DICT|INTERRES
   138   69  147 1    
   139   70   71 2    
   140   70   72 1    
   141   72   73 1    
   142   72   74 1    
   143   72  148 1    
   144   73  149 1    
   145   73  150 1    
   146   73  151 1    
   147   74   75 am   BACKBONE|DICT|INTERRES
   148   74  152 1    
   149   75   76 2    
   150   75   77 1    
   151   77   78 1    
   152   77   79 1    
   153   77  153 1    
   154   78  154 1    
   155   78  155 1    
   156   78  156 1    
   157   79   80 am   BACKBONE|DICT|INTERRES
   158   79  157 1    
   159   80   81 2    
@<TRIPOS>SUBSTRUCTURE
     1 UNK         1 GROUP             0       ****    0 ROOT    
