@<TRIPOS>MOLECULE
3R207
157   159    1
SMALL
USER_CHARGES


@<TRIPOS>ATOM
      1 CA        -47.2532  -31.1257    1.8511 C.3       0 UNK        -0.1975 
      2 C         -48.0711  -30.5456    2.9957 C.2       0 UNK         0.4852 
      3 O         -48.1010  -31.1301    4.0793 O.2       0 UNK        -0.5216 
      4 N         -48.7343  -29.4045    2.7585 N.am      1 UNK        -0.4461 
      5 CA        -49.5457  -28.6501    3.7194 C.3       1 UNK         0.0864 
      6 C6        -50.7863  -29.4435    4.2248 C.3       14 UNK        -0.0898 
      7 S7        -52.1079  -28.3529    4.8495 S.3       14 UNK        -0.2598 
      8 C8        -52.1003  -28.7340    6.6291 C.3       14 UNK         0.0286 
      9 C9        -53.2341  -28.0162    7.3395 C.ar      14 UNK        -0.0844 
     10 C10       -53.0875  -26.6812    7.7279 C.ar      14 UNK        -0.0881 
     11 C11       -54.1291  -26.0153    8.3817 C.ar      14 UNK        -0.0643 
     12 C12       -55.3226  -26.6954    8.6430 C.ar      14 UNK        -0.0930 
     13 C13       -55.4802  -28.0302    8.2568 C.ar      14 UNK        -0.0827 
     14 C14       -54.4319  -28.6851    7.6051 C.ar      14 UNK        -0.1249 
     15 C15       -56.7905  -28.7607    8.5143 C.3       14 UNK         0.0141 
     16 S16       -56.6635  -29.9359    9.8981 S.3       14 UNK        -0.2313 
     17 C17       -56.6469  -28.8050   11.3318 C.3       14 UNK        -0.0915 
     18 CA        -55.9238  -29.3869   12.5771 C.3       13 UNK         0.0968 
     19 C         -56.7041  -30.5297   13.2887 C.2       13 UNK         0.5732 
     20 N         -56.0452  -31.5583   13.8120 N.am      13 UNK        -0.7310 
     21 O         -57.9273  -30.4772   13.3945 O.2       13 UNK        -0.5035 
     22 N         -54.5161  -29.7149   12.3040 N.am      13 UNK        -0.4233 
     23 C         -53.5059  -28.8474   12.3927 C.2       13 UNK         0.4989 
     24 O         -53.6387  -27.6523   12.6644 O.2       13 UNK        -0.4996 
     25 CA        -52.0951  -29.4057   12.1658 C.3       12 UNK         0.0216 
     26 CB        -51.5088  -28.8854   10.8426 C.3       12 UNK        -0.1964 
     27 N         -51.2762  -28.9662   13.2941 N.am      12 UNK        -0.4276 
     28 C         -51.1071  -29.6722   14.4214 C.2       12 UNK         0.5020 
     29 O         -51.3321  -30.8792   14.5172 O.2       12 UNK        -0.5489 
     30 CA        -50.6884  -28.8811   15.6760 C.3       11 UNK         0.0294 
     31 CB        -49.1615  -28.8595   15.8505 C.3       11 UNK        -0.2019 
     32 N         -51.2134  -27.5116   15.6469 N.am      11 UNK        -0.4493 
     33 C         -52.5097  -27.2104   15.8159 C.2       11 UNK         0.4932 
     34 O         -53.3535  -28.0291   16.1871 O.2       11 UNK        -0.5029 
     35 CA        -52.9297  -25.7660   15.4831 C.3       10 UNK         0.0280 
     36 CB        -54.4254  -25.4936   15.7497 C.3       10 UNK        -0.1976 
     37 N         -52.0924  -24.7499   16.1282 N.am      10 UNK        -0.4242 
     38 C         -51.8978  -24.5858   17.4461 C.2       10 UNK         0.5072 
     39 O         -52.4014  -25.3059   18.3110 O.2       10 UNK        -0.5224 
     40 CA        -51.0131  -23.3950   17.8696 C.3       9 UNK         0.0343 
     41 CB        -50.5742  -23.4697   19.3481 C.3       9 UNK        -0.2003 
     42 N         -49.8483  -23.1786   17.0046 N.am      9 UNK        -0.4272 
     43 C         -48.8520  -24.0337   16.7361 C.2       9 UNK         0.4988 
     44 O         -48.8108  -25.1930   17.1513 O.2       9 UNK        -0.5108 
     45 CA        -47.7014  -23.4797   15.8686 C.3       8 UNK         0.0248 
     46 CB        -46.5682  -24.5043   15.6779 C.3       8 UNK        -0.2001 
     47 N         -48.1539  -23.0120   14.5540 N.am      8 UNK        -0.4140 
     48 C         -48.8536  -21.8928   14.3180 C.2       8 UNK         0.5028 
     49 O         -49.1660  -21.0882   15.1979 O.2       8 UNK        -0.5428 
     50 CA        -49.3245  -21.6439   12.8743 C.3       7 UNK         0.0264 
     51 CB        -48.2231  -20.9546   12.0537 C.3       7 UNK        -0.1988 
     52 N         -49.7629  -22.8606   12.1850 N.am      7 UNK        -0.4454 
     53 C         -50.7913  -23.6343   12.5669 C.2       7 UNK         0.5027 
     54 O         -51.5013  -23.3925   13.5448 O.2       7 UNK        -0.5083 
     55 CA        -51.0175  -24.9304   11.7560 C.3       6 UNK         0.0844 
     56 C56       -51.6806  -24.6644   10.3842 C.3       14 UNK        -0.0967 
     57 S57       -53.4725  -24.3676   10.5177 S.3       14 UNK        -0.2604 
     58 C58       -53.9845  -24.5538    8.7814 C.3       14 UNK         0.0134 
     59 N         -49.7707  -25.6847   11.6138 N.am      6 UNK        -0.4116 
     60 C         -49.0779  -26.2044   12.6348 C.2       5 UNK         0.5034 
     61 O         -49.4814  -26.2119   13.7963 O.2       5 UNK        -0.5045 
     62 CA        -47.6943  -26.7883   12.3108 C.3       5 UNK         0.0224 
     63 CB        -47.7981  -28.2744   11.9372 C.3       5 UNK        -0.1978 
     64 N         -47.0239  -26.0487   11.2369 N.am      5 UNK        -0.4737 
     65 C         -46.5331  -24.8085   11.3767 C.2       4 UNK         0.5027 
     66 O         -46.5483  -24.1879   12.4374 O.2       4 UNK        -0.5211 
     67 CA        -45.9794  -24.1275   10.1139 C.3       4 UNK         0.0297 
     68 CB        -44.5326  -24.5721    9.8495 C.3       4 UNK        -0.1993 
     69 N         -46.8002  -24.3840    8.9280 N.am      4 UNK        -0.4486 
     70 C         -48.0684  -23.9748    8.7772 C.2       3 UNK         0.4961 
     71 O         -48.6629  -23.2771    9.5973 O.2       3 UNK        -0.5105 
     72 CA        -48.8215  -24.4763    7.5322 C.3       3 UNK         0.0299 
     73 CB        -48.6612  -23.4887    6.3671 C.3       3 UNK        -0.1972 
     74 N         -48.4042  -25.8148    7.1031 N.am      3 UNK        -0.4305 
     75 C         -48.5109  -26.9281    7.8391 C.2       2 UNK         0.5006 
     76 O         -49.0199  -26.9480    8.9617 O.2       2 UNK        -0.5106 
     77 CA        -47.9348  -28.2168    7.2181 C.3       2 UNK         0.0296 
     78 CB        -47.8949  -29.3858    8.2188 C.3       2 UNK        -0.2002 
     79 N         -48.6758  -28.6425    6.0305 N.am      2 UNK        -0.4032 
     80 C         -48.6498  -28.0541    4.8272 C.2       1 UNK         0.5000 
     81 O         -47.9486  -27.0725    4.5675 O.2       1 UNK        -0.5238 
     82 H82       -46.2015  -31.1789    2.1315 H         1 UNK         0.0889 
     83 H83       -47.3332  -30.5244    0.9456 H         1 UNK         0.0889 
     84 H84       -47.5957  -32.1339    1.6193 H         1 UNK         0.0889 
     85 H85       -48.6400  -28.9687    1.8511 H         1 UNK         0.3028 
     86 H86       -49.9195  -27.7948    3.1535 H         1 UNK         0.0864 
     87 H87       -50.5276  -30.2074    4.9592 H         1 UNK         0.0720 
     88 H88       -51.2213  -29.9937    3.3889 H         1 UNK         0.0720 
     89 H89       -51.1528  -28.4340    7.0754 H         1 UNK         0.0814 
     90 H90       -52.1864  -29.8122    6.7742 H         1 UNK         0.0814 
     91 H91       -52.1648  -26.1607    7.5110 H         1 UNK         0.1469 
     92 H92       -56.1307  -26.1806    9.1444 H         1 UNK         0.1381 
     93 H93       -54.5527  -29.7162    7.3014 H         1 UNK         0.1206 
     94 H94       -57.0776  -29.3083    7.6155 H         1 UNK         0.0813 
     95 H95       -57.5994  -28.0549    8.7099 H         1 UNK         0.0813 
     96 H96       -56.1538  -27.8759   11.0461 H         1 UNK         0.0638 
     97 H97       -57.6750  -28.5283   11.5706 H         1 UNK         0.0638 
     98 H98       -55.9289  -28.5961   13.3298 H         1 UNK         0.0568 
     99 H99       -56.5692  -32.2846   14.2744 H         1 UNK         0.3450 
    100 H100      -55.0392  -31.5945   13.8085 H         1 UNK         0.3450 
    101 H101      -54.3366  -30.6734   12.0427 H         1 UNK         0.2987 
    102 H102      -52.1299  -30.4964   12.1228 H         1 UNK         0.0766 
    103 H103      -51.4399  -27.7984   10.8245 H         1 UNK         0.0798 
    104 H104      -52.1350  -29.1793    9.9992 H         1 UNK         0.0798 
    105 H105      -50.5150  -29.2917   10.6613 H         1 UNK         0.0798 
    106 H106      -51.1154  -27.9700   13.3535 H         1 UNK         0.3198 
    107 H107      -51.1149  -29.3908   16.5428 H         1 UNK         0.0843 
    108 H108      -48.8777  -28.3418   16.7672 H         1 UNK         0.0831 
    109 H109      -48.6585  -28.3628   15.0228 H         1 UNK         0.0831 
    110 H110      -48.7633  -29.8731   15.9125 H         1 UNK         0.0831 
    111 H111      -50.5757  -26.7911   15.3165 H         1 UNK         0.3133 
    112 H112      -52.7728  -25.6503   14.4112 H         1 UNK         0.0566 
    113 H113      -54.7020  -24.4813   15.4555 H         1 UNK         0.0814 
    114 H114      -55.0511  -26.1785   15.1756 H         1 UNK         0.0814 
    115 H115      -54.6811  -25.6217   16.8020 H         1 UNK         0.0814 
    116 H116      -51.6357  -24.1096   15.4859 H         1 UNK         0.3091 
    117 H117      -51.6377  -22.5075   17.7589 H         1 UNK         0.0702 
    118 H118      -49.9793  -22.6010   19.6301 H         1 UNK         0.0785 
    119 H119      -49.9804  -24.3625   19.5475 H         1 UNK         0.0785 
    120 H120      -51.4380  -23.4977   20.0136 H         1 UNK         0.0785 
    121 H121      -49.7857  -22.2647   16.5604 H         1 UNK         0.2998 
    122 H122      -47.2820  -22.6261   16.4051 H         1 UNK         0.0697 
    123 H123      -45.7435  -24.0846   15.1017 H         1 UNK         0.0825 
    124 H124      -46.1623  -24.8233   16.6386 H         1 UNK         0.0825 
    125 H125      -46.9206  -25.3966   15.1608 H         1 UNK         0.0825 
    126 H126      -47.8807  -23.5827   13.7592 H         1 UNK         0.3029 
    127 H127      -50.1833  -20.9711   12.9236 H         1 UNK         0.0897 
    128 H128      -48.5734  -20.7034   11.0522 H         1 UNK         0.0792 
    129 H129      -47.9049  -20.0258   12.5291 H         1 UNK         0.0792 
    130 H130      -47.3413  -21.5873   11.9493 H         1 UNK         0.0792 
    131 H131      -49.2554  -23.1085   11.3371 H         1 UNK         0.3086 
    132 H132      -51.6905  -25.5673   12.3331 H         1 UNK         0.0583 
    133 H133      -51.2176  -23.8249    9.8638 H         1 UNK         0.1020 
    134 H134      -51.5361  -25.5332    9.7421 H         1 UNK         0.1020 
    135 H135      -54.9391  -24.0439    8.6436 H         1 UNK         0.0694 
    136 H136      -53.2733  -24.0433    8.1299 H         1 UNK         0.0694 
    137 H137      -49.3926  -25.7860   10.6788 H         1 UNK         0.2989 
    138 H138      -47.0840  -26.7098   13.2125 H         1 UNK         0.1055 
    139 H139      -46.8144  -28.7086   11.7586 H         1 UNK         0.0806 
    140 H140      -48.3983  -28.4228   11.0418 H         1 UNK         0.0806 
    141 H141      -48.2653  -28.8516   12.7352 H         1 UNK         0.0806 
    142 H142      -47.0235  -26.4735   10.3208 H         1 UNK         0.3061 
    143 H143      -45.9783  -23.0500   10.2926 H         1 UNK         0.0734 
    144 H144      -44.0996  -24.0346    9.0056 H         1 UNK         0.0832 
    145 H145      -43.9007  -24.3723   10.7162 H         1 UNK         0.0832 
    146 H146      -44.4665  -25.6402    9.6386 H         1 UNK         0.0832 
    147 H147      -46.3892  -24.9442    8.1957 H         1 UNK         0.3156 
    148 H148      -49.8813  -24.5301    7.7885 H         1 UNK         0.0589 
    149 H149      -47.6230  -23.4109    6.0419 H         1 UNK         0.0808 
    150 H150      -49.2606  -23.7892    5.5074 H         1 UNK         0.0808 
    151 H151      -48.9891  -22.4889    6.6556 H         1 UNK         0.0808 
    152 H152      -48.0316  -25.9113    6.1623 H         1 UNK         0.3098 
    153 H153      -46.9064  -28.0028    6.9196 H         1 UNK         0.0720 
    154 H154      -48.8880  -29.6325    8.5970 H         1 UNK         0.0791 
    155 H155      -47.2663  -29.1415    9.0752 H         1 UNK         0.0791 
    156 H156      -47.4766  -30.2840    7.7638 H         1 UNK         0.0791 
    157 H157      -49.2444  -29.4697    6.1334 H         1 UNK         0.3028 
@<TRIPOS>BOND
     1    1    2 1    
     2    1   82 1    
     3    1   83 1    
     4    1   84 1    
     5    2    3 2    
     6    2    4 am   BACKBONE|DICT|INTERRES
     7    4    5 1    
     8    4   85 1    
     9    5    6 1    
    10    5   80 1    
    11    5   86 1    
    12    6    7 1    
    13    6   87 1    
    14    6   88 1    
    15    7    8 1    
    16    8    9 1    
    17    8   89 1    
    18    8   90 1    
    19    9   10 ar   
    20    9   14 ar   
    21   10   11 ar   
    22   10   91 1    
    23   11   12 ar   
    24   11   58 1    
    25   12   13 ar   
    26   12   92 1    
    27   13   14 ar   
    28   13   15 1    
    29   14   93 1    
    30   15   16 1    
    31   15   94 1    
    32   15   95 1    
    33   16   17 1    
    34   17   18 1    
    35   17   96 1    
    36   17   97 1    
    37   18   19 1    
    38   18   22 1    
    39   18   98 1    
    40   19   20 am   BACKBONE|DICT|INTERRES
    41   19   21 2    
    42   20   99 1    
    43   20  100 1    
    44   22   23 am   BACKBONE|DICT|INTERRES
    45   22  101 1    
    46   23   24 2    
    47   23   25 1    
    48   25   26 1    
    49   25   27 1    
    50   25  102 1    
    51   26  103 1    
    52   26  104 1    
    53   26  105 1    
    54   27   28 am   BACKBONE|DICT|INTERRES
    55   27  106 1    
    56   28   29 2    
    57   28   30 1    
    58   30   31 1    
    59   30   32 1    
    60   30  107 1    
    61   31  108 1    
    62   31  109 1    
    63   31  110 1    
    64   32   33 am   BACKBONE|DICT|INTERRES
    65   32  111 1    
    66   33   34 2    
    67   33   35 1    
    68   35   36 1    
    69   35   37 1    
    70   35  112 1    
    71   36  113 1    
    72   36  114 1    
    73   36  115 1    
    74   37   38 am   BACKBONE|DICT|INTERRES
    75   37  116 1    
    76   38   39 2    
    77   38   40 1    
    78   40   41 1    
    79   40   42 1    
    80   40  117 1    
    81   41  118 1    
    82   41  119 1    
    83   41  120 1    
    84   42   43 am   BACKBONE|DICT|INTERRES
    85   42  121 1    
    86   43   44 2    
    87   43   45 1    
    88   45   46 1    
    89   45   47 1    
    90   45  122 1    
    91   46  123 1    
    92   46  124 1    
    93   46  125 1    
    94   47   48 am   BACKBONE|DICT|INTERRES
    95   47  126 1    
    96   48   49 2    
    97   48   50 1    
    98   50   51 1    
    99   50   52 1    
   100   50  127 1    
   101   51  128 1    
   102   51  129 1    
   103   51  130 1    
   104   52   53 am   BACKBONE|DICT|INTERRES
   105   52  131 1    
   106   53   54 2    
   107   53   55 1    
   108   55   56 1    
   109   55   59 1    
   110   55  132 1    
   111   56   57 1    
   112   56  133 1    
   113   56  134 1    
   114   57   58 1    
   115   58  135 1    
   116   58  136 1    
   117   59   60 am   BACKBONE|DICT|INTERRES
   118   59  137 1    
   119   60   61 2    
   120   60   62 1    
   121   62   63 1    
   122   62   64 1    
   123   62  138 1    
   124   63  139 1    
   125   63  140 1    
   126   63  141 1    
   127   64   65 am   BACKBONE|DICT|INTERRES
   128   64  142 1    
   129   65   66 2    
   130   65   67 1    
   131   67   68 1    
   132   67   69 1    
   133   67  143 1    
   134   68  144 1    
   135   68  145 1    
   136   68  146 1    
   137   69   70 am   BACKBONE|DICT|INTERRES
   138   69  147 1    
   139   70   71 2    
   140   70   72 1    
   141   72   73 1    
   142   72   74 1    
   143   72  148 1    
   144   73  149 1    
   145   73  150 1    
   146   73  151 1    
   147   74   75 am   BACKBONE|DICT|INTERRES
   148   74  152 1    
   149   75   76 2    
   150   75   77 1    
   151   77   78 1    
   152   77   79 1    
   153   77  153 1    
   154   78  154 1    
   155   78  155 1    
   156   78  156 1    
   157   79   80 am   BACKBONE|DICT|INTERRES
   158   79  157 1    
   159   80   81 2    
@<TRIPOS>SUBSTRUCTURE
     1 UNK         1 GROUP             0       ****    0 ROOT    
