@<TRIPOS>MOLECULE
3R207
157   159    1
SMALL
USER_CHARGES


@<TRIPOS>ATOM
      1 CA        -46.1159  -31.8033    6.2697 C.3       0 UNK        -0.1975 
      2 C         -47.2505  -30.8151    6.5000 C.2       0 UNK         0.4852 
      3 O         -47.6311  -30.5935    7.6486 O.2       0 UNK        -0.5216 
      4 N         -47.7888  -30.2466    5.4113 N.am      1 UNK        -0.4461 
      5 CA        -48.8278  -29.2078    5.3538 C.3       1 UNK         0.0864 
      6 C6        -50.0805  -29.5160    6.2216 C.3       14 UNK        -0.0898 
      7 S7        -51.6156  -28.8280    5.5136 S.3       14 UNK        -0.2598 
      8 C8        -52.8661  -29.4866    6.6625 C.3       14 UNK         0.0286 
      9 C9        -52.6984  -28.9213    8.0650 C.ar      14 UNK        -0.0844 
     10 C10       -53.1106  -27.6173    8.3525 C.ar      14 UNK        -0.0881 
     11 C11       -52.9320  -27.0819    9.6313 C.ar      14 UNK        -0.0643 
     12 C12       -52.3452  -27.8666   10.6294 C.ar      14 UNK        -0.0930 
     13 C13       -51.9399  -29.1752   10.3562 C.ar      14 UNK        -0.0827 
     14 C14       -52.1203  -29.6975    9.0729 C.ar      14 UNK        -0.1249 
     15 C15       -51.2707  -30.0195   11.4287 C.3       14 UNK         0.0141 
     16 S16       -52.4385  -31.1735   12.2123 S.3       14 UNK        -0.2313 
     17 C17       -53.1106  -30.1989   13.5996 C.3       14 UNK        -0.0915 
     18 CA        -54.6595  -30.1155   13.5598 C.3       13 UNK         0.0968 
     19 C         -55.2704  -29.8468   14.9679 C.2       13 UNK         0.5732 
     20 N         -56.1447  -28.8659   15.1596 N.am      13 UNK        -0.7310 
     21 O         -54.9615  -30.5659   15.9151 O.2       13 UNK        -0.5035 
     22 N         -55.1117  -29.1714   12.5290 N.am      13 UNK        -0.4233 
     23 C         -56.2319  -29.3063   11.8086 C.2       13 UNK         0.4989 
     24 O         -56.9558  -30.3030   11.8541 O.2       13 UNK        -0.4996 
     25 CA        -56.6167  -28.1230   10.8925 C.3       12 UNK         0.0216 
     26 CB        -58.1159  -28.1194   10.5246 C.3       12 UNK        -0.1964 
     27 N         -56.2187  -26.8083   11.4174 N.am      12 UNK        -0.4276 
     28 C         -56.5397  -26.2768   12.6060 C.2       12 UNK         0.5020 
     29 O         -57.2608  -26.8258   13.4412 O.2       12 UNK        -0.5489 
     30 CA        -55.9024  -24.9161   12.9406 C.3       11 UNK         0.0294 
     31 CB        -56.9873  -23.8501   13.1652 C.3       11 UNK        -0.2019 
     32 N         -55.0369  -24.9824   14.1236 N.am      11 UNK        -0.4493 
     33 C         -54.0181  -25.8335   14.3115 C.2       11 UNK         0.4932 
     34 O         -53.6568  -26.6757   13.4842 O.2       11 UNK        -0.5029 
     35 CA        -53.2902  -25.7307   15.6579 C.3       10 UNK         0.0280 
     36 CB        -54.1930  -26.1823   16.8230 C.3       10 UNK        -0.1976 
     37 N         -52.0916  -26.5614   15.6067 N.am      10 UNK        -0.4242 
     38 C         -51.0272  -26.4671   16.4109 C.2       10 UNK         0.5072 
     39 O         -50.9259  -25.6391   17.3180 O.2       10 UNK        -0.5224 
     40 CA        -49.8909  -27.4804   16.1967 C.3       9 UNK         0.0343 
     41 CB        -50.2925  -28.7121   15.3614 C.3       9 UNK        -0.2003 
     42 N         -48.7649  -26.8132   15.5499 N.am      9 UNK        -0.4272 
     43 C         -47.6389  -26.4338   16.1670 C.2       9 UNK         0.4988 
     44 O         -47.4025  -26.6298   17.3603 O.2       9 UNK        -0.5108 
     45 CA        -46.5817  -25.7276   15.3025 C.3       8 UNK         0.0248 
     46 CB        -45.8109  -26.7491   14.4503 C.3       8 UNK        -0.2001 
     47 N         -47.1451  -24.6847   14.4415 N.am      8 UNK        -0.4140 
     48 C         -47.6649  -23.5318   14.8898 C.2       8 UNK         0.5028 
     49 O         -47.6961  -23.2083   16.0779 O.2       8 UNK        -0.5428 
     50 CA        -48.2402  -22.5665   13.8397 C.3       7 UNK         0.0264 
     51 CB        -47.1201  -21.7402   13.1870 C.3       7 UNK        -0.1988 
     52 N         -49.0087  -23.2518   12.8012 N.am      7 UNK        -0.4454 
     53 C         -50.1904  -23.8552   12.9957 C.2       7 UNK         0.5027 
     54 O         -50.8047  -23.8328   14.0613 O.2       7 UNK        -0.5083 
     55 CA        -50.7780  -24.6271   11.7983 C.3       6 UNK         0.0844 
     56 C56       -51.5970  -23.6796   10.8859 C.3       14 UNK        -0.0967 
     57 S57       -52.1652  -24.4437    9.3282 S.3       14 UNK        -0.2604 
     58 C58       -53.3774  -25.6581    9.9235 C.3       14 UNK         0.0134 
     59 N         -49.7455  -25.3679   11.0710 N.am      6 UNK        -0.4116 
     60 C         -49.0311  -26.3845   11.5705 C.2       5 UNK         0.5034 
     61 O         -49.1763  -26.8386   12.7049 O.2       5 UNK        -0.5045 
     62 CA        -47.9331  -26.9548   10.6632 C.3       5 UNK         0.0224 
     63 CB        -48.5204  -27.9698    9.6731 C.3       5 UNK        -0.1978 
     64 N         -47.2378  -25.8964    9.9282 N.am      5 UNK        -0.4737 
     65 C         -46.4116  -25.0085   10.5006 C.2       4 UNK         0.5027 
     66 O         -46.1231  -25.0203   11.6963 O.2       4 UNK        -0.5211 
     67 CA        -45.8549  -23.8874    9.6059 C.3       4 UNK         0.0297 
     68 CB        -44.5896  -24.3604    8.8735 C.3       4 UNK        -0.1993 
     69 N         -46.8318  -23.3986    8.6309 N.am      4 UNK        -0.4486 
     70 C         -48.0075  -22.8371    8.9453 C.2       3 UNK         0.4961 
     71 O         -48.3577  -22.5904   10.0987 O.2       3 UNK        -0.5105 
     72 CA        -48.9770  -22.5331    7.7902 C.3       3 UNK         0.0299 
     73 CB        -48.8779  -21.0533    7.3885 C.3       3 UNK        -0.1972 
     74 N         -48.8043  -23.3735    6.5982 N.am      3 UNK        -0.4305 
     75 C         -48.8830  -24.7126    6.5597 C.2       2 UNK         0.5006 
     76 O         -49.0477  -25.4147    7.5587 O.2       2 UNK        -0.5106 
     77 CA        -48.7570  -25.3412    5.1598 C.3       2 UNK         0.0296 
     78 CB        -47.4060  -25.0010    4.4905 C.3       2 UNK        -0.2002 
     79 N         -49.0182  -26.7870    5.1357 N.am      2 UNK        -0.4032 
     80 C         -48.2562  -27.7905    5.5978 C.2       1 UNK         0.5000 
     81 O         -47.1544  -27.6384    6.1338 O.2       1 UNK        -0.5238 
     82 H82       -45.2128  -31.4588    6.7729 H         1 UNK         0.0889 
     83 H83       -45.8878  -31.9268    5.2112 H         1 UNK         0.0889 
     84 H84       -46.3808  -32.7794    6.6753 H         1 UNK         0.0889 
     85 H85       -47.3944  -30.4835    4.5116 H         1 UNK         0.3028 
     86 H86       -49.1389  -29.2275    4.3077 H         1 UNK         0.0864 
     87 H87       -49.9491  -29.1512    7.2418 H         1 UNK         0.0720 
     88 H88       -50.2244  -30.5945    6.3035 H         1 UNK         0.0720 
     89 H89       -52.8103  -30.5763    6.6740 H         1 UNK         0.0814 
     90 H90       -53.8594  -29.2366    6.2870 H         1 UNK         0.0814 
     91 H91       -53.5513  -27.0105    7.5733 H         1 UNK         0.1469 
     92 H92       -52.1898  -27.4604   11.6171 H         1 UNK         0.1381 
     93 H93       -51.7952  -30.7059    8.8562 H         1 UNK         0.1206 
     94 H94       -50.4689  -30.6031   10.9742 H         1 UNK         0.0813 
     95 H95       -50.7903  -29.3902   12.1783 H         1 UNK         0.0813 
     96 H96       -52.6780  -29.1991   13.6078 H         1 UNK         0.0638 
     97 H97       -52.7613  -30.6888   14.5099 H         1 UNK         0.0638 
     98 H98       -55.0264  -31.1098   13.2986 H         1 UNK         0.0568 
     99 H99       -56.4479  -28.2579   14.4042 H         1 UNK         0.3450 
    100 H100      -56.5323  -28.7385   16.0797 H         1 UNK         0.3450 
    101 H101      -54.5975  -28.2998   12.4852 H         1 UNK         0.2987 
    102 H102      -56.0502  -28.2675    9.9710 H         1 UNK         0.0766 
    103 H103      -58.3984  -29.0408   10.0136 H         1 UNK         0.0798 
    104 H104      -58.3587  -27.2940    9.8554 H         1 UNK         0.0798 
    105 H105      -58.7472  -28.0307   11.4094 H         1 UNK         0.0798 
    106 H106      -55.6049  -26.2806   10.8156 H         1 UNK         0.3198 
    107 H107      -55.2878  -24.5883   12.1020 H         1 UNK         0.0843 
    108 H108      -57.6176  -24.0901   14.0227 H         1 UNK         0.0831 
    109 H109      -57.6406  -23.7693   12.2952 H         1 UNK         0.0831 
    110 H110      -56.5511  -22.8652   13.3330 H         1 UNK         0.0831 
    111 H111      -55.2675  -24.3479   14.8742 H         1 UNK         0.3133 
    112 H112      -52.9943  -24.6894   15.8008 H         1 UNK         0.0566 
    113 H113      -54.4582  -27.2362   16.7375 H         1 UNK         0.0814 
    114 H114      -55.1221  -25.6126   16.8569 H         1 UNK         0.0814 
    115 H115      -53.6994  -26.0429   17.7847 H         1 UNK         0.0814 
    116 H116      -52.0837  -27.2155   14.8349 H         1 UNK         0.3091 
    117 H117      -49.6035  -27.8416   17.1862 H         1 UNK         0.0702 
    118 H118      -49.4786  -29.4362   15.3214 H         1 UNK         0.0785 
    119 H119      -50.5401  -28.4466   14.3347 H         1 UNK         0.0785 
    120 H120      -51.1517  -29.2218   15.7991 H         1 UNK         0.0785 
    121 H121      -48.8702  -26.6254   14.5553 H         1 UNK         0.2998 
    122 H122      -45.8684  -25.2500   15.9778 H         1 UNK         0.0697 
    123 H123      -44.9907  -26.2757   13.9104 H         1 UNK         0.0825 
    124 H124      -46.4571  -27.2340   13.7178 H         1 UNK         0.0825 
    125 H125      -45.3782  -27.5323   15.0742 H         1 UNK         0.0825 
    126 H126      -47.0821  -24.8384   13.4393 H         1 UNK         0.3029 
    127 H127      -48.9137  -21.8787   14.3559 H         1 UNK         0.0897 
    128 H128      -46.4200  -22.3707   12.6379 H         1 UNK         0.0792 
    129 H129      -46.5488  -21.1943   13.9389 H         1 UNK         0.0792 
    130 H130      -47.5245  -21.0061   12.4896 H         1 UNK         0.0792 
    131 H131      -48.6222  -23.2361   11.8597 H         1 UNK         0.3086 
    132 H132      -51.4634  -25.3663   12.2147 H         1 UNK         0.0583 
    133 H133      -52.4657  -23.2944   11.4238 H         1 UNK         0.1020 
    134 H134      -51.0056  -22.8033   10.6136 H         1 UNK         0.1020 
    135 H135      -53.5372  -25.5300   10.9927 H         1 UNK         0.0694 
    136 H136      -54.3332  -25.4620    9.4360 H         1 UNK         0.0694 
    137 H137      -49.5733  -25.0795   10.1174 H         1 UNK         0.2989 
    138 H138      -47.2038  -27.4693   11.2925 H         1 UNK         0.1055 
    139 H139      -47.7713  -28.2993    8.9537 H         1 UNK         0.0806 
    140 H140      -49.3610  -27.5582    9.1122 H         1 UNK         0.0806 
    141 H141      -48.8809  -28.8564   10.1932 H         1 UNK         0.0806 
    142 H142      -47.4932  -25.7815    8.9528 H         1 UNK         0.3061 
    143 H143      -45.5849  -23.0507   10.2535 H         1 UNK         0.0734 
    144 H144      -44.8017  -25.1822    8.1881 H         1 UNK         0.0832 
    145 H145      -44.1355  -23.5518    8.3006 H         1 UNK         0.0832 
    146 H146      -43.8396  -24.7135    9.5828 H         1 UNK         0.0832 
    147 H147      -46.6308  -23.5649    7.6560 H         1 UNK         0.3156 
    148 H148      -49.9856  -22.7134    8.1652 H         1 UNK         0.0589 
    149 H149      -49.6374  -20.7885    6.6525 H         1 UNK         0.0808 
    150 H150      -47.9008  -20.8131    6.9674 H         1 UNK         0.0808 
    151 H151      -49.0287  -20.4037    8.2522 H         1 UNK         0.0808 
    152 H152      -48.6686  -22.8804    5.7274 H         1 UNK         0.3098 
    153 H153      -49.5480  -24.8979    4.5529 H         1 UNK         0.0720 
    154 H154      -47.3086  -23.9305    4.3080 H         1 UNK         0.0791 
    155 H155      -47.3068  -25.4969    3.5248 H         1 UNK         0.0791 
    156 H156      -46.5578  -25.3002    5.1073 H         1 UNK         0.0791 
    157 H157      -49.9289  -27.0432    4.7776 H         1 UNK         0.3028 
@<TRIPOS>BOND
     1    1    2 1    
     2    1   82 1    
     3    1   83 1    
     4    1   84 1    
     5    2    3 2    
     6    2    4 am   BACKBONE|DICT|INTERRES
     7    4    5 1    
     8    4   85 1    
     9    5    6 1    
    10    5   80 1    
    11    5   86 1    
    12    6    7 1    
    13    6   87 1    
    14    6   88 1    
    15    7    8 1    
    16    8    9 1    
    17    8   89 1    
    18    8   90 1    
    19    9   10 ar   
    20    9   14 ar   
    21   10   11 ar   
    22   10   91 1    
    23   11   12 ar   
    24   11   58 1    
    25   12   13 ar   
    26   12   92 1    
    27   13   14 ar   
    28   13   15 1    
    29   14   93 1    
    30   15   16 1    
    31   15   94 1    
    32   15   95 1    
    33   16   17 1    
    34   17   18 1    
    35   17   96 1    
    36   17   97 1    
    37   18   19 1    
    38   18   22 1    
    39   18   98 1    
    40   19   20 am   BACKBONE|DICT|INTERRES
    41   19   21 2    
    42   20   99 1    
    43   20  100 1    
    44   22   23 am   BACKBONE|DICT|INTERRES
    45   22  101 1    
    46   23   24 2    
    47   23   25 1    
    48   25   26 1    
    49   25   27 1    
    50   25  102 1    
    51   26  103 1    
    52   26  104 1    
    53   26  105 1    
    54   27   28 am   BACKBONE|DICT|INTERRES
    55   27  106 1    
    56   28   29 2    
    57   28   30 1    
    58   30   31 1    
    59   30   32 1    
    60   30  107 1    
    61   31  108 1    
    62   31  109 1    
    63   31  110 1    
    64   32   33 am   BACKBONE|DICT|INTERRES
    65   32  111 1    
    66   33   34 2    
    67   33   35 1    
    68   35   36 1    
    69   35   37 1    
    70   35  112 1    
    71   36  113 1    
    72   36  114 1    
    73   36  115 1    
    74   37   38 am   BACKBONE|DICT|INTERRES
    75   37  116 1    
    76   38   39 2    
    77   38   40 1    
    78   40   41 1    
    79   40   42 1    
    80   40  117 1    
    81   41  118 1    
    82   41  119 1    
    83   41  120 1    
    84   42   43 am   BACKBONE|DICT|INTERRES
    85   42  121 1    
    86   43   44 2    
    87   43   45 1    
    88   45   46 1    
    89   45   47 1    
    90   45  122 1    
    91   46  123 1    
    92   46  124 1    
    93   46  125 1    
    94   47   48 am   BACKBONE|DICT|INTERRES
    95   47  126 1    
    96   48   49 2    
    97   48   50 1    
    98   50   51 1    
    99   50   52 1    
   100   50  127 1    
   101   51  128 1    
   102   51  129 1    
   103   51  130 1    
   104   52   53 am   BACKBONE|DICT|INTERRES
   105   52  131 1    
   106   53   54 2    
   107   53   55 1    
   108   55   56 1    
   109   55   59 1    
   110   55  132 1    
   111   56   57 1    
   112   56  133 1    
   113   56  134 1    
   114   57   58 1    
   115   58  135 1    
   116   58  136 1    
   117   59   60 am   BACKBONE|DICT|INTERRES
   118   59  137 1    
   119   60   61 2    
   120   60   62 1    
   121   62   63 1    
   122   62   64 1    
   123   62  138 1    
   124   63  139 1    
   125   63  140 1    
   126   63  141 1    
   127   64   65 am   BACKBONE|DICT|INTERRES
   128   64  142 1    
   129   65   66 2    
   130   65   67 1    
   131   67   68 1    
   132   67   69 1    
   133   67  143 1    
   134   68  144 1    
   135   68  145 1    
   136   68  146 1    
   137   69   70 am   BACKBONE|DICT|INTERRES
   138   69  147 1    
   139   70   71 2    
   140   70   72 1    
   141   72   73 1    
   142   72   74 1    
   143   72  148 1    
   144   73  149 1    
   145   73  150 1    
   146   73  151 1    
   147   74   75 am   BACKBONE|DICT|INTERRES
   148   74  152 1    
   149   75   76 2    
   150   75   77 1    
   151   77   78 1    
   152   77   79 1    
   153   77  153 1    
   154   78  154 1    
   155   78  155 1    
   156   78  156 1    
   157   79   80 am   BACKBONE|DICT|INTERRES
   158   79  157 1    
   159   80   81 2    
@<TRIPOS>SUBSTRUCTURE
     1 UNK         1 GROUP             0       ****    0 ROOT    
