@<TRIPOS>MOLECULE
3R207
157   159    1
SMALL
USER_CHARGES


@<TRIPOS>ATOM
      1 CA        -51.3351  -27.6691   10.5435 C.3       0 UNK        -0.1975 
      2 C         -50.5385  -28.7433    9.8248 C.2       0 UNK         0.4852 
      3 O         -50.0667  -29.6884   10.4560 O.2       0 UNK        -0.5216 
      4 N         -50.3672  -28.5869    8.5075 N.am      1 UNK        -0.4461 
      5 CA        -49.5454  -29.4460    7.6503 C.3       1 UNK         0.0864 
      6 C6        -49.8975  -29.2820    6.1496 C.3       14 UNK        -0.0898 
      7 S7        -49.9831  -27.5498    5.5703 S.3       14 UNK        -0.2598 
      8 C8        -51.7366  -27.3731    5.1030 C.3       14 UNK         0.0286 
      9 C9        -52.6303  -27.0217    6.2868 C.ar      14 UNK        -0.0844 
     10 C10       -52.9736  -25.6903    6.5366 C.ar      14 UNK        -0.0881 
     11 C11       -53.8394  -25.3575    7.5850 C.ar      14 UNK        -0.0643 
     12 C12       -54.3555  -26.3761    8.3934 C.ar      14 UNK        -0.0930 
     13 C13       -54.0178  -27.7162    8.1612 C.ar      14 UNK        -0.0827 
     14 C14       -53.1643  -28.0266    7.0973 C.ar      14 UNK        -0.1249 
     15 C15       -54.5919  -28.8610    8.9958 C.3       14 UNK         0.0141 
     16 S16       -54.9737  -28.4473   10.7336 S.3       14 UNK        -0.2313 
     17 C17       -55.5746  -30.0717   11.3170 C.3       14 UNK        -0.0915 
     18 CA        -54.8352  -30.6409   12.5578 C.3       13 UNK         0.0968 
     19 C         -53.3139  -30.8651   12.3202 C.2       13 UNK         0.5732 
     20 N         -52.4166  -30.2764   13.1018 N.am      13 UNK        -0.7310 
     21 O         -52.9447  -31.6068   11.4134 O.2       13 UNK        -0.5035 
     22 N         -55.1870  -29.9026   13.7810 N.am      13 UNK        -0.4233 
     23 C         -55.2735  -30.4612   14.9949 C.2       13 UNK         0.4989 
     24 O         -54.9930  -31.6376   15.2326 O.2       13 UNK        -0.4996 
     25 CA        -55.7959  -29.5509   16.1168 C.3       12 UNK         0.0216 
     26 CB        -56.7381  -30.2860   17.0946 C.3       12 UNK        -0.1964 
     27 N         -54.7026  -28.8672   16.8116 N.am      12 UNK        -0.4276 
     28 C         -53.7766  -29.3755   17.6422 C.2       12 UNK         0.5020 
     29 O         -53.7369  -30.5546   17.9954 O.2       12 UNK        -0.5489 
     30 CA        -52.7082  -28.4064   18.1923 C.3       11 UNK         0.0294 
     31 CB        -51.2912  -28.9907   18.0449 C.3       11 UNK        -0.2019 
     32 N         -52.7543  -27.0942   17.5413 N.am      11 UNK        -0.4493 
     33 C         -53.4809  -26.0496   17.9684 C.2       11 UNK         0.4932 
     34 O         -54.1224  -26.0513   19.0188 O.2       11 UNK        -0.5029 
     35 CA        -53.5367  -24.8008   17.0647 C.3       10 UNK         0.0280 
     36 CB        -52.5720  -23.7219   17.5824 C.3       10 UNK        -0.1976 
     37 N         -53.2377  -25.0727   15.6561 N.am      10 UNK        -0.4242 
     38 C         -53.9486  -25.8718   14.8464 C.2       10 UNK         0.5072 
     39 O         -55.0029  -26.4162   15.1736 O.2       10 UNK        -0.5224 
     40 CA        -53.3354  -26.1878   13.4717 C.3       9 UNK         0.0343 
     41 CB        -53.9509  -25.2964   12.3820 C.3       9 UNK        -0.2003 
     42 N         -51.8679  -26.0856   13.4581 N.am      9 UNK        -0.4272 
     43 C         -51.0622  -26.9090   14.1520 C.2       9 UNK         0.4988 
     44 O         -51.5025  -27.7964   14.8833 O.2       9 UNK        -0.5108 
     45 CA        -49.5344  -26.7373   14.0468 C.3       8 UNK         0.0248 
     46 CB        -48.8662  -28.0403   13.5780 C.3       8 UNK        -0.2001 
     47 N         -49.1236  -25.6430   13.1637 N.am      8 UNK        -0.4140 
     48 C         -48.8970  -24.3856   13.5660 C.2       8 UNK         0.5028 
     49 O         -48.9822  -24.0131   14.7368 O.2       8 UNK        -0.5428 
     50 CA        -48.5478  -23.3583   12.4710 C.3       7 UNK         0.0264 
     51 CB        -47.0295  -23.3168   12.2443 C.3       7 UNK        -0.1988 
     52 N         -49.2257  -23.5669   11.1827 N.am      7 UNK        -0.4454 
     53 C         -50.5537  -23.6595   11.0144 C.2       7 UNK         0.5027 
     54 O         -51.3408  -23.6570   11.9592 O.2       7 UNK        -0.5083 
     55 CA        -51.1264  -23.7666    9.5839 C.3       6 UNK         0.0844 
     56 C56       -52.2570  -22.7252    9.3800 C.3       14 UNK        -0.0967 
     57 S57       -52.9443  -22.6928    7.6894 S.3       14 UNK        -0.2604 
     58 C58       -54.2943  -23.9153    7.7956 C.3       14 UNK         0.0134 
     59 N         -50.1158  -23.6946    8.5271 N.am      6 UNK        -0.4116 
     60 C         -49.2838  -24.6762    8.1671 C.2       5 UNK         0.5034 
     61 O         -49.1394  -25.7229    8.8008 O.2       5 UNK        -0.5045 
     62 CA        -48.4955  -24.4583    6.8669 C.3       5 UNK         0.0224 
     63 CB        -49.3154  -23.7533    5.7634 C.3       5 UNK        -0.1978 
     64 N         -47.2081  -23.7951    7.0777 N.am      5 UNK        -0.4737 
     65 C         -46.9633  -22.5640    7.5514 C.2       4 UNK         0.5027 
     66 O         -47.8434  -21.7856    7.9207 O.2       4 UNK        -0.5211 
     67 CA        -45.4827  -22.1191    7.5813 C.3       4 UNK         0.0297 
     68 CB        -45.1929  -21.0662    8.6733 C.3       4 UNK        -0.1993 
     69 N         -44.5411  -23.2485    7.6442 N.am      4 UNK        -0.4486 
     70 C         -44.4081  -24.1151    8.6571 C.2       3 UNK         0.4961 
     71 O         -44.9444  -23.9873    9.7585 O.2       3 UNK        -0.5105 
     72 CA        -43.5790  -25.3791    8.3730 C.3       3 UNK         0.0299 
     73 CB        -42.2215  -25.3179    9.0908 C.3       3 UNK        -0.1972 
     74 N         -44.3196  -26.5608    8.8210 N.am      3 UNK        -0.4305 
     75 C         -45.4869  -26.9615    8.2965 C.2       2 UNK         0.5006 
     76 O         -45.9404  -26.5215    7.2370 O.2       2 UNK        -0.5106 
     77 CA        -46.2737  -27.9976    9.1142 C.3       2 UNK         0.0296 
     78 CB        -46.4520  -27.5396   10.5760 C.3       2 UNK        -0.2002 
     79 N         -47.6093  -28.2082    8.5574 N.am      2 UNK        -0.4032 
     80 C         -48.0293  -29.3168    7.9336 C.2       1 UNK         0.5000 
     81 O         -47.2843  -30.2515    7.6293 O.2       1 UNK        -0.5238 
     82 H82       -51.9507  -27.0952    9.8545 H         1 UNK         0.0889 
     83 H83       -50.6563  -26.9789   11.0383 H         1 UNK         0.0889 
     84 H84       -51.9890  -28.1148   11.2912 H         1 UNK         0.0889 
     85 H85       -50.7671  -27.7817    8.0432 H         1 UNK         0.3028 
     86 H86       -49.7949  -30.4758    7.9158 H         1 UNK         0.0864 
     87 H87       -49.1816  -29.8180    5.5236 H         1 UNK         0.0720 
     88 H88       -50.8544  -29.7675    5.9574 H         1 UNK         0.0720 
     89 H89       -51.8088  -26.5913    4.3455 H         1 UNK         0.0814 
     90 H90       -52.0905  -28.2839    4.6177 H         1 UNK         0.0814 
     91 H91       -52.5911  -24.9106    5.8931 H         1 UNK         0.1469 
     92 H92       -55.0430  -26.1242    9.1885 H         1 UNK         0.1381 
     93 H93       -52.9200  -29.0600    6.8938 H         1 UNK         0.1206 
     94 H94       -55.5012  -29.2167    8.5097 H         1 UNK         0.0813 
     95 H95       -53.8895  -29.6966    8.9981 H         1 UNK         0.0813 
     96 H96       -56.6393  -29.9751   11.5347 H         1 UNK         0.0638 
     97 H97       -55.5169  -30.7942   10.5011 H         1 UNK         0.0638 
     98 H98       -55.2321  -31.6504   12.6830 H         1 UNK         0.0568 
     99 H99       -52.6886  -29.6662   13.8565 H         1 UNK         0.3450 
    100 H100      -51.4403  -30.4357   12.9123 H         1 UNK         0.3450 
    101 H101      -55.4136  -28.9261   13.6610 H         1 UNK         0.2987 
    102 H102      -56.3893  -28.7632   15.6494 H         1 UNK         0.0766 
    103 H103      -57.1166  -29.6116   17.8626 H         1 UNK         0.0798 
    104 H104      -57.6007  -30.6927   16.5655 H         1 UNK         0.0798 
    105 H105      -56.2477  -31.1215   17.5947 H         1 UNK         0.0798 
    106 H106      -54.6168  -27.8863   16.5674 H         1 UNK         0.3198 
    107 H107      -52.9073  -28.2880   19.2595 H         1 UNK         0.0843 
    108 H108      -51.1861  -29.9088   18.6242 H         1 UNK         0.0831 
    109 H109      -50.5331  -28.2950   18.4048 H         1 UNK         0.0831 
    110 H110      -51.0585  -29.2364   17.0086 H         1 UNK         0.0831 
    111 H111      -52.2784  -27.0367   16.6469 H         1 UNK         0.3133 
    112 H112      -54.5535  -24.4061   17.1160 H         1 UNK         0.0566 
    113 H113      -51.5328  -24.0497   17.5293 H         1 UNK         0.0814 
    114 H114      -52.7833  -23.4760   18.6241 H         1 UNK         0.0814 
    115 H115      -52.6631  -22.7987   17.0096 H         1 UNK         0.0814 
    116 H116      -52.3855  -24.6732   15.2892 H         1 UNK         0.3091 
    117 H117      -53.5893  -27.2228   13.2351 H         1 UNK         0.0702 
    118 H118      -53.5221  -25.5090   11.4027 H         1 UNK         0.0785 
    119 H119      -53.8058  -24.2368   12.5941 H         1 UNK         0.0785 
    120 H120      -55.0257  -25.4664   12.3061 H         1 UNK         0.0785 
    121 H121      -51.4747  -25.3153   12.9247 H         1 UNK         0.2998 
    122 H122      -49.1772  -26.5371   15.0592 H         1 UNK         0.0697 
    123 H123      -49.1765  -28.3182   12.5722 H         1 UNK         0.0825 
    124 H124      -49.1205  -28.8722   14.2364 H         1 UNK         0.0825 
    125 H125      -47.7798  -27.9507   13.5822 H         1 UNK         0.0825 
    126 H126      -49.0267  -25.8528   12.1812 H         1 UNK         0.3029 
    127 H127      -48.8627  -22.3801   12.8404 H         1 UNK         0.0897 
    128 H128      -46.7521  -22.5329   11.5394 H         1 UNK         0.0792 
    129 H129      -46.4992  -23.1150   13.1759 H         1 UNK         0.0792 
    130 H130      -46.6543  -24.2641   11.8552 H         1 UNK         0.0792 
    131 H131      -48.6435  -23.5786   10.3570 H         1 UNK         0.3086 
    132 H132      -51.5859  -24.7540    9.5174 H         1 UNK         0.0583 
    133 H133      -53.0702  -22.8967   10.0883 H         1 UNK         0.1020 
    134 H134      -51.8860  -21.7211    9.5957 H         1 UNK         0.1020 
    135 H135      -54.8126  -23.8023    8.7490 H         1 UNK         0.0694 
    136 H136      -55.0271  -23.6797    7.0229 H         1 UNK         0.0694 
    137 H137      -50.1114  -22.8474    7.9764 H         1 UNK         0.2989 
    138 H138      -48.2531  -25.4544    6.4968 H         1 UNK         0.1055 
    139 H139      -50.2686  -24.2586    5.6049 H         1 UNK         0.0806 
    140 H140      -48.7836  -23.7725    4.8122 H         1 UNK         0.0806 
    141 H141      -49.5316  -22.7109    5.9977 H         1 UNK         0.0806 
    142 H142      -46.4094  -24.3885    6.8854 H         1 UNK         0.3061 
    143 H143      -45.3040  -21.6389    6.6181 H         1 UNK         0.0734 
    144 H144      -45.7773  -20.1608    8.5052 H         1 UNK         0.0832 
    145 H145      -45.4458  -21.4294    9.6693 H         1 UNK         0.0832 
    146 H146      -44.1424  -20.7760    8.6775 H         1 UNK         0.0832 
    147 H147      -44.0450  -23.4448    6.7847 H         1 UNK         0.3156 
    148 H148      -43.4036  -25.4699    7.2989 H         1 UNK         0.0589 
    149 H149      -42.3389  -25.2299   10.1719 H         1 UNK         0.0808 
    150 H150      -41.6239  -26.2070    8.8884 H         1 UNK         0.0808 
    151 H151      -41.6430  -24.4560    8.7556 H         1 UNK         0.0808 
    152 H152      -44.0291  -26.9595    9.7015 H         1 UNK         0.3098 
    153 H153      -45.7047  -28.9294    9.1059 H         1 UNK         0.0720 
    154 H154      -47.0656  -28.2475   11.1331 H         1 UNK         0.0791 
    155 H155      -45.4990  -27.4684   11.1006 H         1 UNK         0.0791 
    156 H156      -46.9340  -26.5623   10.6341 H         1 UNK         0.0791 
    157 H157      -48.2652  -27.4408    8.6782 H         1 UNK         0.3028 
@<TRIPOS>BOND
     1    1    2 1    
     2    1   82 1    
     3    1   83 1    
     4    1   84 1    
     5    2    3 2    
     6    2    4 am   BACKBONE|DICT|INTERRES
     7    4    5 1    
     8    4   85 1    
     9    5    6 1    
    10    5   80 1    
    11    5   86 1    
    12    6    7 1    
    13    6   87 1    
    14    6   88 1    
    15    7    8 1    
    16    8    9 1    
    17    8   89 1    
    18    8   90 1    
    19    9   10 ar   
    20    9   14 ar   
    21   10   11 ar   
    22   10   91 1    
    23   11   12 ar   
    24   11   58 1    
    25   12   13 ar   
    26   12   92 1    
    27   13   14 ar   
    28   13   15 1    
    29   14   93 1    
    30   15   16 1    
    31   15   94 1    
    32   15   95 1    
    33   16   17 1    
    34   17   18 1    
    35   17   96 1    
    36   17   97 1    
    37   18   19 1    
    38   18   22 1    
    39   18   98 1    
    40   19   20 am   BACKBONE|DICT|INTERRES
    41   19   21 2    
    42   20   99 1    
    43   20  100 1    
    44   22   23 am   BACKBONE|DICT|INTERRES
    45   22  101 1    
    46   23   24 2    
    47   23   25 1    
    48   25   26 1    
    49   25   27 1    
    50   25  102 1    
    51   26  103 1    
    52   26  104 1    
    53   26  105 1    
    54   27   28 am   BACKBONE|DICT|INTERRES
    55   27  106 1    
    56   28   29 2    
    57   28   30 1    
    58   30   31 1    
    59   30   32 1    
    60   30  107 1    
    61   31  108 1    
    62   31  109 1    
    63   31  110 1    
    64   32   33 am   BACKBONE|DICT|INTERRES
    65   32  111 1    
    66   33   34 2    
    67   33   35 1    
    68   35   36 1    
    69   35   37 1    
    70   35  112 1    
    71   36  113 1    
    72   36  114 1    
    73   36  115 1    
    74   37   38 am   BACKBONE|DICT|INTERRES
    75   37  116 1    
    76   38   39 2    
    77   38   40 1    
    78   40   41 1    
    79   40   42 1    
    80   40  117 1    
    81   41  118 1    
    82   41  119 1    
    83   41  120 1    
    84   42   43 am   BACKBONE|DICT|INTERRES
    85   42  121 1    
    86   43   44 2    
    87   43   45 1    
    88   45   46 1    
    89   45   47 1    
    90   45  122 1    
    91   46  123 1    
    92   46  124 1    
    93   46  125 1    
    94   47   48 am   BACKBONE|DICT|INTERRES
    95   47  126 1    
    96   48   49 2    
    97   48   50 1    
    98   50   51 1    
    99   50   52 1    
   100   50  127 1    
   101   51  128 1    
   102   51  129 1    
   103   51  130 1    
   104   52   53 am   BACKBONE|DICT|INTERRES
   105   52  131 1    
   106   53   54 2    
   107   53   55 1    
   108   55   56 1    
   109   55   59 1    
   110   55  132 1    
   111   56   57 1    
   112   56  133 1    
   113   56  134 1    
   114   57   58 1    
   115   58  135 1    
   116   58  136 1    
   117   59   60 am   BACKBONE|DICT|INTERRES
   118   59  137 1    
   119   60   61 2    
   120   60   62 1    
   121   62   63 1    
   122   62   64 1    
   123   62  138 1    
   124   63  139 1    
   125   63  140 1    
   126   63  141 1    
   127   64   65 am   BACKBONE|DICT|INTERRES
   128   64  142 1    
   129   65   66 2    
   130   65   67 1    
   131   67   68 1    
   132   67   69 1    
   133   67  143 1    
   134   68  144 1    
   135   68  145 1    
   136   68  146 1    
   137   69   70 am   BACKBONE|DICT|INTERRES
   138   69  147 1    
   139   70   71 2    
   140   70   72 1    
   141   72   73 1    
   142   72   74 1    
   143   72  148 1    
   144   73  149 1    
   145   73  150 1    
   146   73  151 1    
   147   74   75 am   BACKBONE|DICT|INTERRES
   148   74  152 1    
   149   75   76 2    
   150   75   77 1    
   151   77   78 1    
   152   77   79 1    
   153   77  153 1    
   154   78  154 1    
   155   78  155 1    
   156   78  156 1    
   157   79   80 am   BACKBONE|DICT|INTERRES
   158   79  157 1    
   159   80   81 2    
@<TRIPOS>SUBSTRUCTURE
     1 UNK         1 GROUP             0       ****    0 ROOT    
