@<TRIPOS>MOLECULE
3R207
157   159    1
SMALL
USER_CHARGES


@<TRIPOS>ATOM
      1 CA        -47.6566  -28.5804    2.1286 C.3       0 UNK        -0.1975 
      2 C         -48.0683  -27.7434    3.3298 C.2       0 UNK         0.4852 
      3 O         -47.2050  -27.1903    4.0118 O.2       0 UNK        -0.5216 
      4 N         -49.3826  -27.6228    3.5764 N.am      1 UNK        -0.4461 
      5 CA        -50.0036  -26.9395    4.7275 C.3       1 UNK         0.0864 
      6 C6        -49.7945  -27.7095    6.0618 C.3       14 UNK        -0.0898 
      7 S7        -50.4709  -29.4051    5.9812 S.3       14 UNK        -0.2598 
      8 C8        -51.6560  -29.4308    7.3750 C.3       14 UNK         0.0286 
      9 C9        -51.1155  -29.9447    8.7142 C.ar      14 UNK        -0.0844 
     10 C10       -49.7725  -30.2908    8.9241 C.ar      14 UNK        -0.0881 
     11 C11       -49.3478  -30.8071   10.1531 C.ar      14 UNK        -0.0643 
     12 C12       -50.2716  -30.9636   11.1909 C.ar      14 UNK        -0.0930 
     13 C13       -51.6130  -30.6192   11.0006 C.ar      14 UNK        -0.0827 
     14 C14       -52.0230  -30.1075    9.7659 C.ar      14 UNK        -0.1249 
     15 C15       -52.6331  -30.8354   12.1091 C.3       14 UNK         0.0141 
     16 S16       -52.6952  -29.4254   13.2545 S.3       14 UNK        -0.2313 
     17 C17       -54.2701  -29.7473   14.1140 C.3       14 UNK        -0.0915 
     18 CA        -55.4016  -28.8123   13.6069 C.3       13 UNK         0.0968 
     19 C         -56.8087  -29.2876   14.0809 C.2       13 UNK         0.5732 
     20 N         -57.6828  -28.4295   14.5948 N.am      13 UNK        -0.7310 
     21 O         -57.1277  -30.4689   13.9668 O.2       13 UNK        -0.5035 
     22 N         -55.1030  -27.4076   13.9203 N.am      13 UNK        -0.4233 
     23 C         -55.5363  -26.3458   13.2349 C.2       13 UNK         0.4989 
     24 O         -56.1892  -26.4201   12.1914 O.2       13 UNK        -0.4996 
     25 CA        -55.2352  -24.9752   13.8769 C.3       12 UNK         0.0216 
     26 CB        -55.7399  -23.7891   13.0291 C.3       12 UNK        -0.1964 
     27 N         -55.7462  -24.8769   15.2532 N.am      12 UNK        -0.4276 
     28 C         -57.0006  -25.1002   15.6759 C.2       12 UNK         0.5020 
     29 O         -57.9292  -25.4201   14.9322 O.2       12 UNK        -0.5489 
     30 CA        -57.2376  -25.0176   17.1954 C.3       11 UNK         0.0294 
     31 CB        -58.7051  -25.2785   17.5853 C.3       11 UNK        -0.2019 
     32 N         -56.3862  -25.9912   17.8795 N.am      11 UNK        -0.4493 
     33 C         -55.1447  -25.7469   18.3129 C.2       11 UNK         0.4932 
     34 O         -54.6310  -24.6268   18.2887 O.2       11 UNK        -0.5029 
     35 CA        -54.3169  -26.9460   18.8225 C.3       10 UNK         0.0280 
     36 CB        -54.9634  -28.3252   18.5486 C.3       10 UNK        -0.1976 
     37 N         -52.9469  -26.9107   18.2939 N.am      10 UNK        -0.4242 
     38 C         -52.5925  -26.8861   17.0004 C.2       10 UNK         0.5072 
     39 O         -53.3911  -26.9586   16.0635 O.2       10 UNK        -0.5224 
     40 CA        -51.0848  -26.7953   16.7132 C.3       9 UNK         0.0343 
     41 CB        -50.4745  -28.2036   16.6427 C.3       9 UNK        -0.2003 
     42 N         -50.7994  -26.0783   15.4665 N.am      9 UNK        -0.4272 
     43 C         -51.0273  -24.7678   15.2772 C.2       9 UNK         0.4988 
     44 O         -51.4676  -24.0260   16.1567 O.2       9 UNK        -0.5108 
     45 CA        -50.6918  -24.1503   13.9050 C.3       8 UNK         0.0248 
     46 CB        -49.5911  -23.0839   14.0403 C.3       8 UNK        -0.2001 
     47 N         -50.2705  -25.1424   12.9162 N.am      8 UNK        -0.4140 
     48 C         -51.1105  -25.8458   12.1432 C.2       8 UNK         0.5028 
     49 O         -52.3273  -25.6638   12.1249 O.2       8 UNK        -0.5428 
     50 CA        -50.5064  -26.9284   11.2295 C.3       7 UNK         0.0264 
     51 CB        -50.5770  -26.4976    9.7594 C.3       7 UNK        -0.1988 
     52 N         -49.1250  -27.2942   11.5550 N.am      7 UNK        -0.4454 
     53 C         -48.7555  -27.9288   12.6780 C.2       7 UNK         0.5027 
     54 O         -49.5394  -28.2343   13.5740 O.2       7 UNK        -0.5083 
     55 CA        -47.2540  -28.2148   12.8827 C.3       6 UNK         0.0844 
     56 C56       -46.8809  -29.6514   12.4400 C.3       14 UNK        -0.0967 
     57 S57       -46.7658  -29.8673   10.6265 S.3       14 UNK        -0.2604 
     58 C58       -47.9031  -31.2564   10.3257 C.3       14 UNK         0.0134 
     59 N         -46.3765  -27.2060   12.2835 N.am      6 UNK        -0.4116 
     60 C         -46.3997  -25.8911   12.5368 C.2       5 UNK         0.5034 
     61 O         -47.1543  -25.3626   13.3542 O.2       5 UNK        -0.5045 
     62 CA        -45.4628  -25.0009   11.7014 C.3       5 UNK         0.0224 
     63 CB        -44.2846  -25.7628   11.0510 C.3       5 UNK        -0.1978 
     64 N         -46.2026  -24.2454   10.6832 N.am      5 UNK        -0.4737 
     65 C         -46.9969  -24.7396    9.7210 C.2       4 UNK         0.5027 
     66 O         -47.2521  -25.9376    9.5849 O.2       4 UNK        -0.5211 
     67 CA        -47.6208  -23.7367    8.7335 C.3       4 UNK         0.0297 
     68 CB        -47.5033  -22.2537    9.1557 C.3       4 UNK        -0.1993 
     69 N         -47.1040  -23.9491    7.3792 N.am      4 UNK        -0.4486 
     70 C         -45.8331  -23.8186    6.9609 C.2       3 UNK         0.4961 
     71 O         -44.9078  -23.4430    7.6819 O.2       3 UNK        -0.5105 
     72 CA        -45.5208  -24.1618    5.4893 C.3       3 UNK         0.0299 
     73 CB        -44.7510  -25.4898    5.4061 C.3       3 UNK        -0.1972 
     74 N         -46.7099  -24.2404    4.6361 N.am      3 UNK        -0.4305 
     75 C         -47.4595  -23.1851    4.2775 C.2       2 UNK         0.5006 
     76 O         -47.1508  -22.0190    4.5264 O.2       2 UNK        -0.5106 
     77 CA        -48.7901  -23.4565    3.5449 C.3       2 UNK         0.0296 
     78 CB        -48.6561  -23.1233    2.0497 C.3       2 UNK        -0.2002 
     79 N         -49.3016  -24.8240    3.6836 N.am      2 UNK        -0.4032 
     80 C         -49.6065  -25.4456    4.8340 C.2       1 UNK         0.5000 
     81 O         -49.5400  -24.8944    5.9353 O.2       1 UNK        -0.5238 
     82 H82       -48.5176  -28.9973    1.6066 H         1 UNK         0.0889 
     83 H83       -47.0222  -29.4060    2.4496 H         1 UNK         0.0889 
     84 H84       -47.0926  -27.9714    1.4227 H         1 UNK         0.0889 
     85 H85       -50.0341  -28.0969    2.9660 H         1 UNK         0.3028 
     86 H86       -51.0758  -26.9275    4.5254 H         1 UNK         0.0864 
     87 H87       -50.2771  -27.1767    6.8800 H         1 UNK         0.0720 
     88 H88       -48.7351  -27.7654    6.3184 H         1 UNK         0.0720 
     89 H89       -52.4830  -30.0777    7.0787 H         1 UNK         0.0814 
     90 H90       -52.0892  -28.4395    7.5140 H         1 UNK         0.0814 
     91 H91       -49.0456  -30.1828    8.1324 H         1 UNK         0.1469 
     92 H92       -49.9529  -31.3678   12.1418 H         1 UNK         0.1381 
     93 H93       -53.0627  -29.8487    9.6174 H         1 UNK         0.1206 
     94 H94       -52.3955  -31.7420   12.6675 H         1 UNK         0.0813 
     95 H95       -53.6216  -30.9925   11.6745 H         1 UNK         0.0813 
     96 H96       -54.1137  -29.6095   15.1853 H         1 UNK         0.0638 
     97 H97       -54.5302  -30.7987   13.9803 H         1 UNK         0.0638 
     98 H98       -55.4320  -28.9076   12.5200 H         1 UNK         0.0568 
     99 H99       -58.5853  -28.7725   14.8812 H         1 UNK         0.3450 
    100 H100      -57.4942  -27.4353   14.6240 H         1 UNK         0.3450 
    101 H101      -54.5341  -27.2518   14.7528 H         1 UNK         0.2987 
    102 H102      -54.1491  -24.8973   13.9455 H         1 UNK         0.0766 
    103 H103      -55.4656  -22.8351   13.4790 H         1 UNK         0.0798 
    104 H104      -56.8241  -23.8069   12.9124 H         1 UNK         0.0798 
    105 H105      -55.3027  -23.8139   12.0300 H         1 UNK         0.0798 
    106 H106      -55.0482  -24.6909   15.9637 H         1 UNK         0.3198 
    107 H107      -56.9847  -24.0035   17.5130 H         1 UNK         0.0843 
    108 H108      -59.0339  -26.2752   17.2880 H         1 UNK         0.0831 
    109 H109      -59.3696  -24.5593   17.1046 H         1 UNK         0.0831 
    110 H110      -58.8520  -25.1840   18.6613 H         1 UNK         0.0831 
    111 H111      -56.7204  -26.9442   17.9006 H         1 UNK         0.3133 
    112 H112      -54.2351  -26.8243   19.9034 H         1 UNK         0.0566 
    113 H113      -54.3250  -29.1324   18.9078 H         1 UNK         0.0814 
    114 H114      -55.9184  -28.4281   19.0654 H         1 UNK         0.0814 
    115 H115      -55.1367  -28.4961   17.4850 H         1 UNK         0.0814 
    116 H116      -52.2175  -26.8229   18.9876 H         1 UNK         0.3091 
    117 H117      -50.6052  -26.2487   17.5279 H         1 UNK         0.0702 
    118 H118      -49.4021  -28.1642   16.4506 H         1 UNK         0.0785 
    119 H119      -50.9346  -28.7988   15.8524 H         1 UNK         0.0785 
    120 H120      -50.6174  -28.7422   17.5803 H         1 UNK         0.0785 
    121 H121      -50.4736  -26.6431   14.6903 H         1 UNK         0.2998 
    122 H122      -51.5953  -23.6519   13.5472 H         1 UNK         0.0697 
    123 H123      -48.6783  -23.4973   14.4701 H         1 UNK         0.0825 
    124 H124      -49.9144  -22.2702   14.6908 H         1 UNK         0.0825 
    125 H125      -49.3395  -22.6447   13.0747 H         1 UNK         0.0825 
    126 H126      -49.2796  -25.3550   12.8855 H         1 UNK         0.3029 
    127 H127      -51.1160  -27.8247   11.3471 H         1 UNK         0.0897 
    128 H128      -51.6122  -26.4066    9.4287 H         1 UNK         0.0792 
    129 H129      -50.0889  -27.2305    9.1193 H         1 UNK         0.0792 
    130 H130      -50.0950  -25.5351    9.5979 H         1 UNK         0.0792 
    131 H131      -48.4124  -27.0466   10.8740 H         1 UNK         0.3086 
    132 H132      -47.0844  -28.1576   13.9601 H         1 UNK         0.0583 
    133 H133      -45.9086  -29.9130   12.8604 H         1 UNK         0.1020 
    134 H134      -47.5785  -30.3752   12.8660 H         1 UNK         0.1020 
    135 H135      -47.5822  -31.7698    9.4180 H         1 UNK         0.0694 
    136 H136      -47.8155  -31.9917   11.1270 H         1 UNK         0.0694 
    137 H137      -45.7747  -27.5373   11.5435 H         1 UNK         0.2989 
    138 H138      -45.0420  -24.2711   12.3951 H         1 UNK         0.1055 
    139 H139      -43.7149  -26.3208   11.7955 H         1 UNK         0.0806 
    140 H140      -43.5917  -25.0687   10.5749 H         1 UNK         0.0806 
    141 H141      -44.6132  -26.4662   10.2849 H         1 UNK         0.0806 
    142 H142      -46.0768  -23.2432   10.7092 H         1 UNK         0.3061 
    143 H143      -48.6837  -23.9727    8.6854 H         1 UNK         0.0734 
    144 H144      -48.0298  -21.6087    8.4521 H         1 UNK         0.0832 
    145 H145      -47.9531  -22.0876   10.1356 H         1 UNK         0.0832 
    146 H146      -46.4697  -21.9096    9.2008 H         1 UNK         0.0832 
    147 H147      -47.7922  -24.2991    6.7185 H         1 UNK         0.3156 
    148 H148      -44.8767  -23.3714    5.0987 H         1 UNK         0.0589 
    149 H149      -45.3329  -26.3175    5.8141 H         1 UNK         0.0808 
    150 H150      -44.4921  -25.7374    4.3765 H         1 UNK         0.0808 
    151 H151      -43.8196  -25.4379    5.9715 H         1 UNK         0.0808 
    152 H152      -47.0164  -25.1750    4.3818 H         1 UNK         0.3098 
    153 H153      -49.5347  -22.7870    3.9803 H         1 UNK         0.0720 
    154 H154      -49.6127  -23.2129    1.5344 H         1 UNK         0.0791 
    155 H155      -47.9418  -23.7811    1.5526 H         1 UNK         0.0791 
    156 H156      -48.3095  -22.0987    1.9066 H         1 UNK         0.0791 
    157 H157      -49.3751  -25.3624    2.8326 H         1 UNK         0.3028 
@<TRIPOS>BOND
     1    1    2 1    
     2    1   82 1    
     3    1   83 1    
     4    1   84 1    
     5    2    3 2    
     6    2    4 am   BACKBONE|DICT|INTERRES
     7    4    5 1    
     8    4   85 1    
     9    5    6 1    
    10    5   80 1    
    11    5   86 1    
    12    6    7 1    
    13    6   87 1    
    14    6   88 1    
    15    7    8 1    
    16    8    9 1    
    17    8   89 1    
    18    8   90 1    
    19    9   10 ar   
    20    9   14 ar   
    21   10   11 ar   
    22   10   91 1    
    23   11   12 ar   
    24   11   58 1    
    25   12   13 ar   
    26   12   92 1    
    27   13   14 ar   
    28   13   15 1    
    29   14   93 1    
    30   15   16 1    
    31   15   94 1    
    32   15   95 1    
    33   16   17 1    
    34   17   18 1    
    35   17   96 1    
    36   17   97 1    
    37   18   19 1    
    38   18   22 1    
    39   18   98 1    
    40   19   20 am   BACKBONE|DICT|INTERRES
    41   19   21 2    
    42   20   99 1    
    43   20  100 1    
    44   22   23 am   BACKBONE|DICT|INTERRES
    45   22  101 1    
    46   23   24 2    
    47   23   25 1    
    48   25   26 1    
    49   25   27 1    
    50   25  102 1    
    51   26  103 1    
    52   26  104 1    
    53   26  105 1    
    54   27   28 am   BACKBONE|DICT|INTERRES
    55   27  106 1    
    56   28   29 2    
    57   28   30 1    
    58   30   31 1    
    59   30   32 1    
    60   30  107 1    
    61   31  108 1    
    62   31  109 1    
    63   31  110 1    
    64   32   33 am   BACKBONE|DICT|INTERRES
    65   32  111 1    
    66   33   34 2    
    67   33   35 1    
    68   35   36 1    
    69   35   37 1    
    70   35  112 1    
    71   36  113 1    
    72   36  114 1    
    73   36  115 1    
    74   37   38 am   BACKBONE|DICT|INTERRES
    75   37  116 1    
    76   38   39 2    
    77   38   40 1    
    78   40   41 1    
    79   40   42 1    
    80   40  117 1    
    81   41  118 1    
    82   41  119 1    
    83   41  120 1    
    84   42   43 am   BACKBONE|DICT|INTERRES
    85   42  121 1    
    86   43   44 2    
    87   43   45 1    
    88   45   46 1    
    89   45   47 1    
    90   45  122 1    
    91   46  123 1    
    92   46  124 1    
    93   46  125 1    
    94   47   48 am   BACKBONE|DICT|INTERRES
    95   47  126 1    
    96   48   49 2    
    97   48   50 1    
    98   50   51 1    
    99   50   52 1    
   100   50  127 1    
   101   51  128 1    
   102   51  129 1    
   103   51  130 1    
   104   52   53 am   BACKBONE|DICT|INTERRES
   105   52  131 1    
   106   53   54 2    
   107   53   55 1    
   108   55   56 1    
   109   55   59 1    
   110   55  132 1    
   111   56   57 1    
   112   56  133 1    
   113   56  134 1    
   114   57   58 1    
   115   58  135 1    
   116   58  136 1    
   117   59   60 am   BACKBONE|DICT|INTERRES
   118   59  137 1    
   119   60   61 2    
   120   60   62 1    
   121   62   63 1    
   122   62   64 1    
   123   62  138 1    
   124   63  139 1    
   125   63  140 1    
   126   63  141 1    
   127   64   65 am   BACKBONE|DICT|INTERRES
   128   64  142 1    
   129   65   66 2    
   130   65   67 1    
   131   67   68 1    
   132   67   69 1    
   133   67  143 1    
   134   68  144 1    
   135   68  145 1    
   136   68  146 1    
   137   69   70 am   BACKBONE|DICT|INTERRES
   138   69  147 1    
   139   70   71 2    
   140   70   72 1    
   141   72   73 1    
   142   72   74 1    
   143   72  148 1    
   144   73  149 1    
   145   73  150 1    
   146   73  151 1    
   147   74   75 am   BACKBONE|DICT|INTERRES
   148   74  152 1    
   149   75   76 2    
   150   75   77 1    
   151   77   78 1    
   152   77   79 1    
   153   77  153 1    
   154   78  154 1    
   155   78  155 1    
   156   78  156 1    
   157   79   80 am   BACKBONE|DICT|INTERRES
   158   79  157 1    
   159   80   81 2    
@<TRIPOS>SUBSTRUCTURE
     1 UNK         1 GROUP             0       ****    0 ROOT    
