@<TRIPOS>MOLECULE
3R207
157   159    1
SMALL
USER_CHARGES


@<TRIPOS>ATOM
      1 CA        -46.0461  -30.8315    3.5947 C.3       0 UNK        -0.1975 
      2 C         -46.1562  -31.3694    5.0196 C.2       0 UNK         0.4852 
      3 O         -45.3841  -32.2533    5.3870 O.2       0 UNK        -0.5216 
      4 N         -47.0899  -30.8907    5.8560 N.am      1 UNK        -0.4461 
      5 CA        -48.0574  -29.8129    5.6051 C.3       1 UNK         0.0864 
      6 C6        -49.0841  -29.6894    6.7565 C.3       14 UNK        -0.0898 
      7 S7        -50.1197  -31.1757    6.9508 S.3       14 UNK        -0.2598 
      8 C8        -51.7410  -30.5742    6.3731 C.3       14 UNK         0.0286 
      9 C9        -52.3200  -29.4914    7.2768 C.ar      14 UNK        -0.0844 
     10 C10       -52.4998  -28.1893    6.7965 C.ar      14 UNK        -0.0881 
     11 C11       -53.0536  -27.1971    7.6126 C.ar      14 UNK        -0.0643 
     12 C12       -53.4276  -27.5192    8.9212 C.ar      14 UNK        -0.0930 
     13 C13       -53.2483  -28.8152    9.4153 C.ar      14 UNK        -0.0827 
     14 C14       -52.6981  -29.7975    8.5875 C.ar      14 UNK        -0.1249 
     15 C15       -53.6637  -29.1562   10.8382 C.3       14 UNK         0.0141 
     16 S16       -55.4334  -29.5569   10.9020 S.3       14 UNK        -0.2313 
     17 C17       -55.6862  -29.8638   12.6798 C.3       14 UNK        -0.0915 
     18 CA        -56.2163  -28.5979   13.4114 C.3       13 UNK         0.0968 
     19 C         -57.1347  -28.9429   14.6226 C.2       13 UNK         0.5732 
     20 N         -56.9982  -28.3125   15.7835 N.am      13 UNK        -0.7310 
     21 O         -58.0222  -29.7846   14.5023 O.2       13 UNK        -0.5035 
     22 N         -55.1073  -27.7016   13.7682 N.am      13 UNK        -0.4233 
     23 C         -55.0870  -26.3739   13.5904 C.2       13 UNK         0.4989 
     24 O         -55.9629  -25.7533   12.9850 O.2       13 UNK        -0.4996 
     25 CA        -53.8996  -25.6076   14.2173 C.3       12 UNK         0.0216 
     26 CB        -54.2138  -24.1198   14.4800 C.3       12 UNK        -0.1964 
     27 N         -53.3661  -26.2517   15.4250 N.am      12 UNK        -0.4276 
     28 C         -54.0402  -26.5332   16.5527 C.2       12 UNK         0.5020 
     29 O         -55.2104  -26.1970   16.7421 O.2       12 UNK        -0.5489 
     30 CA        -53.3191  -27.3821   17.6230 C.3       11 UNK         0.0294 
     31 CB        -54.3034  -28.1974   18.4886 C.3       11 UNK        -0.2019 
     32 N         -52.2745  -28.2601   17.0809 N.am      11 UNK        -0.4493 
     33 C         -52.3977  -29.1944   16.1227 C.2       11 UNK         0.4932 
     34 O         -53.4680  -29.4971   15.5920 O.2       11 UNK        -0.5029 
     35 CA        -51.0775  -29.8305   15.6288 C.3       10 UNK         0.0280 
     36 CB        -51.2210  -30.4770   14.2330 C.3       10 UNK        -0.1976 
     37 N         -49.9500  -28.8805   15.6488 N.am      10 UNK        -0.4242 
     38 C         -49.9191  -27.6911   15.0284 C.2       10 UNK         0.5072 
     39 O         -50.8164  -27.2882   14.2874 O.2       10 UNK        -0.5224 
     40 CA        -48.7266  -26.7734   15.3464 C.3       9 UNK         0.0343 
     41 CB        -47.4737  -27.1585   14.5420 C.3       9 UNK        -0.2003 
     42 N         -49.0646  -25.3646   15.1084 N.am      9 UNK        -0.4272 
     43 C         -49.9218  -24.6723   15.8737 C.2       9 UNK         0.4988 
     44 O         -50.4729  -25.1503   16.8678 O.2       9 UNK        -0.5108 
     45 CA        -50.2067  -23.2059   15.5222 C.3       8 UNK         0.0248 
     46 CB        -49.2109  -22.2872   16.2578 C.3       8 UNK        -0.2001 
     47 N         -50.2118  -22.8955   14.0853 N.am      8 UNK        -0.4140 
     48 C         -50.8636  -21.8349   13.5807 C.2       8 UNK         0.5028 
     49 O         -51.6240  -21.1241   14.2406 O.2       8 UNK        -0.5428 
     50 CA        -50.5924  -21.4483   12.1182 C.3       7 UNK         0.0264 
     51 CB        -49.1792  -20.8618   11.9652 C.3       7 UNK        -0.1988 
     52 N         -50.7722  -22.5429   11.1695 N.am      7 UNK        -0.4454 
     53 C         -51.9548  -23.0444   10.7837 C.2       7 UNK         0.5027 
     54 O         -53.0396  -22.6573   11.2185 O.2       7 UNK        -0.5083 
     55 CA        -51.9184  -24.1611    9.7212 C.3       6 UNK         0.0844 
     56 C56       -51.9566  -23.5839    8.2849 C.3       14 UNK        -0.0967 
     57 S57       -51.7266  -24.8406    6.9757 S.3       14 UNK        -0.2604 
     58 C58       -53.2776  -25.7941    7.0601 C.3       14 UNK         0.0134 
     59 N         -50.7669  -25.0303    9.9435 N.am      6 UNK        -0.4116 
     60 C         -50.7449  -26.0203   10.8399 C.2       5 UNK         0.5034 
     61 O         -51.7201  -26.3552   11.5065 O.2       5 UNK        -0.5045 
     62 CA        -49.4107  -26.7529   11.0290 C.3       5 UNK         0.0224 
     63 CB        -49.3715  -28.0125   10.1507 C.3       5 UNK        -0.1978 
     64 N         -48.2466  -25.9077   10.7357 N.am      5 UNK        -0.4737 
     65 C         -47.8536  -24.8654   11.4860 C.2       4 UNK         0.5027 
     66 O         -48.4119  -24.5180   12.5272 O.2       4 UNK        -0.5211 
     67 CA        -46.6644  -24.0352   10.9712 C.3       4 UNK         0.0297 
     68 CB        -45.3413  -24.6490   11.4538 C.3       4 UNK        -0.1993 
     69 N         -46.6366  -23.8924    9.5137 N.am      4 UNK        -0.4486 
     70 C         -47.6291  -23.3886    8.7659 C.2       3 UNK         0.4961 
     71 O         -48.6604  -22.9099    9.2367 O.2       3 UNK        -0.5105 
     72 CA        -47.4802  -23.4812    7.2363 C.3       3 UNK         0.0299 
     73 CB        -46.9926  -22.1391    6.6686 C.3       3 UNK        -0.1972 
     74 N         -46.6068  -24.5615    6.7539 N.am      3 UNK        -0.4305 
     75 C         -46.7473  -25.8648    7.0362 C.2       2 UNK         0.5006 
     76 O         -47.5721  -26.3114    7.8380 O.2       2 UNK        -0.5106 
     77 CA        -45.7624  -26.8254    6.3464 C.3       2 UNK         0.0296 
     78 CB        -44.4632  -26.9360    7.1612 C.3       2 UNK        -0.2002 
     79 N         -46.3513  -28.1577    6.2059 N.am      2 UNK        -0.4032 
     80 C         -47.3816  -28.4442    5.3974 C.2       1 UNK         0.5000 
     81 O         -47.8075  -27.6827    4.5272 O.2       1 UNK        -0.5238 
     82 H82       -45.5045  -31.5378    2.9657 H         1 UNK         0.0889 
     83 H83       -45.4993  -29.8892    3.5827 H         1 UNK         0.0889 
     84 H84       -47.0235  -30.6777    3.1396 H         1 UNK         0.0889 
     85 H85       -47.1570  -31.3080    6.7735 H         1 UNK         0.3028 
     86 H86       -48.6068  -30.0509    4.6923 H         1 UNK         0.0864 
     87 H87       -49.7272  -28.8203    6.6067 H         1 UNK         0.0720 
     88 H88       -48.5722  -29.5174    7.7048 H         1 UNK         0.0720 
     89 H89       -52.4355  -31.4148    6.3388 H         1 UNK         0.0814 
     90 H90       -51.6440  -30.2173    5.3466 H         1 UNK         0.0814 
     91 H91       -52.2142  -27.9434    5.7828 H         1 UNK         0.1469 
     92 H92       -53.8668  -26.7670    9.5608 H         1 UNK         0.1381 
     93 H93       -52.5651  -30.8037    8.9610 H         1 UNK         0.1206 
     94 H94       -53.4565  -28.3157   11.5009 H         1 UNK         0.0813 
     95 H95       -53.0820  -29.9988   11.2150 H         1 UNK         0.0813 
     96 H96       -54.7668  -30.2330   13.1382 H         1 UNK         0.0638 
     97 H97       -56.3969  -30.6897   12.7384 H         1 UNK         0.0638 
     98 H98       -56.8870  -28.0774   12.7258 H         1 UNK         0.0568 
     99 H99       -57.6188  -28.5535   16.5389 H         1 UNK         0.3450 
    100 H100      -56.3108  -27.5784   15.9183 H         1 UNK         0.3450 
    101 H101      -54.3755  -28.1334   14.3224 H         1 UNK         0.2987 
    102 H102      -53.0952  -25.6419   13.4849 H         1 UNK         0.0766 
    103 H103      -53.3551  -23.6022   14.9062 H         1 UNK         0.0798 
    104 H104      -55.0550  -23.9967   15.1624 H         1 UNK         0.0798 
    105 H105      -54.4674  -23.6054   13.5521 H         1 UNK         0.0798 
    106 H106      -52.4190  -26.6085   15.3261 H         1 UNK         0.3198 
    107 H107      -52.8119  -26.6689   18.2749 H         1 UNK         0.0843 
    108 H108      -54.8834  -28.8985   17.8874 H         1 UNK         0.0831 
    109 H109      -55.0115  -27.5450   19.0008 H         1 UNK         0.0831 
    110 H110      -53.7794  -28.7675   19.2556 H         1 UNK         0.0831 
    111 H111      -51.3418  -28.0711   17.4217 H         1 UNK         0.3133 
    112 H112      -50.8331  -30.6211   16.3395 H         1 UNK         0.0566 
    113 H113      -50.2836  -30.9254   13.9046 H         1 UNK         0.0814 
    114 H114      -51.9719  -31.2680   14.2430 H         1 UNK         0.0814 
    115 H115      -51.5269  -29.7506   13.4789 H         1 UNK         0.0814 
    116 H116      -49.1726  -29.1334   16.2442 H         1 UNK         0.3091 
    117 H117      -48.4906  -26.8844   16.4070 H         1 UNK         0.0702 
    118 H118      -47.1732  -28.1855   14.7528 H         1 UNK         0.0785 
    119 H119      -47.6303  -27.0839   13.4685 H         1 UNK         0.0785 
    120 H120      -46.6298  -26.5175   14.7977 H         1 UNK         0.0785 
    121 H121      -48.7039  -24.9553   14.2502 H         1 UNK         0.2998 
    122 H122      -51.2039  -23.0028   15.9186 H         1 UNK         0.0697 
    123 H123      -48.1998  -22.3963   15.8637 H         1 UNK         0.0825 
    124 H124      -49.1742  -22.5196   17.3232 H         1 UNK         0.0825 
    125 H125      -49.4932  -21.2381   16.1700 H         1 UNK         0.0825 
    126 H126      -49.6223  -23.4585   13.4755 H         1 UNK         0.3029 
    127 H127      -51.3039  -20.6634   11.8514 H         1 UNK         0.0897 
    128 H128      -48.9966  -20.5249   10.9445 H         1 UNK         0.0792 
    129 H129      -48.4096  -21.5897   12.2200 H         1 UNK         0.0792 
    130 H130      -49.0420  -20.0009   12.6209 H         1 UNK         0.0792 
    131 H131      -49.9366  -22.8702   10.6931 H         1 UNK         0.3086 
    132 H132      -52.8275  -24.7483    9.8559 H         1 UNK         0.0583 
    133 H133      -52.8989  -23.0611    8.1103 H         1 UNK         0.1020 
    134 H134      -51.1725  -22.8353    8.1539 H         1 UNK         0.1020 
    135 H135      -54.0205  -25.2596    7.6538 H         1 UNK         0.0694 
    136 H136      -53.6948  -25.8679    6.0548 H         1 UNK         0.0694 
    137 H137      -49.9248  -24.8099    9.4304 H         1 UNK         0.2989 
    138 H138      -49.3654  -27.0612   12.0725 H         1 UNK         0.1055 
    139 H139      -50.1852  -28.6917   10.4097 H         1 UNK         0.0806 
    140 H140      -48.4370  -28.5597   10.2733 H         1 UNK         0.0806 
    141 H141      -49.4857  -27.7643    9.0949 H         1 UNK         0.0806 
    142 H142      -47.7768  -26.0814    9.8517 H         1 UNK         0.3061 
    143 H143      -46.7500  -23.0339   11.3959 H         1 UNK         0.0734 
    144 H144      -45.3326  -24.7501   12.5402 H         1 UNK         0.0832 
    145 H145      -44.4901  -24.0243   11.1824 H         1 UNK         0.0832 
    146 H146      -45.1784  -25.6424   11.0336 H         1 UNK         0.0832 
    147 H147      -45.8307  -24.2657    9.0347 H         1 UNK         0.3156 
    148 H148      -48.4772  -23.6766    6.8356 H         1 UNK         0.0589 
    149 H149      -45.9805  -21.9039    7.0003 H         1 UNK         0.0808 
    150 H150      -46.9988  -22.1416    5.5785 H         1 UNK         0.0808 
    151 H151      -47.6391  -21.3211    6.9906 H         1 UNK         0.0808 
    152 H152      -45.8827  -24.2894    6.1039 H         1 UNK         0.3098 
    153 H153      -45.5287  -26.4422    5.3507 H         1 UNK         0.0720 
    154 H154      -43.7528  -27.6119    6.6845 H         1 UNK         0.0791 
    155 H155      -44.6493  -27.3034    8.1716 H         1 UNK         0.0791 
    156 H156      -43.9721  -25.9663    7.2523 H         1 UNK         0.0791 
    157 H157      -46.0842  -28.8437    6.8964 H         1 UNK         0.3028 
@<TRIPOS>BOND
     1    1    2 1    
     2    1   82 1    
     3    1   83 1    
     4    1   84 1    
     5    2    3 2    
     6    2    4 am   BACKBONE|DICT|INTERRES
     7    4    5 1    
     8    4   85 1    
     9    5    6 1    
    10    5   80 1    
    11    5   86 1    
    12    6    7 1    
    13    6   87 1    
    14    6   88 1    
    15    7    8 1    
    16    8    9 1    
    17    8   89 1    
    18    8   90 1    
    19    9   10 ar   
    20    9   14 ar   
    21   10   11 ar   
    22   10   91 1    
    23   11   12 ar   
    24   11   58 1    
    25   12   13 ar   
    26   12   92 1    
    27   13   14 ar   
    28   13   15 1    
    29   14   93 1    
    30   15   16 1    
    31   15   94 1    
    32   15   95 1    
    33   16   17 1    
    34   17   18 1    
    35   17   96 1    
    36   17   97 1    
    37   18   19 1    
    38   18   22 1    
    39   18   98 1    
    40   19   20 am   BACKBONE|DICT|INTERRES
    41   19   21 2    
    42   20   99 1    
    43   20  100 1    
    44   22   23 am   BACKBONE|DICT|INTERRES
    45   22  101 1    
    46   23   24 2    
    47   23   25 1    
    48   25   26 1    
    49   25   27 1    
    50   25  102 1    
    51   26  103 1    
    52   26  104 1    
    53   26  105 1    
    54   27   28 am   BACKBONE|DICT|INTERRES
    55   27  106 1    
    56   28   29 2    
    57   28   30 1    
    58   30   31 1    
    59   30   32 1    
    60   30  107 1    
    61   31  108 1    
    62   31  109 1    
    63   31  110 1    
    64   32   33 am   BACKBONE|DICT|INTERRES
    65   32  111 1    
    66   33   34 2    
    67   33   35 1    
    68   35   36 1    
    69   35   37 1    
    70   35  112 1    
    71   36  113 1    
    72   36  114 1    
    73   36  115 1    
    74   37   38 am   BACKBONE|DICT|INTERRES
    75   37  116 1    
    76   38   39 2    
    77   38   40 1    
    78   40   41 1    
    79   40   42 1    
    80   40  117 1    
    81   41  118 1    
    82   41  119 1    
    83   41  120 1    
    84   42   43 am   BACKBONE|DICT|INTERRES
    85   42  121 1    
    86   43   44 2    
    87   43   45 1    
    88   45   46 1    
    89   45   47 1    
    90   45  122 1    
    91   46  123 1    
    92   46  124 1    
    93   46  125 1    
    94   47   48 am   BACKBONE|DICT|INTERRES
    95   47  126 1    
    96   48   49 2    
    97   48   50 1    
    98   50   51 1    
    99   50   52 1    
   100   50  127 1    
   101   51  128 1    
   102   51  129 1    
   103   51  130 1    
   104   52   53 am   BACKBONE|DICT|INTERRES
   105   52  131 1    
   106   53   54 2    
   107   53   55 1    
   108   55   56 1    
   109   55   59 1    
   110   55  132 1    
   111   56   57 1    
   112   56  133 1    
   113   56  134 1    
   114   57   58 1    
   115   58  135 1    
   116   58  136 1    
   117   59   60 am   BACKBONE|DICT|INTERRES
   118   59  137 1    
   119   60   61 2    
   120   60   62 1    
   121   62   63 1    
   122   62   64 1    
   123   62  138 1    
   124   63  139 1    
   125   63  140 1    
   126   63  141 1    
   127   64   65 am   BACKBONE|DICT|INTERRES
   128   64  142 1    
   129   65   66 2    
   130   65   67 1    
   131   67   68 1    
   132   67   69 1    
   133   67  143 1    
   134   68  144 1    
   135   68  145 1    
   136   68  146 1    
   137   69   70 am   BACKBONE|DICT|INTERRES
   138   69  147 1    
   139   70   71 2    
   140   70   72 1    
   141   72   73 1    
   142   72   74 1    
   143   72  148 1    
   144   73  149 1    
   145   73  150 1    
   146   73  151 1    
   147   74   75 am   BACKBONE|DICT|INTERRES
   148   74  152 1    
   149   75   76 2    
   150   75   77 1    
   151   77   78 1    
   152   77   79 1    
   153   77  153 1    
   154   78  154 1    
   155   78  155 1    
   156   78  156 1    
   157   79   80 am   BACKBONE|DICT|INTERRES
   158   79  157 1    
   159   80   81 2    
@<TRIPOS>SUBSTRUCTURE
     1 UNK         1 GROUP             0       ****    0 ROOT    
