@<TRIPOS>MOLECULE
3R207
157   159    1
SMALL
USER_CHARGES


@<TRIPOS>ATOM
      1 CA        -44.1339  -29.0246    8.6964 C.3       0 UNK        -0.1975 
      2 C         -45.0103  -29.5599    7.5739 C.2       0 UNK         0.4852 
      3 O         -44.5865  -29.5722    6.4181 O.2       0 UNK        -0.5216 
      4 N         -46.2336  -29.9965    7.9034 N.am      1 UNK        -0.4461 
      5 CA        -47.2199  -30.5458    6.9624 C.3       1 UNK         0.0864 
      6 C6        -48.2150  -31.4913    7.6858 C.3       14 UNK        -0.0898 
      7 S7        -49.3267  -30.6436    8.8637 S.3       14 UNK        -0.2598 
      8 C8        -50.9120  -30.7825    7.9819 C.3       14 UNK         0.0286 
      9 C9        -51.8554  -29.6498    8.3477 C.ar      14 UNK        -0.0844 
     10 C10       -51.8921  -28.4915    7.5667 C.ar      14 UNK        -0.0881 
     11 C11       -52.7840  -27.4590    7.8707 C.ar      14 UNK        -0.0643 
     12 C12       -53.6465  -27.5937    8.9611 C.ar      14 UNK        -0.0930 
     13 C13       -53.6024  -28.7380    9.7634 C.ar      14 UNK        -0.0827 
     14 C14       -52.7072  -29.7653    9.4488 C.ar      14 UNK        -0.1249 
     15 C15       -54.5217  -28.8708   10.9670 C.3       14 UNK         0.0141 
     16 S16       -54.0724  -27.6928   12.2776 S.3       14 UNK        -0.2313 
     17 C17       -55.1995  -26.2952   11.9322 C.3       14 UNK        -0.0915 
     18 CA        -55.5286  -25.4523   13.1995 C.3       13 UNK         0.0968 
     19 C         -56.4390  -24.2229   12.8979 C.2       13 UNK         0.5732 
     20 N         -57.1694  -23.7007   13.8767 N.am      13 UNK        -0.7310 
     21 O         -56.4800  -23.7212   11.7767 O.2       13 UNK        -0.5035 
     22 N         -55.9690  -26.2804   14.3366 N.am      13 UNK        -0.4233 
     23 C         -57.0986  -26.9938   14.4165 C.2       13 UNK         0.4989 
     24 O         -57.9900  -26.9817   13.5655 O.2       13 UNK        -0.4996 
     25 CA        -57.2141  -27.9204   15.6439 C.3       12 UNK         0.0216 
     26 CB        -58.6427  -28.4597   15.8464 C.3       12 UNK        -0.1964 
     27 N         -56.2887  -29.0518   15.5278 N.am      12 UNK        -0.4276 
     28 C         -54.9615  -28.9841   15.6972 C.2       12 UNK         0.5020 
     29 O         -54.3830  -27.9619   16.0753 O.2       12 UNK        -0.5489 
     30 CA        -54.1341  -30.2349   15.3593 C.3       11 UNK         0.0294 
     31 CB        -54.8586  -31.2403   14.4357 C.3       11 UNK        -0.2019 
     32 N         -52.8856  -29.7893   14.7466 N.am      11 UNK        -0.4493 
     33 C         -51.7372  -30.4716   14.7026 C.2       11 UNK         0.4932 
     34 O         -51.6011  -31.6116   15.1489 O.2       11 UNK        -0.5029 
     35 CA        -50.5281  -29.7728   14.0500 C.3       10 UNK         0.0280 
     36 CB        -50.3994  -30.1979   12.5783 C.3       10 UNK        -0.1976 
     37 N         -50.5604  -28.3081   14.1143 N.am      10 UNK        -0.4242 
     38 C         -50.5275  -27.5720   15.2317 C.2       10 UNK         0.5072 
     39 O         -50.4732  -28.0449   16.3704 O.2       10 UNK        -0.5224 
     40 CA        -50.5737  -26.0502   15.0298 C.3       9 UNK         0.0343 
     41 CB        -51.9822  -25.6138   14.5961 C.3       9 UNK        -0.2003 
     42 N         -50.2461  -25.3851   16.2893 N.am      9 UNK        -0.4272 
     43 C         -49.3089  -24.4641   16.5591 C.2       9 UNK         0.4988 
     44 O         -49.1021  -24.1067   17.7181 O.2       9 UNK        -0.5108 
     45 CA        -48.4463  -23.8200   15.4480 C.3       8 UNK         0.0248 
     46 CB        -47.2727  -24.7346   15.0514 C.3       8 UNK        -0.2001 
     47 N         -49.1512  -23.3540   14.2496 N.am      8 UNK        -0.4140 
     48 C         -50.1708  -22.4844   14.2213 C.2       8 UNK         0.5028 
     49 O         -50.6697  -21.9778   15.2268 O.2       8 UNK        -0.5428 
     50 CA        -50.7271  -22.0902   12.8431 C.3       7 UNK         0.0264 
     51 CB        -49.9693  -20.8663   12.3018 C.3       7 UNK        -0.1988 
     52 N         -50.6397  -23.1694   11.8538 N.am      7 UNK        -0.4454 
     53 C         -51.6883  -23.8481   11.3585 C.2       7 UNK         0.5027 
     54 O         -52.8428  -23.6918   11.7545 O.2       7 UNK        -0.5083 
     55 CA        -51.4251  -24.8386   10.1989 C.3       6 UNK         0.0844 
     56 C56       -51.9146  -24.2261    8.8576 C.3       14 UNK        -0.0967 
     57 S57       -51.3923  -25.1310    7.3552 S.3       14 UNK        -0.2604 
     58 C58       -52.8171  -26.2061    7.0116 C.3       14 UNK         0.0134 
     59 N         -50.0215  -25.2468   10.1499 N.am      6 UNK        -0.4116 
     60 C         -49.4717  -26.1609   10.9596 C.2       5 UNK         0.5034 
     61 O         -50.1053  -26.8040   11.7951 O.2       5 UNK        -0.5045 
     62 CA        -47.9501  -26.3701   10.8594 C.3       5 UNK         0.0224 
     63 CB        -47.6360  -27.6429   10.0657 C.3       5 UNK        -0.1978 
     64 N         -47.2333  -25.2353   10.2671 N.am      5 UNK        -0.4737 
     65 C         -47.1530  -24.0232   10.8352 C.2       4 UNK         0.5027 
     66 O         -47.6812  -23.7467   11.9106 O.2       4 UNK        -0.5211 
     67 CA        -46.4340  -22.9141   10.0514 C.3       4 UNK         0.0297 
     68 CB        -44.9448  -22.8755   10.4261 C.3       4 UNK        -0.1993 
     69 N         -46.5719  -23.0383    8.5983 N.am      4 UNK        -0.4486 
     70 C         -47.7334  -23.0602    7.9294 C.2       3 UNK         0.4961 
     71 O         -48.8347  -22.9645    8.4714 O.2       3 UNK        -0.5105 
     72 CA        -47.6627  -23.2483    6.4035 C.3       3 UNK         0.0299 
     73 CB        -46.2769  -22.9298    5.7961 C.3       3 UNK        -0.1972 
     74 N         -48.1017  -24.5848    5.9868 N.am      3 UNK        -0.4305 
     75 C         -47.6147  -25.7665    6.3936 C.2       2 UNK         0.5006 
     76 O         -46.7527  -25.9028    7.2697 O.2       2 UNK        -0.5106 
     77 CA        -48.1612  -27.0041    5.6659 C.3       2 UNK         0.0296 
     78 CB        -47.7484  -26.9836    4.1773 C.3       2 UNK        -0.2002 
     79 N         -47.6283  -28.1888    6.3317 N.am      2 UNK        -0.4032 
     80 C         -47.9338  -29.4719    6.1009 C.2       1 UNK         0.5000 
     81 O         -48.7515  -29.8325    5.2518 O.2       1 UNK        -0.5238 
     82 H82       -44.5361  -29.2695    9.6792 H         1 UNK         0.0889 
     83 H83       -44.0490  -27.9407    8.6204 H         1 UNK         0.0889 
     84 H84       -43.1334  -29.4510    8.6284 H         1 UNK         0.0889 
     85 H85       -46.5335  -29.9713    8.8679 H         1 UNK         0.3028 
     86 H86       -46.6697  -31.1640    6.2495 H         1 UNK         0.0864 
     87 H87       -48.8017  -32.0501    6.9546 H         1 UNK         0.0720 
     88 H88       -47.6601  -32.2500    8.2397 H         1 UNK         0.0720 
     89 H89       -51.3682  -31.7462    8.2130 H         1 UNK         0.0814 
     90 H90       -50.7464  -30.7755    6.9037 H         1 UNK         0.0814 
     91 H91       -51.2269  -28.3933    6.7194 H         1 UNK         0.1469 
     92 H92       -54.3421  -26.8009    9.1943 H         1 UNK         0.1381 
     93 H93       -52.6720  -30.6580   10.0582 H         1 UNK         0.1206 
     94 H94       -54.4562  -29.8781   11.3797 H         1 UNK         0.0813 
     95 H95       -55.5600  -28.7379   10.6615 H         1 UNK         0.0813 
     96 H96       -56.1214  -26.6717   11.4873 H         1 UNK         0.0638 
     97 H97       -54.7255  -25.6659   11.1780 H         1 UNK         0.0638 
     98 H98       -54.5899  -25.0056   13.5253 H         1 UNK         0.0568 
     99 H99       -57.7554  -22.9041   13.6838 H         1 UNK         0.3450 
    100 H100      -57.1444  -24.0990   14.8015 H         1 UNK         0.3450 
    101 H101      -55.2773  -26.4367   15.0619 H         1 UNK         0.2987 
    102 H102      -56.9504  -27.3361   16.5284 H         1 UNK         0.0766 
    103 H103      -58.7152  -29.0587   16.7545 H         1 UNK         0.0798 
    104 H104      -58.9667  -29.0793   15.0091 H         1 UNK         0.0798 
    105 H105      -59.3578  -27.6415   15.9421 H         1 UNK         0.0798 
    106 H106      -56.6798  -29.9163   15.1825 H         1 UNK         0.3198 
    107 H107      -53.9017  -30.7265   16.3061 H         1 UNK         0.0843 
    108 H108      -55.7315  -31.6740   14.9246 H         1 UNK         0.0831 
    109 H109      -54.2086  -32.0733   14.1676 H         1 UNK         0.0831 
    110 H110      -55.1902  -30.7717   13.5087 H         1 UNK         0.0831 
    111 H111      -52.8968  -28.8356   14.4072 H         1 UNK         0.3133 
    112 H112      -49.6345  -30.1054   14.5817 H         1 UNK         0.0566 
    113 H113      -49.4812  -29.8156   12.1330 H         1 UNK         0.0814 
    114 H114      -50.3788  -31.2840   12.4789 H         1 UNK         0.0814 
    115 H115      -51.2347  -29.8294   11.9817 H         1 UNK         0.0814 
    116 H116      -50.5616  -27.8174   13.2194 H         1 UNK         0.3091 
    117 H117      -49.8593  -25.8024   14.2485 H         1 UNK         0.0702 
    118 H118      -52.0903  -24.5308   14.5841 H         1 UNK         0.0785 
    119 H119      -52.7512  -26.0105   15.2590 H         1 UNK         0.0785 
    120 H120      -52.1985  -25.9645   13.5881 H         1 UNK         0.0785 
    121 H121      -50.7103  -25.8066   17.0818 H         1 UNK         0.2998 
    122 H122      -48.0073  -22.9241   15.8918 H         1 UNK         0.0697 
    123 H123      -47.5992  -25.6121   14.4943 H         1 UNK         0.0825 
    124 H124      -46.7378  -25.0896   15.9334 H         1 UNK         0.0825 
    125 H125      -46.5505  -24.2011   14.4330 H         1 UNK         0.0825 
    126 H126      -48.7400  -23.6366   13.3625 H         1 UNK         0.3029 
    127 H127      -51.7697  -21.7992   12.9894 H         1 UNK         0.0897 
    128 H128      -50.3945  -20.5236   11.3582 H         1 UNK         0.0792 
    129 H129      -50.0220  -20.0319   13.0026 H         1 UNK         0.0792 
    130 H130      -48.9140  -21.0857   12.1329 H         1 UNK         0.0792 
    131 H131      -49.7137  -23.3803   11.5009 H         1 UNK         0.3086 
    132 H132      -52.0260  -25.7288   10.3959 H         1 UNK         0.0583 
    133 H133      -53.0022  -24.1329    8.8644 H         1 UNK         0.1020 
    134 H134      -51.5351  -23.2079    8.7485 H         1 UNK         0.1020 
    135 H135      -53.7472  -25.6534    7.1516 H         1 UNK         0.0694 
    136 H136      -52.7907  -26.4942    5.9597 H         1 UNK         0.0694 
    137 H137      -49.4392  -24.7449    9.4895 H         1 UNK         0.2989 
    138 H138      -47.5760  -26.5015   11.8773 H         1 UNK         0.1055 
    139 H139      -48.0390  -28.5199   10.5728 H         1 UNK         0.0806 
    140 H140      -46.5619  -27.7894    9.9629 H         1 UNK         0.0806 
    141 H141      -48.0772  -27.6123    9.0695 H         1 UNK         0.0806 
    142 H142      -46.8301  -25.3723    9.3457 H         1 UNK         0.3061 
    143 H143      -46.8867  -21.9642   10.3432 H         1 UNK         0.0734 
    144 H144      -44.8177  -22.7632   11.5040 H         1 UNK         0.0832 
    145 H145      -44.4295  -23.7907   10.1313 H         1 UNK         0.0832 
    146 H146      -44.4368  -22.0349    9.9533 H         1 UNK         0.0832 
    147 H147      -45.7210  -23.1600    8.0686 H         1 UNK         0.3156 
    148 H148      -48.3771  -22.5413    5.9791 H         1 UNK         0.0589 
    149 H149      -45.5117  -23.6425    6.1059 H         1 UNK         0.0808 
    150 H150      -46.3175  -22.9518    4.7069 H         1 UNK         0.0808 
    151 H151      -45.9403  -21.9315    6.0796 H         1 UNK         0.0808 
    152 H152      -48.8498  -24.5946    5.3076 H         1 UNK         0.3098 
    153 H153      -49.2491  -27.0098    5.7556 H         1 UNK         0.0720 
    154 H154      -48.1139  -26.0894    3.6717 H         1 UNK         0.0791 
    155 H155      -48.1535  -27.8357    3.6322 H         1 UNK         0.0791 
    156 H156      -46.6636  -27.0019    4.0641 H         1 UNK         0.0791 
    157 H157      -46.9470  -27.9680    7.0478 H         1 UNK         0.3028 
@<TRIPOS>BOND
     1    1    2 1    
     2    1   82 1    
     3    1   83 1    
     4    1   84 1    
     5    2    3 2    
     6    2    4 am   BACKBONE|DICT|INTERRES
     7    4    5 1    
     8    4   85 1    
     9    5    6 1    
    10    5   80 1    
    11    5   86 1    
    12    6    7 1    
    13    6   87 1    
    14    6   88 1    
    15    7    8 1    
    16    8    9 1    
    17    8   89 1    
    18    8   90 1    
    19    9   10 ar   
    20    9   14 ar   
    21   10   11 ar   
    22   10   91 1    
    23   11   12 ar   
    24   11   58 1    
    25   12   13 ar   
    26   12   92 1    
    27   13   14 ar   
    28   13   15 1    
    29   14   93 1    
    30   15   16 1    
    31   15   94 1    
    32   15   95 1    
    33   16   17 1    
    34   17   18 1    
    35   17   96 1    
    36   17   97 1    
    37   18   19 1    
    38   18   22 1    
    39   18   98 1    
    40   19   20 am   BACKBONE|DICT|INTERRES
    41   19   21 2    
    42   20   99 1    
    43   20  100 1    
    44   22   23 am   BACKBONE|DICT|INTERRES
    45   22  101 1    
    46   23   24 2    
    47   23   25 1    
    48   25   26 1    
    49   25   27 1    
    50   25  102 1    
    51   26  103 1    
    52   26  104 1    
    53   26  105 1    
    54   27   28 am   BACKBONE|DICT|INTERRES
    55   27  106 1    
    56   28   29 2    
    57   28   30 1    
    58   30   31 1    
    59   30   32 1    
    60   30  107 1    
    61   31  108 1    
    62   31  109 1    
    63   31  110 1    
    64   32   33 am   BACKBONE|DICT|INTERRES
    65   32  111 1    
    66   33   34 2    
    67   33   35 1    
    68   35   36 1    
    69   35   37 1    
    70   35  112 1    
    71   36  113 1    
    72   36  114 1    
    73   36  115 1    
    74   37   38 am   BACKBONE|DICT|INTERRES
    75   37  116 1    
    76   38   39 2    
    77   38   40 1    
    78   40   41 1    
    79   40   42 1    
    80   40  117 1    
    81   41  118 1    
    82   41  119 1    
    83   41  120 1    
    84   42   43 am   BACKBONE|DICT|INTERRES
    85   42  121 1    
    86   43   44 2    
    87   43   45 1    
    88   45   46 1    
    89   45   47 1    
    90   45  122 1    
    91   46  123 1    
    92   46  124 1    
    93   46  125 1    
    94   47   48 am   BACKBONE|DICT|INTERRES
    95   47  126 1    
    96   48   49 2    
    97   48   50 1    
    98   50   51 1    
    99   50   52 1    
   100   50  127 1    
   101   51  128 1    
   102   51  129 1    
   103   51  130 1    
   104   52   53 am   BACKBONE|DICT|INTERRES
   105   52  131 1    
   106   53   54 2    
   107   53   55 1    
   108   55   56 1    
   109   55   59 1    
   110   55  132 1    
   111   56   57 1    
   112   56  133 1    
   113   56  134 1    
   114   57   58 1    
   115   58  135 1    
   116   58  136 1    
   117   59   60 am   BACKBONE|DICT|INTERRES
   118   59  137 1    
   119   60   61 2    
   120   60   62 1    
   121   62   63 1    
   122   62   64 1    
   123   62  138 1    
   124   63  139 1    
   125   63  140 1    
   126   63  141 1    
   127   64   65 am   BACKBONE|DICT|INTERRES
   128   64  142 1    
   129   65   66 2    
   130   65   67 1    
   131   67   68 1    
   132   67   69 1    
   133   67  143 1    
   134   68  144 1    
   135   68  145 1    
   136   68  146 1    
   137   69   70 am   BACKBONE|DICT|INTERRES
   138   69  147 1    
   139   70   71 2    
   140   70   72 1    
   141   72   73 1    
   142   72   74 1    
   143   72  148 1    
   144   73  149 1    
   145   73  150 1    
   146   73  151 1    
   147   74   75 am   BACKBONE|DICT|INTERRES
   148   74  152 1    
   149   75   76 2    
   150   75   77 1    
   151   77   78 1    
   152   77   79 1    
   153   77  153 1    
   154   78  154 1    
   155   78  155 1    
   156   78  156 1    
   157   79   80 am   BACKBONE|DICT|INTERRES
   158   79  157 1    
   159   80   81 2    
@<TRIPOS>SUBSTRUCTURE
     1 UNK         1 GROUP             0       ****    0 ROOT    
