@<TRIPOS>MOLECULE
3R207
157   159    1
SMALL
USER_CHARGES


@<TRIPOS>ATOM
      1 CA        -47.7163  -27.0712   10.9833 C.3       0 UNK        -0.1975 
      2 C         -48.1625  -27.2948    9.5474 C.2       0 UNK         0.4852 
      3 O         -47.6578  -26.6278    8.6443 O.2       0 UNK        -0.5216 
      4 N         -49.0990  -28.2288    9.3374 N.am      1 UNK        -0.4461 
      5 CA        -49.7494  -28.5794    8.0698 C.3       1 UNK         0.0864 
      6 C6        -50.8360  -27.5479    7.6653 C.3       14 UNK        -0.0898 
      7 S7        -52.2641  -28.3650    6.8789 S.3       14 UNK        -0.2598 
      8 C8        -53.2015  -26.9348    6.2491 C.3       14 UNK         0.0286 
      9 C9        -53.5319  -25.9069    7.3263 C.ar      14 UNK        -0.0844 
     10 C10       -53.2735  -24.5531    7.0937 C.ar      14 UNK        -0.0881 
     11 C11       -53.5696  -23.5951    8.0669 C.ar      14 UNK        -0.0643 
     12 C12       -54.1255  -23.9976    9.2835 C.ar      14 UNK        -0.0930 
     13 C13       -54.3801  -25.3484    9.5327 C.ar      14 UNK        -0.0827 
     14 C14       -54.0968  -26.2967    8.5462 C.ar      14 UNK        -0.1249 
     15 C15       -54.9635  -25.7770   10.8688 C.3       14 UNK         0.0141 
     16 S16       -53.7477  -25.6352   12.2165 S.3       14 UNK        -0.2313 
     17 C17       -52.5536  -26.9607   11.8201 C.3       14 UNK        -0.0915 
     18 CA        -53.1131  -28.4095   11.9375 C.3       13 UNK         0.0968 
     19 C         -51.9913  -29.4845   11.8296 C.2       13 UNK         0.5732 
     20 N         -52.0520  -30.5958   12.5549 N.am      13 UNK        -0.7310 
     21 O         -51.0343  -29.3114   11.0800 O.2       13 UNK        -0.5035 
     22 N         -53.9391  -28.5951   13.1383 N.am      13 UNK        -0.4233 
     23 C         -55.1823  -29.0892   13.1558 C.2       13 UNK         0.4989 
     24 O         -55.8175  -29.3819   12.1408 O.2       13 UNK        -0.4996 
     25 CA        -55.8235  -29.2951   14.5443 C.3       12 UNK         0.0216 
     26 CB        -56.9964  -30.2984   14.5188 C.3       12 UNK        -0.1964 
     27 N         -54.8588  -29.6595   15.5908 N.am      12 UNK        -0.4276 
     28 C         -54.0245  -30.7132   15.5990 C.2       12 UNK         0.5020 
     29 O         -53.9720  -31.5430   14.6894 O.2       12 UNK        -0.5489 
     30 CA        -53.0545  -30.8469   16.7891 C.3       11 UNK         0.0294 
     31 CB        -51.6504  -31.2694   16.3190 C.3       11 UNK        -0.2019 
     32 N         -52.9388  -29.5871   17.5245 N.am      11 UNK        -0.4493 
     33 C         -53.4649  -29.3355   18.7311 C.2       11 UNK         0.4932 
     34 O         -54.0535  -30.1764   19.4106 O.2       11 UNK        -0.5029 
     35 CA        -53.3353  -27.8961   19.2699 C.3       10 UNK         0.0280 
     36 CB        -52.1770  -27.8052   20.2764 C.3       10 UNK        -0.1976 
     37 N         -53.1438  -26.8843   18.2249 N.am      10 UNK        -0.4242 
     38 C         -54.0322  -26.5846   17.2657 C.2       10 UNK         0.5072 
     39 O         -55.1476  -27.0993   17.1822 O.2       10 UNK        -0.5224 
     40 CA        -53.5677  -25.6098   16.1696 C.3       9 UNK         0.0343 
     41 CB        -53.9037  -24.1599   16.5487 C.3       9 UNK        -0.2003 
     42 N         -52.1379  -25.7140   15.8570 N.am      9 UNK        -0.4272 
     43 C         -51.5200  -26.8110   15.4009 C.2       9 UNK         0.4988 
     44 O         -52.1010  -27.8836   15.2238 O.2       9 UNK        -0.5108 
     45 CA        -50.0094  -26.6968   15.1127 C.3       8 UNK         0.0248 
     46 CB        -49.4411  -27.9463   14.4142 C.3       8 UNK        -0.2001 
     47 N         -49.6497  -25.5069   14.3319 N.am      8 UNK        -0.4140 
     48 C         -49.5396  -24.2657   14.8237 C.2       8 UNK         0.5028 
     49 O         -49.8416  -23.9653   15.9797 O.2       8 UNK        -0.5428 
     50 CA        -48.9888  -23.1803   13.8873 C.3       7 UNK         0.0264 
     51 CB        -47.4604  -23.0857   14.0270 C.3       7 UNK        -0.1988 
     52 N         -49.3231  -23.3772   12.4747 N.am      7 UNK        -0.4454 
     53 C         -50.5068  -23.0692   11.9237 C.2       7 UNK         0.5027 
     54 O         -51.4877  -22.7432   12.5931 O.2       7 UNK        -0.5083 
     55 CA        -50.6176  -23.0899   10.3755 C.3       6 UNK         0.0844 
     56 C56       -51.3671  -21.8235    9.8634 C.3       14 UNK        -0.0967 
     57 S57       -51.5262  -21.7373    8.0442 S.3       14 UNK        -0.2604 
     58 C58       -53.2848  -22.1270    7.7988 C.3       14 UNK         0.0134 
     59 N         -49.3340  -23.3233    9.6884 N.am      6 UNK        -0.4116 
     60 C         -48.2827  -22.4896    9.6370 C.2       5 UNK         0.5034 
     61 O         -48.2248  -21.4143   10.2331 O.2       5 UNK        -0.5045 
     62 CA        -47.0707  -22.9425    8.8113 C.3       5 UNK         0.0224 
     63 CB        -45.9898  -23.5384    9.7289 C.3       5 UNK        -0.1978 
     64 N         -47.4126  -23.9247    7.7811 N.am      5 UNK        -0.4737 
     65 C         -47.8220  -23.6223    6.5412 C.2       4 UNK         0.5027 
     66 O         -48.0283  -22.4714    6.1535 O.2       4 UNK        -0.5211 
     67 CA        -47.9935  -24.8125    5.5719 C.3       4 UNK         0.0297 
     68 CB        -48.0217  -24.3897    4.0885 C.3       4 UNK        -0.1993 
     69 N         -46.9962  -25.8666    5.8048 N.am      4 UNK        -0.4486 
     70 C         -45.6583  -25.7492    5.7523 C.2       3 UNK         0.4961 
     71 O         -45.0718  -24.7604    5.3108 O.2       3 UNK        -0.5105 
     72 CA        -44.8192  -26.9008    6.3368 C.3       3 UNK         0.0299 
     73 CB        -44.1125  -26.4395    7.6235 C.3       3 UNK        -0.1972 
     74 N         -45.6236  -28.0812    6.6551 N.am      3 UNK        -0.4305 
     75 C         -45.7893  -29.1357    5.8460 C.2       2 UNK         0.5006 
     76 O         -45.2382  -29.2549    4.7510 O.2       2 UNK        -0.5106 
     77 CA        -46.7348  -30.2507    6.3333 C.3       2 UNK         0.0296 
     78 CB        -45.9321  -31.3785    7.0022 C.3       2 UNK        -0.2002 
     79 N         -47.7847  -29.7954    7.2526 N.am      2 UNK        -0.4032 
     80 C         -48.7513  -28.9192    6.9408 C.2       1 UNK         0.5000 
     81 O         -48.8335  -28.3657    5.8425 O.2       1 UNK        -0.5238 
     82 H82       -46.6286  -27.0923   11.0444 H         1 UNK         0.0889 
     83 H83       -48.1063  -27.8394   11.6502 H         1 UNK         0.0889 
     84 H84       -48.0600  -26.1003   11.3354 H         1 UNK         0.0889 
     85 H85       -49.5114  -28.7039   10.1378 H         1 UNK         0.3028 
     86 H86       -50.2539  -29.5210    8.2944 H         1 UNK         0.0864 
     87 H87       -51.2157  -27.0406    8.5532 H         1 UNK         0.0720 
     88 H88       -50.4437  -26.7579    7.0233 H         1 UNK         0.0720 
     89 H89       -54.1320  -27.2908    5.8052 H         1 UNK         0.0814 
     90 H90       -52.6284  -26.4785    5.4404 H         1 UNK         0.0814 
     91 H91       -52.8371  -24.2384    6.1554 H         1 UNK         0.1469 
     92 H92       -54.3489  -23.2634   10.0455 H         1 UNK         0.1381 
     93 H93       -54.2987  -27.3425    8.7331 H         1 UNK         0.1206 
     94 H94       -55.8201  -25.1440   11.1041 H         1 UNK         0.0813 
     95 H95       -55.3467  -26.7970   10.8227 H         1 UNK         0.0813 
     96 H96       -51.7050  -26.8273   12.4897 H         1 UNK         0.0638 
     97 H97       -52.1655  -26.7861   10.8157 H         1 UNK         0.0638 
     98 H98       -53.7278  -28.5752   11.0522 H         1 UNK         0.0568 
     99 H99       -51.3125  -31.2727   12.4657 H         1 UNK         0.3450 
    100 H100      -52.8264  -30.7784   13.1832 H         1 UNK         0.3450 
    101 H101      -53.4604  -28.4045   14.0145 H         1 UNK         0.2987 
    102 H102      -56.2275  -28.3232   14.8314 H         1 UNK         0.0766 
    103 H103      -57.7834  -29.9660   13.8407 H         1 UNK         0.0798 
    104 H104      -57.4469  -30.4068   15.5054 H         1 UNK         0.0798 
    105 H105      -56.6754  -31.2860   14.1859 H         1 UNK         0.0798 
    106 H106      -54.8135  -29.0096   16.3685 H         1 UNK         0.3198 
    107 H107      -53.4492  -31.6329   17.4361 H         1 UNK         0.0843 
    108 H108      -51.2419  -30.5648   15.5940 H         1 UNK         0.0831 
    109 H109      -51.6742  -32.2497   15.8413 H         1 UNK         0.0831 
    110 H110      -50.9537  -31.3354   17.1546 H         1 UNK         0.0831 
    111 H111      -52.5050  -28.8288   17.0087 H         1 UNK         0.3133 
    112 H112      -54.2637  -27.6594   19.7936 H         1 UNK         0.0566 
    113 H113      -52.1225  -26.8164   20.7324 H         1 UNK         0.0814 
    114 H114      -51.2151  -28.0136   19.8062 H         1 UNK         0.0814 
    115 H115      -52.3060  -28.5253   21.0858 H         1 UNK         0.0814 
    116 H116      -52.2526  -26.4097   18.2087 H         1 UNK         0.3091 
    117 H117      -54.1186  -25.8607   15.2610 H         1 UNK         0.0702 
    118 H118      -53.6682  -23.4751   15.7334 H         1 UNK         0.0785 
    119 H119      -53.3521  -23.8340   17.4314 H         1 UNK         0.0785 
    120 H120      -54.9670  -24.0492   16.7665 H         1 UNK         0.0785 
    121 H121      -51.5678  -24.8831   15.9892 H         1 UNK         0.2998 
    122 H122      -49.5193  -26.6244   16.0859 H         1 UNK         0.0697 
    123 H123      -49.8872  -28.1026   13.4331 H         1 UNK         0.0825 
    124 H124      -49.6286  -28.8448   15.0029 H         1 UNK         0.0825 
    125 H125      -48.3613  -27.8719   14.2852 H         1 UNK         0.0825 
    126 H126      -49.4262  -25.6510   13.3598 H         1 UNK         0.3029 
    127 H127      -49.4152  -22.2276   14.2106 H         1 UNK         0.0897 
    128 H128      -46.9648  -24.0028   13.7059 H         1 UNK         0.0792 
    129 H129      -47.1738  -22.9069   15.0645 H         1 UNK         0.0792 
    130 H130      -47.0586  -22.2618   13.4364 H         1 UNK         0.0792 
    131 H131      -48.5601  -23.5995   11.8541 H         1 UNK         0.3086 
    132 H132      -51.2371  -23.9566   10.1391 H         1 UNK         0.0583 
    133 H133      -52.3611  -21.7632   10.3096 H         1 UNK         0.1020 
    134 H134      -50.8501  -20.9193   10.1895 H         1 UNK         0.1020 
    135 H135      -53.8991  -21.4861    8.4333 H         1 UNK         0.0694 
    136 H136      -53.5576  -21.8863    6.7702 H         1 UNK         0.0694 
    137 H137      -49.2754  -24.1734    9.1470 H         1 UNK         0.2989 
    138 H138      -46.6559  -22.0523    8.3324 H         1 UNK         0.1055 
    139 H139      -46.3223  -24.4606   10.2057 H         1 UNK         0.0806 
    140 H140      -45.7168  -22.8392   10.5208 H         1 UNK         0.0806 
    141 H141      -45.0804  -23.7604    9.1704 H         1 UNK         0.0806 
    142 H142      -47.3103  -24.9086    8.0251 H         1 UNK         0.3061 
    143 H143      -48.9623  -25.2554    5.8056 H         1 UNK         0.0734 
    144 H144      -47.1049  -23.8780    3.7945 H         1 UNK         0.0832 
    145 H145      -48.1512  -25.2514    3.4338 H         1 UNK         0.0832 
    146 H146      -48.8501  -23.7077    3.8936 H         1 UNK         0.0832 
    147 H147      -47.3770  -26.7341    6.1643 H         1 UNK         0.3156 
    148 H148      -44.0533  -27.1555    5.6013 H         1 UNK         0.0589 
    149 H149      -43.4614  -27.2192    8.0191 H         1 UNK         0.0808 
    150 H150      -43.4899  -25.5630    7.4383 H         1 UNK         0.0808 
    151 H151      -44.8277  -26.1728    8.4026 H         1 UNK         0.0808 
    152 H152      -46.1375  -28.0502    7.5258 H         1 UNK         0.3098 
    153 H153      -47.2290  -30.6615    5.4503 H         1 UNK         0.0720 
    154 H154      -45.1599  -31.7588    6.3317 H         1 UNK         0.0791 
    155 H155      -46.5722  -32.2211    7.2646 H         1 UNK         0.0791 
    156 H156      -45.4346  -31.0368    7.9108 H         1 UNK         0.0791 
    157 H157      -47.7751  -30.1857    8.1843 H         1 UNK         0.3028 
@<TRIPOS>BOND
     1    1    2 1    
     2    1   82 1    
     3    1   83 1    
     4    1   84 1    
     5    2    3 2    
     6    2    4 am   BACKBONE|DICT|INTERRES
     7    4    5 1    
     8    4   85 1    
     9    5    6 1    
    10    5   80 1    
    11    5   86 1    
    12    6    7 1    
    13    6   87 1    
    14    6   88 1    
    15    7    8 1    
    16    8    9 1    
    17    8   89 1    
    18    8   90 1    
    19    9   10 ar   
    20    9   14 ar   
    21   10   11 ar   
    22   10   91 1    
    23   11   12 ar   
    24   11   58 1    
    25   12   13 ar   
    26   12   92 1    
    27   13   14 ar   
    28   13   15 1    
    29   14   93 1    
    30   15   16 1    
    31   15   94 1    
    32   15   95 1    
    33   16   17 1    
    34   17   18 1    
    35   17   96 1    
    36   17   97 1    
    37   18   19 1    
    38   18   22 1    
    39   18   98 1    
    40   19   20 am   BACKBONE|DICT|INTERRES
    41   19   21 2    
    42   20   99 1    
    43   20  100 1    
    44   22   23 am   BACKBONE|DICT|INTERRES
    45   22  101 1    
    46   23   24 2    
    47   23   25 1    
    48   25   26 1    
    49   25   27 1    
    50   25  102 1    
    51   26  103 1    
    52   26  104 1    
    53   26  105 1    
    54   27   28 am   BACKBONE|DICT|INTERRES
    55   27  106 1    
    56   28   29 2    
    57   28   30 1    
    58   30   31 1    
    59   30   32 1    
    60   30  107 1    
    61   31  108 1    
    62   31  109 1    
    63   31  110 1    
    64   32   33 am   BACKBONE|DICT|INTERRES
    65   32  111 1    
    66   33   34 2    
    67   33   35 1    
    68   35   36 1    
    69   35   37 1    
    70   35  112 1    
    71   36  113 1    
    72   36  114 1    
    73   36  115 1    
    74   37   38 am   BACKBONE|DICT|INTERRES
    75   37  116 1    
    76   38   39 2    
    77   38   40 1    
    78   40   41 1    
    79   40   42 1    
    80   40  117 1    
    81   41  118 1    
    82   41  119 1    
    83   41  120 1    
    84   42   43 am   BACKBONE|DICT|INTERRES
    85   42  121 1    
    86   43   44 2    
    87   43   45 1    
    88   45   46 1    
    89   45   47 1    
    90   45  122 1    
    91   46  123 1    
    92   46  124 1    
    93   46  125 1    
    94   47   48 am   BACKBONE|DICT|INTERRES
    95   47  126 1    
    96   48   49 2    
    97   48   50 1    
    98   50   51 1    
    99   50   52 1    
   100   50  127 1    
   101   51  128 1    
   102   51  129 1    
   103   51  130 1    
   104   52   53 am   BACKBONE|DICT|INTERRES
   105   52  131 1    
   106   53   54 2    
   107   53   55 1    
   108   55   56 1    
   109   55   59 1    
   110   55  132 1    
   111   56   57 1    
   112   56  133 1    
   113   56  134 1    
   114   57   58 1    
   115   58  135 1    
   116   58  136 1    
   117   59   60 am   BACKBONE|DICT|INTERRES
   118   59  137 1    
   119   60   61 2    
   120   60   62 1    
   121   62   63 1    
   122   62   64 1    
   123   62  138 1    
   124   63  139 1    
   125   63  140 1    
   126   63  141 1    
   127   64   65 am   BACKBONE|DICT|INTERRES
   128   64  142 1    
   129   65   66 2    
   130   65   67 1    
   131   67   68 1    
   132   67   69 1    
   133   67  143 1    
   134   68  144 1    
   135   68  145 1    
   136   68  146 1    
   137   69   70 am   BACKBONE|DICT|INTERRES
   138   69  147 1    
   139   70   71 2    
   140   70   72 1    
   141   72   73 1    
   142   72   74 1    
   143   72  148 1    
   144   73  149 1    
   145   73  150 1    
   146   73  151 1    
   147   74   75 am   BACKBONE|DICT|INTERRES
   148   74  152 1    
   149   75   76 2    
   150   75   77 1    
   151   77   78 1    
   152   77   79 1    
   153   77  153 1    
   154   78  154 1    
   155   78  155 1    
   156   78  156 1    
   157   79   80 am   BACKBONE|DICT|INTERRES
   158   79  157 1    
   159   80   81 2    
@<TRIPOS>SUBSTRUCTURE
     1 UNK         1 GROUP             0       ****    0 ROOT    
