@<TRIPOS>MOLECULE
3R207
157   159    1
SMALL
USER_CHARGES


@<TRIPOS>ATOM
      1 CA        -46.9225  -32.1391    5.4390 C.3       0 UNK        -0.1975 
      2 C         -47.3247  -30.7316    5.0235 C.2       0 UNK         0.4852 
      3 O         -46.8526  -30.2380    3.9981 O.2       0 UNK        -0.5216 
      4 N         -48.1995  -30.0875    5.8064 N.am      1 UNK        -0.4461 
      5 CA        -48.6612  -28.7114    5.5986 C.3       1 UNK         0.0864 
      6 C6        -49.8659  -28.3645    6.5113 C.3       14 UNK        -0.0898 
      7 S7        -51.3047  -29.4341    6.1873 S.3       14 UNK        -0.2598 
      8 C8        -52.5048  -28.2517    5.4950 C.3       14 UNK         0.0286 
      9 C9        -53.2365  -27.4716    6.5801 C.ar      14 UNK        -0.0844 
     10 C10       -53.0311  -26.0966    6.7419 C.ar      14 UNK        -0.0881 
     11 C11       -53.7569  -25.3771    7.6995 C.ar      14 UNK        -0.0643 
     12 C12       -54.6931  -26.0458    8.4938 C.ar      14 UNK        -0.0930 
     13 C13       -54.8859  -27.4239    8.3618 C.ar      14 UNK        -0.0827 
     14 C14       -54.1590  -28.1285    7.3991 C.ar      14 UNK        -0.1249 
     15 C15       -55.8853  -28.1522    9.2477 C.3       14 UNK         0.0141 
     16 S16       -55.4610  -27.9812   11.0074 S.3       14 UNK        -0.2313 
     17 C17       -56.4903  -29.2963   11.7506 C.3       14 UNK        -0.0915 
     18 CA        -55.6608  -30.4555   12.3697 C.3       13 UNK         0.0968 
     19 C         -55.0618  -31.4156   11.3043 C.2       13 UNK         0.5732 
     20 N         -55.9082  -32.1432   10.5877 N.am      13 UNK        -0.7310 
     21 O         -53.8507  -31.5073   11.1108 O.2       13 UNK        -0.5035 
     22 N         -54.6537  -29.9174   13.2849 N.am      13 UNK        -0.4233 
     23 C         -54.1289  -30.5254   14.3520 C.2       13 UNK         0.4989 
     24 O         -54.4456  -31.6546   14.7283 O.2       13 UNK        -0.4996 
     25 CA        -53.0825  -29.7217   15.1494 C.3       12 UNK         0.0216 
     26 CB        -51.6676  -30.2447   14.8530 C.3       12 UNK        -0.1964 
     27 N         -53.1373  -28.2822   14.8623 N.am      12 UNK        -0.4276 
     28 C         -54.1083  -27.4601   15.2831 C.2       12 UNK         0.5020 
     29 O         -54.9983  -27.7965   16.0669 O.2       12 UNK        -0.5489 
     30 CA        -54.0793  -26.0373   14.6999 C.3       11 UNK         0.0294 
     31 CB        -55.4805  -25.4005   14.5906 C.3       11 UNK        -0.2019 
     32 N         -53.1448  -25.1772   15.4304 N.am      11 UNK        -0.4493 
     33 C         -53.2172  -24.7572   16.7037 C.2       11 UNK         0.4932 
     34 O         -54.1657  -24.9780   17.4579 O.2       11 UNK        -0.5029 
     35 CA        -52.0131  -23.9350   17.2117 C.3       10 UNK         0.0280 
     36 CB        -51.9981  -23.7621   18.7456 C.3       10 UNK        -0.1976 
     37 N         -50.7258  -24.4525   16.7323 N.am      10 UNK        -0.4242 
     38 C         -50.2213  -25.6829   16.9273 C.2       10 UNK         0.5072 
     39 O         -50.7554  -26.5352   17.6384 O.2       10 UNK        -0.5224 
     40 CA        -48.9143  -26.0404   16.1951 C.3       9 UNK         0.0343 
     41 CB        -49.0282  -27.4101   15.5044 C.3       9 UNK        -0.2003 
     42 N         -48.5605  -25.0347   15.1906 N.am      9 UNK        -0.4272 
     43 C         -47.5279  -24.1847   15.2763 C.2       9 UNK         0.4988 
     44 O         -46.6989  -24.2006   16.1869 O.2       9 UNK        -0.5108 
     45 CA        -47.4038  -23.1106   14.1768 C.3       8 UNK         0.0248 
     46 CB        -46.4280  -23.5782   13.0877 C.3       8 UNK        -0.2001 
     47 N         -48.6818  -22.7369   13.5587 N.am      8 UNK        -0.4140 
     48 C         -49.7059  -22.1676   14.2136 C.2       8 UNK         0.5028 
     49 O         -49.6717  -21.8787   15.4096 O.2       8 UNK        -0.5428 
     50 CA        -51.0163  -21.9384   13.4376 C.3       7 UNK         0.0264 
     51 CB        -51.0498  -20.5170   12.8548 C.3       7 UNK        -0.1988 
     52 N         -51.2841  -22.9038   12.3660 N.am      7 UNK        -0.4454 
     53 C         -51.3014  -24.2388   12.4860 C.2       7 UNK         0.5027 
     54 O         -51.0564  -24.8172   13.5489 O.2       7 UNK        -0.5083 
     55 CA        -51.6415  -25.0605   11.2222 C.3       6 UNK         0.0844 
     56 C56       -51.6152  -24.2487    9.8962 C.3       14 UNK        -0.0967 
     57 S57       -53.1782  -23.3685    9.5739 S.3       14 UNK        -0.2604 
     58 C58       -53.5480  -23.8737    7.8572 C.3       14 UNK         0.0134 
     59 N         -50.7405  -26.2034   11.1303 N.am      6 UNK        -0.4116 
     60 C         -50.9133  -27.4036   11.6952 C.2       5 UNK         0.5034 
     61 O         -51.8653  -27.6963   12.4199 O.2       5 UNK        -0.5045 
     62 CA        -49.8534  -28.4739   11.3759 C.3       5 UNK         0.0224 
     63 CB        -50.4735  -29.5874   10.5147 C.3       5 UNK        -0.1978 
     64 N         -48.6828  -27.9246   10.6778 N.am      5 UNK        -0.4737 
     65 C         -47.6397  -27.3492   11.2906 C.2       4 UNK         0.5027 
     66 O         -47.5110  -27.2849   12.5104 O.2       4 UNK        -0.5211 
     67 CA        -46.5778  -26.7050   10.3868 C.3       4 UNK         0.0297 
     68 CB        -45.5811  -27.7626    9.8872 C.3       4 UNK        -0.1993 
     69 N         -47.1444  -25.9686    9.2500 N.am      4 UNK        -0.4486 
     70 C         -47.8852  -24.8526    9.3563 C.2       3 UNK         0.4961 
     71 O         -48.2791  -24.4093   10.4360 O.2       3 UNK        -0.5105 
     72 CA        -48.3130  -24.1102    8.0712 C.3       3 UNK         0.0299 
     73 CB        -47.9951  -22.6033    8.1557 C.3       3 UNK        -0.1972 
     74 N         -47.8264  -24.6900    6.8149 N.am      3 UNK        -0.4305 
     75 C         -46.5664  -24.7840    6.3621 C.2       2 UNK         0.5006 
     76 O         -45.5881  -24.2995    6.9319 O.2       2 UNK        -0.5106 
     77 CA        -46.3841  -25.6155    5.0720 C.3       2 UNK         0.0296 
     78 CB        -44.9376  -26.1257    4.8951 C.3       2 UNK        -0.2002 
     79 N         -47.3418  -26.7317    4.9657 N.am      2 UNK        -0.4032 
     80 C         -47.5146  -27.7183    5.8610 C.2       1 UNK         0.5000 
     81 O         -46.8658  -27.8188    6.9047 O.2       1 UNK        -0.5238 
     82 H82       -47.1764  -32.8495    4.6527 H         1 UNK         0.0889 
     83 H83       -47.4240  -32.4531    6.3543 H         1 UNK         0.0889 
     84 H84       -45.8472  -32.1869    5.6081 H         1 UNK         0.0889 
     85 H85       -48.5519  -30.5411    6.6365 H         1 UNK         0.3028 
     86 H86       -48.9753  -28.6171    4.5567 H         1 UNK         0.0864 
     87 H87       -49.5962  -28.4751    7.5628 H         1 UNK         0.0720 
     88 H88       -50.1610  -27.3211    6.3859 H         1 UNK         0.0720 
     89 H89       -53.2386  -28.8072    4.9091 H         1 UNK         0.0814 
     90 H90       -52.0051  -27.5827    4.7927 H         1 UNK         0.0814 
     91 H91       -52.3203  -25.5829    6.1093 H         1 UNK         0.1469 
     92 H92       -55.2604  -25.4951    9.2317 H         1 UNK         0.1381 
     93 H93       -54.3122  -29.1925    7.2791 H         1 UNK         0.1206 
     94 H94       -55.9200  -29.2120    8.9897 H         1 UNK         0.0813 
     95 H95       -56.8858  -27.7537    9.0749 H         1 UNK         0.0813 
     96 H96       -57.0872  -28.8287   12.5351 H         1 UNK         0.0638 
     97 H97       -57.2138  -29.6699   11.0242 H         1 UNK         0.0638 
     98 H98       -56.3456  -31.0616   12.9660 H         1 UNK         0.0568 
     99 H99       -56.9035  -32.0872   10.7360 H         1 UNK         0.3450 
    100 H100      -55.5407  -32.7710    9.8903 H         1 UNK         0.3450 
    101 H101      -54.2785  -29.0193   13.0170 H         1 UNK         0.2987 
    102 H102      -53.2901  -29.8710   16.2111 H         1 UNK         0.0766 
    103 H103      -51.3963  -30.1064   13.8058 H         1 UNK         0.0798 
    104 H104      -51.5920  -31.3110   15.0705 H         1 UNK         0.0798 
    105 H105      -50.9231  -29.7389   15.4659 H         1 UNK         0.0798 
    106 H106      -52.4935  -27.9437   14.1485 H         1 UNK         0.3198 
    107 H107      -53.6914  -26.1133   13.6829 H         1 UNK         0.0843 
    108 H108      -55.9656  -25.2991   15.5617 H         1 UNK         0.0831 
    109 H109      -56.1328  -26.0142   13.9680 H         1 UNK         0.0831 
    110 H110      -55.4318  -24.4120   14.1343 H         1 UNK         0.0831 
    111 H111      -52.2918  -24.9648   14.9163 H         1 UNK         0.3133 
    112 H112      -52.1197  -22.9421   16.7724 H         1 UNK         0.0566 
    113 H113      -51.1475  -23.1620   19.0687 H         1 UNK         0.0814 
    114 H114      -52.9001  -23.2554   19.0908 H         1 UNK         0.0814 
    115 H115      -51.9477  -24.7216   19.2613 H         1 UNK         0.0814 
    116 H116      -50.1884  -23.8056   16.1663 H         1 UNK         0.3091 
    117 H117      -48.1373  -26.1106   16.9585 H         1 UNK         0.0702 
    118 H118      -49.2690  -28.1943   16.2225 H         1 UNK         0.0785 
    119 H119      -49.8031  -27.4115   14.7366 H         1 UNK         0.0785 
    120 H120      -48.0866  -27.6914   15.0343 H         1 UNK         0.0785 
    121 H121      -49.2071  -24.9458   14.4130 H         1 UNK         0.2998 
    122 H122      -46.9915  -22.2126   14.6414 H         1 UNK         0.0697 
    123 H123      -46.7714  -24.5026   12.6250 H         1 UNK         0.0825 
    124 H124      -45.4394  -23.7725   13.5057 H         1 UNK         0.0825 
    125 H125      -46.3099  -22.8310   12.3028 H         1 UNK         0.0825 
    126 H126      -48.7984  -22.9715   12.5817 H         1 UNK         0.3029 
    127 H127      -51.8320  -22.0299   14.1579 H         1 UNK         0.0897 
    128 H128      -50.2827  -20.3749   12.0924 H         1 UNK         0.0792 
    129 H129      -50.8785  -19.7712   13.6327 H         1 UNK         0.0792 
    130 H130      -52.0174  -20.2939   12.4045 H         1 UNK         0.0792 
    131 H131      -51.5343  -22.5138   11.4675 H         1 UNK         0.3086 
    132 H132      -52.6531  -25.4475   11.3639 H         1 UNK         0.0583 
    133 H133      -50.7833  -23.5441    9.8541 H         1 UNK         0.1020 
    134 H134      -51.4451  -24.9320    9.0634 H         1 UNK         0.1020 
    135 H135      -54.4521  -23.3596    7.5290 H         1 UNK         0.0694 
    136 H136      -52.7429  -23.5228    7.2096 H         1 UNK         0.0694 
    137 H137      -49.8617  -26.0317   10.6636 H         1 UNK         0.2989 
    138 H138      -49.5350  -28.9092   12.3261 H         1 UNK         0.1055 
    139 H139      -51.3079  -30.0622   11.0340 H         1 UNK         0.0806 
    140 H140      -49.7481  -30.3692   10.2894 H         1 UNK         0.0806 
    141 H141      -50.8619  -29.2031    9.5706 H         1 UNK         0.0806 
    142 H142      -48.6905  -27.9497    9.6685 H         1 UNK         0.3061 
    143 H143      -46.0193  -25.9876   10.9902 H         1 UNK         0.0734 
    144 H144      -44.8116  -27.3185    9.2554 H         1 UNK         0.0832 
    145 H145      -45.0754  -28.2446   10.7249 H         1 UNK         0.0832 
    146 H146      -46.0742  -28.5477    9.3131 H         1 UNK         0.0832 
    147 H147      -46.9024  -26.3169    8.3278 H         1 UNK         0.3156 
    148 H148      -49.3965  -24.2074    8.0185 H         1 UNK         0.0589 
    149 H149      -46.9263  -22.4193    8.2680 H         1 UNK         0.0808 
    150 H150      -48.3357  -22.0744    7.2656 H         1 UNK         0.0808 
    151 H151      -48.4914  -22.1447    9.0120 H         1 UNK         0.0808 
    152 H152      -48.5402  -25.1188    6.2436 H         1 UNK         0.3098 
    153 H153      -46.6006  -24.9399    4.2432 H         1 UNK         0.0720 
    154 H154      -44.8294  -26.6997    3.9749 H         1 UNK         0.0791 
    155 H155      -44.6289  -26.7627    5.7249 H         1 UNK         0.0791 
    156 H156      -44.2320  -25.2956    4.8425 H         1 UNK         0.0791 
    157 H157      -47.9252  -26.7256    4.1396 H         1 UNK         0.3028 
@<TRIPOS>BOND
     1    1    2 1    
     2    1   82 1    
     3    1   83 1    
     4    1   84 1    
     5    2    3 2    
     6    2    4 am   BACKBONE|DICT|INTERRES
     7    4    5 1    
     8    4   85 1    
     9    5    6 1    
    10    5   80 1    
    11    5   86 1    
    12    6    7 1    
    13    6   87 1    
    14    6   88 1    
    15    7    8 1    
    16    8    9 1    
    17    8   89 1    
    18    8   90 1    
    19    9   10 ar   
    20    9   14 ar   
    21   10   11 ar   
    22   10   91 1    
    23   11   12 ar   
    24   11   58 1    
    25   12   13 ar   
    26   12   92 1    
    27   13   14 ar   
    28   13   15 1    
    29   14   93 1    
    30   15   16 1    
    31   15   94 1    
    32   15   95 1    
    33   16   17 1    
    34   17   18 1    
    35   17   96 1    
    36   17   97 1    
    37   18   19 1    
    38   18   22 1    
    39   18   98 1    
    40   19   20 am   BACKBONE|DICT|INTERRES
    41   19   21 2    
    42   20   99 1    
    43   20  100 1    
    44   22   23 am   BACKBONE|DICT|INTERRES
    45   22  101 1    
    46   23   24 2    
    47   23   25 1    
    48   25   26 1    
    49   25   27 1    
    50   25  102 1    
    51   26  103 1    
    52   26  104 1    
    53   26  105 1    
    54   27   28 am   BACKBONE|DICT|INTERRES
    55   27  106 1    
    56   28   29 2    
    57   28   30 1    
    58   30   31 1    
    59   30   32 1    
    60   30  107 1    
    61   31  108 1    
    62   31  109 1    
    63   31  110 1    
    64   32   33 am   BACKBONE|DICT|INTERRES
    65   32  111 1    
    66   33   34 2    
    67   33   35 1    
    68   35   36 1    
    69   35   37 1    
    70   35  112 1    
    71   36  113 1    
    72   36  114 1    
    73   36  115 1    
    74   37   38 am   BACKBONE|DICT|INTERRES
    75   37  116 1    
    76   38   39 2    
    77   38   40 1    
    78   40   41 1    
    79   40   42 1    
    80   40  117 1    
    81   41  118 1    
    82   41  119 1    
    83   41  120 1    
    84   42   43 am   BACKBONE|DICT|INTERRES
    85   42  121 1    
    86   43   44 2    
    87   43   45 1    
    88   45   46 1    
    89   45   47 1    
    90   45  122 1    
    91   46  123 1    
    92   46  124 1    
    93   46  125 1    
    94   47   48 am   BACKBONE|DICT|INTERRES
    95   47  126 1    
    96   48   49 2    
    97   48   50 1    
    98   50   51 1    
    99   50   52 1    
   100   50  127 1    
   101   51  128 1    
   102   51  129 1    
   103   51  130 1    
   104   52   53 am   BACKBONE|DICT|INTERRES
   105   52  131 1    
   106   53   54 2    
   107   53   55 1    
   108   55   56 1    
   109   55   59 1    
   110   55  132 1    
   111   56   57 1    
   112   56  133 1    
   113   56  134 1    
   114   57   58 1    
   115   58  135 1    
   116   58  136 1    
   117   59   60 am   BACKBONE|DICT|INTERRES
   118   59  137 1    
   119   60   61 2    
   120   60   62 1    
   121   62   63 1    
   122   62   64 1    
   123   62  138 1    
   124   63  139 1    
   125   63  140 1    
   126   63  141 1    
   127   64   65 am   BACKBONE|DICT|INTERRES
   128   64  142 1    
   129   65   66 2    
   130   65   67 1    
   131   67   68 1    
   132   67   69 1    
   133   67  143 1    
   134   68  144 1    
   135   68  145 1    
   136   68  146 1    
   137   69   70 am   BACKBONE|DICT|INTERRES
   138   69  147 1    
   139   70   71 2    
   140   70   72 1    
   141   72   73 1    
   142   72   74 1    
   143   72  148 1    
   144   73  149 1    
   145   73  150 1    
   146   73  151 1    
   147   74   75 am   BACKBONE|DICT|INTERRES
   148   74  152 1    
   149   75   76 2    
   150   75   77 1    
   151   77   78 1    
   152   77   79 1    
   153   77  153 1    
   154   78  154 1    
   155   78  155 1    
   156   78  156 1    
   157   79   80 am   BACKBONE|DICT|INTERRES
   158   79  157 1    
   159   80   81 2    
@<TRIPOS>SUBSTRUCTURE
     1 UNK         1 GROUP             0       ****    0 ROOT    
