@<TRIPOS>MOLECULE
3R207
157   159    1
SMALL
USER_CHARGES


@<TRIPOS>ATOM
      1 CA        -47.4631  -28.7698   11.0276 C.3       0 UNK        -0.1975 
      2 C         -47.5171  -29.0697    9.5388 C.2       0 UNK         0.4852 
      3 O         -46.7026  -29.8464    9.0379 O.2       0 UNK        -0.5216 
      4 N         -48.4628  -28.4521    8.8203 N.am      1 UNK        -0.4461 
      5 CA        -48.7131  -28.6320    7.3817 C.3       1 UNK         0.0864 
      6 C6        -50.1830  -28.2791    7.0259 C.3       14 UNK        -0.0898 
      7 S7        -51.3561  -29.3923    7.8709 S.3       14 UNK        -0.2598 
      8 C8        -52.9036  -29.0724    6.9691 C.3       14 UNK         0.0286 
      9 C9        -53.7324  -27.9774    7.6257 C.ar      14 UNK        -0.0844 
     10 C10       -53.7019  -26.6679    7.1358 C.ar      14 UNK        -0.0881 
     11 C11       -54.5066  -25.6762    7.7088 C.ar      14 UNK        -0.0643 
     12 C12       -55.3367  -26.0013    8.7865 C.ar      14 UNK        -0.0930 
     13 C13       -55.3832  -27.3092    9.2779 C.ar      14 UNK        -0.0827 
     14 C14       -54.5746  -28.2906    8.6974 C.ar      14 UNK        -0.1249 
     15 C15       -56.3326  -27.6723   10.4101 C.3       14 UNK         0.0141 
     16 S16       -55.4765  -27.6538   12.0096 S.3       14 UNK        -0.2313 
     17 C17       -56.8220  -28.0666   13.1718 C.3       14 UNK        -0.0915 
     18 CA        -56.8064  -29.5234   13.7129 C.3       13 UNK         0.0968 
     19 C         -57.0834  -30.5790   12.6030 C.2       13 UNK         0.5732 
     20 N         -58.3054  -30.6259   12.0886 N.am      13 UNK        -0.7310 
     21 O         -56.2075  -31.3356   12.1866 O.2       13 UNK        -0.5035 
     22 N         -55.6088  -29.8178   14.5190 N.am      13 UNK        -0.4233 
     23 C         -55.5241  -30.8524   15.3704 C.2       13 UNK         0.4989 
     24 O         -56.4742  -31.5865   15.6474 O.2       13 UNK        -0.4996 
     25 CA        -54.1692  -31.1239   16.0417 C.3       12 UNK         0.0216 
     26 CB        -53.2428  -31.8940   15.0854 C.3       12 UNK        -0.1964 
     27 N         -53.5149  -29.8844   16.4574 N.am      12 UNK        -0.4276 
     28 C         -53.4120  -29.4441   17.7188 C.2       12 UNK         0.5020 
     29 O         -53.8383  -30.0611   18.6963 O.2       12 UNK        -0.5489 
     30 CA        -52.7074  -28.0902   17.9447 C.3       11 UNK         0.0294 
     31 CB        -51.2374  -28.3103   18.3368 C.3       11 UNK        -0.2019 
     32 N         -52.7606  -27.1997   16.7834 N.am      11 UNK        -0.4493 
     33 C         -53.8782  -26.6315   16.3091 C.2       11 UNK         0.4932 
     34 O         -54.9710  -26.7043   16.8714 O.2       11 UNK        -0.5029 
     35 CA        -53.7765  -25.8757   14.9708 C.3       10 UNK         0.0280 
     36 CB        -53.6401  -24.3668   15.2318 C.3       10 UNK        -0.1976 
     37 N         -52.6988  -26.3083   14.0691 N.am      10 UNK        -0.4242 
     38 C         -52.4210  -27.5642   13.6822 C.2       10 UNK         0.5072 
     39 O         -53.0351  -28.5554   14.0760 O.2       10 UNK        -0.5224 
     40 CA        -51.2432  -27.7687   12.7169 C.3       9 UNK         0.0343 
     41 CB        -51.7496  -27.8318   11.2688 C.3       9 UNK        -0.2003 
     42 N         -50.1994  -26.7477   12.8344 N.am      9 UNK        -0.4272 
     43 C         -49.4489  -26.5426   13.9279 C.2       9 UNK         0.4988 
     44 O         -49.5602  -27.1912   14.9690 O.2       9 UNK        -0.5108 
     45 CA        -48.4171  -25.4079   13.8539 C.3       8 UNK         0.0248 
     46 CB        -47.1327  -25.8678   13.1467 C.3       8 UNK        -0.2001 
     47 N         -48.9645  -24.2298   13.1802 N.am      8 UNK        -0.4140 
     48 C         -49.7537  -23.3266   13.7783 C.2       8 UNK         0.5028 
     49 O         -50.0154  -23.3327   14.9813 O.2       8 UNK        -0.5428 
     50 CA        -50.3757  -22.2418   12.8834 C.3       7 UNK         0.0264 
     51 CB        -49.4581  -21.0113   12.8059 C.3       7 UNK        -0.1988 
     52 N         -50.6787  -22.7153   11.5299 N.am      7 UNK        -0.4454 
     53 C         -51.6350  -23.6130   11.2398 C.2       7 UNK         0.5027 
     54 O         -52.3534  -24.1387   12.0881 O.2       7 UNK        -0.5083 
     55 CA        -51.7939  -24.0197    9.7609 C.3       6 UNK         0.0844 
     56 C56       -52.8112  -23.0928    9.0501 C.3       14 UNK        -0.0967 
     57 S57       -52.9339  -23.4154    7.2554 S.3       14 UNK        -0.2604 
     58 C58       -54.5332  -24.2713    7.1208 C.3       14 UNK         0.0134 
     59 N         -50.5143  -24.0754    9.0541 N.am      6 UNK        -0.4116 
     60 C         -49.4627  -24.8375    9.3709 C.2       5 UNK         0.5034 
     61 O         -49.4139  -25.5855   10.3493 O.2       5 UNK        -0.5045 
     62 CA        -48.2506  -24.7586    8.4365 C.3       5 UNK         0.0224 
     63 CB        -48.5141  -24.0357    7.0961 C.3       5 UNK        -0.1978 
     64 N         -47.0707  -24.2006    9.0892 N.am      5 UNK        -0.4737 
     65 C         -46.9431  -22.9964    9.6633 C.2       4 UNK         0.5027 
     66 O         -47.8843  -22.2280    9.8658 O.2       4 UNK        -0.5211 
     67 CA        -45.5159  -22.5645   10.0571 C.3       4 UNK         0.0297 
     68 CB        -45.3254  -22.6374   11.5796 C.3       4 UNK        -0.1993 
     69 N         -44.4642  -23.3532    9.4006 N.am      4 UNK        -0.4486 
     70 C         -44.1912  -23.3342    8.0873 C.2       3 UNK         0.4961 
     71 O         -44.7257  -22.5657    7.2871 O.2       3 UNK        -0.5105 
     72 CA        -43.1747  -24.3649    7.5604 C.3       3 UNK         0.0299 
     73 CB        -42.2469  -24.9526    8.6496 C.3       3 UNK        -0.1972 
     74 N         -43.8357  -25.4362    6.8012 N.am      3 UNK        -0.4305 
     75 C         -44.7546  -26.3038    7.2534 C.2       2 UNK         0.5006 
     76 O         -45.1838  -26.3095    8.4111 O.2       2 UNK        -0.5106 
     77 CA        -45.2505  -27.3539    6.2424 C.3       2 UNK         0.0296 
     78 CB        -44.1344  -28.3640    5.9224 C.3       2 UNK        -0.2002 
     79 N         -46.3910  -28.0901    6.7888 N.am      2 UNK        -0.4032 
     80 C         -47.6814  -27.8632    6.5181 C.2       1 UNK         0.5000 
     81 O         -48.0637  -27.0607    5.6644 O.2       1 UNK        -0.5238 
     82 H82       -48.2701  -28.1062   11.3329 H         1 UNK         0.0889 
     83 H83       -46.5144  -28.2959   11.2776 H         1 UNK         0.0889 
     84 H84       -47.5480  -29.6921   11.6013 H         1 UNK         0.0889 
     85 H85       -49.0895  -27.8134    9.2897 H         1 UNK         0.3028 
     86 H86       -48.5675  -29.6881    7.1432 H         1 UNK         0.0864 
     87 H87       -50.4168  -27.2462    7.2910 H         1 UNK         0.0720 
     88 H88       -50.3460  -28.3708    5.9504 H         1 UNK         0.0720 
     89 H89       -53.4850  -29.9952    6.9448 H         1 UNK         0.0814 
     90 H90       -52.6925  -28.8275    5.9272 H         1 UNK         0.0814 
     91 H91       -53.0668  -26.4209    6.2960 H         1 UNK         0.1469 
     92 H92       -55.9686  -25.2425    9.2275 H         1 UNK         0.1381 
     93 H93       -54.6094  -29.3038    9.0746 H         1 UNK         0.1206 
     94 H94       -57.1721  -26.9759   10.4394 H         1 UNK         0.0813 
     95 H95       -56.7566  -28.6619   10.2343 H         1 UNK         0.0813 
     96 H96       -57.7822  -27.8449   12.7034 H         1 UNK         0.0638 
     97 H97       -56.7493  -27.3752   14.0123 H         1 UNK         0.0638 
     98 H98       -57.6513  -29.5959   14.4008 H         1 UNK         0.0568 
     99 H99       -59.0359  -30.0140   12.4169 H         1 UNK         0.3450 
    100 H100      -58.5039  -31.2979   11.3644 H         1 UNK         0.3450 
    101 H101      -54.7697  -29.2946   14.2852 H         1 UNK         0.2987 
    102 H102      -54.3529  -31.7599   16.9103 H         1 UNK         0.0766 
    103 H103      -53.0191  -31.3201   14.1850 H         1 UNK         0.0798 
    104 H104      -52.2970  -32.1431   15.5666 H         1 UNK         0.0798 
    105 H105      -53.7024  -32.8310   14.7679 H         1 UNK         0.0798 
    106 H106      -53.1799  -29.2895   15.7005 H         1 UNK         0.3198 
    107 H107      -53.2138  -27.5930   18.7749 H         1 UNK         0.0843 
    108 H108      -51.1589  -28.9566   19.2122 H         1 UNK         0.0831 
    109 H109      -50.7471  -27.3689   18.5857 H         1 UNK         0.0831 
    110 H110      -50.6712  -28.7808   17.5315 H         1 UNK         0.0831 
    111 H111      -51.9058  -27.0860   16.2543 H         1 UNK         0.3133 
    112 H112      -54.7154  -26.0411   14.4418 H         1 UNK         0.0566 
    113 H113      -54.4139  -24.0132   15.9148 H         1 UNK         0.0814 
    114 H114      -53.7426  -23.7925   14.3115 H         1 UNK         0.0814 
    115 H115      -52.6745  -24.1211   15.6757 H         1 UNK         0.0814 
    116 H116      -52.1957  -25.5620   13.6020 H         1 UNK         0.3091 
    117 H117      -50.7859  -28.7305   12.9579 H         1 UNK         0.0702 
    118 H118      -52.2846  -26.9247   10.9903 H         1 UNK         0.0785 
    119 H119      -52.4436  -28.6629   11.1354 H         1 UNK         0.0785 
    120 H120      -50.9339  -27.9757   10.5621 H         1 UNK         0.0785 
    121 H121      -50.0097  -26.1969   12.0008 H         1 UNK         0.2998 
    122 H122      -48.1520  -25.1431   14.8800 H         1 UNK         0.0697 
    123 H123      -47.2626  -25.9466   12.0670 H         1 UNK         0.0825 
    124 H124      -46.8071  -26.8421   13.5140 H         1 UNK         0.0825 
    125 H125      -46.3179  -25.1716   13.3380 H         1 UNK         0.0825 
    126 H126      -48.8338  -24.1699   12.1797 H         1 UNK         0.3029 
    127 H127      -51.3158  -21.9361   13.3487 H         1 UNK         0.0897 
    128 H128      -49.9194  -20.2072   12.2323 H         1 UNK         0.0792 
    129 H129      -49.2481  -20.6187   13.8018 H         1 UNK         0.0792 
    130 H130      -48.5008  -21.2481   12.3410 H         1 UNK         0.0792 
    131 H131      -50.0927  -22.3645   10.7817 H         1 UNK         0.3086 
    132 H132      -52.2027  -25.0308    9.7415 H         1 UNK         0.0583 
    133 H133      -53.7974  -23.1928    9.5082 H         1 UNK         0.1020 
    134 H134      -52.5287  -22.0452    9.1736 H         1 UNK         0.1020 
    135 H135      -55.3076  -23.6616    7.5889 H         1 UNK         0.0694 
    136 H136      -54.8005  -24.3409    6.0655 H         1 UNK         0.0694 
    137 H137      -50.4533  -23.5017    8.2256 H         1 UNK         0.2989 
    138 H138      -47.9916  -25.7879    8.2134 H         1 UNK         0.1055 
    139 H139      -49.3528  -24.4840    6.5607 H         1 UNK         0.0806 
    140 H140      -47.6466  -24.1152    6.4402 H         1 UNK         0.0806 
    141 H141      -48.7248  -22.9739    7.2294 H         1 UNK         0.0806 
    142 H142      -46.2397  -24.7823    9.0191 H         1 UNK         0.3061 
    143 H143      -45.4019  -21.5235    9.7477 H         1 UNK         0.0734 
    144 H144      -46.1147  -22.0966   12.1037 H         1 UNK         0.0832 
    145 H145      -45.3405  -23.6665   11.9347 H         1 UNK         0.0832 
    146 H146      -44.3765  -22.1936   11.8809 H         1 UNK         0.0832 
    147 H147      -43.9843  -24.0347    9.9709 H         1 UNK         0.3156 
    148 H148      -42.5415  -23.8298    6.8510 H         1 UNK         0.0589 
    149 H149      -42.7830  -25.5658    9.3745 H         1 UNK         0.0808 
    150 H150      -41.4753  -25.5798    8.2030 H         1 UNK         0.0808 
    151 H151      -41.7337  -24.1613    9.1980 H         1 UNK         0.0808 
    152 H152      -43.5729  -25.4937    5.8268 H         1 UNK         0.3098 
    153 H153      -45.5395  -26.8394    5.3236 H         1 UNK         0.0720 
    154 H154      -44.4795  -29.1234    5.2204 H         1 UNK         0.0791 
    155 H155      -43.7840  -28.8752    6.8204 H         1 UNK         0.0791 
    156 H156      -43.2720  -27.8758    5.4670 H         1 UNK         0.0791 
    157 H157      -46.1910  -28.7181    7.5632 H         1 UNK         0.3028 
@<TRIPOS>BOND
     1    1    2 1    
     2    1   82 1    
     3    1   83 1    
     4    1   84 1    
     5    2    3 2    
     6    2    4 am   BACKBONE|DICT|INTERRES
     7    4    5 1    
     8    4   85 1    
     9    5    6 1    
    10    5   80 1    
    11    5   86 1    
    12    6    7 1    
    13    6   87 1    
    14    6   88 1    
    15    7    8 1    
    16    8    9 1    
    17    8   89 1    
    18    8   90 1    
    19    9   10 ar   
    20    9   14 ar   
    21   10   11 ar   
    22   10   91 1    
    23   11   12 ar   
    24   11   58 1    
    25   12   13 ar   
    26   12   92 1    
    27   13   14 ar   
    28   13   15 1    
    29   14   93 1    
    30   15   16 1    
    31   15   94 1    
    32   15   95 1    
    33   16   17 1    
    34   17   18 1    
    35   17   96 1    
    36   17   97 1    
    37   18   19 1    
    38   18   22 1    
    39   18   98 1    
    40   19   20 am   BACKBONE|DICT|INTERRES
    41   19   21 2    
    42   20   99 1    
    43   20  100 1    
    44   22   23 am   BACKBONE|DICT|INTERRES
    45   22  101 1    
    46   23   24 2    
    47   23   25 1    
    48   25   26 1    
    49   25   27 1    
    50   25  102 1    
    51   26  103 1    
    52   26  104 1    
    53   26  105 1    
    54   27   28 am   BACKBONE|DICT|INTERRES
    55   27  106 1    
    56   28   29 2    
    57   28   30 1    
    58   30   31 1    
    59   30   32 1    
    60   30  107 1    
    61   31  108 1    
    62   31  109 1    
    63   31  110 1    
    64   32   33 am   BACKBONE|DICT|INTERRES
    65   32  111 1    
    66   33   34 2    
    67   33   35 1    
    68   35   36 1    
    69   35   37 1    
    70   35  112 1    
    71   36  113 1    
    72   36  114 1    
    73   36  115 1    
    74   37   38 am   BACKBONE|DICT|INTERRES
    75   37  116 1    
    76   38   39 2    
    77   38   40 1    
    78   40   41 1    
    79   40   42 1    
    80   40  117 1    
    81   41  118 1    
    82   41  119 1    
    83   41  120 1    
    84   42   43 am   BACKBONE|DICT|INTERRES
    85   42  121 1    
    86   43   44 2    
    87   43   45 1    
    88   45   46 1    
    89   45   47 1    
    90   45  122 1    
    91   46  123 1    
    92   46  124 1    
    93   46  125 1    
    94   47   48 am   BACKBONE|DICT|INTERRES
    95   47  126 1    
    96   48   49 2    
    97   48   50 1    
    98   50   51 1    
    99   50   52 1    
   100   50  127 1    
   101   51  128 1    
   102   51  129 1    
   103   51  130 1    
   104   52   53 am   BACKBONE|DICT|INTERRES
   105   52  131 1    
   106   53   54 2    
   107   53   55 1    
   108   55   56 1    
   109   55   59 1    
   110   55  132 1    
   111   56   57 1    
   112   56  133 1    
   113   56  134 1    
   114   57   58 1    
   115   58  135 1    
   116   58  136 1    
   117   59   60 am   BACKBONE|DICT|INTERRES
   118   59  137 1    
   119   60   61 2    
   120   60   62 1    
   121   62   63 1    
   122   62   64 1    
   123   62  138 1    
   124   63  139 1    
   125   63  140 1    
   126   63  141 1    
   127   64   65 am   BACKBONE|DICT|INTERRES
   128   64  142 1    
   129   65   66 2    
   130   65   67 1    
   131   67   68 1    
   132   67   69 1    
   133   67  143 1    
   134   68  144 1    
   135   68  145 1    
   136   68  146 1    
   137   69   70 am   BACKBONE|DICT|INTERRES
   138   69  147 1    
   139   70   71 2    
   140   70   72 1    
   141   72   73 1    
   142   72   74 1    
   143   72  148 1    
   144   73  149 1    
   145   73  150 1    
   146   73  151 1    
   147   74   75 am   BACKBONE|DICT|INTERRES
   148   74  152 1    
   149   75   76 2    
   150   75   77 1    
   151   77   78 1    
   152   77   79 1    
   153   77  153 1    
   154   78  154 1    
   155   78  155 1    
   156   78  156 1    
   157   79   80 am   BACKBONE|DICT|INTERRES
   158   79  157 1    
   159   80   81 2    
@<TRIPOS>SUBSTRUCTURE
     1 UNK         1 GROUP             0       ****    0 ROOT    
