@<TRIPOS>MOLECULE
3R207
157   159    1
SMALL
USER_CHARGES


@<TRIPOS>ATOM
      1 CA        -47.6832  -31.1719    8.6561 C.3       0 UNK        -0.1975 
      2 C         -48.1800  -30.6728    7.3077 C.2       0 UNK         0.4852 
      3 O         -47.6878  -31.1169    6.2692 O.2       0 UNK        -0.5216 
      4 N         -49.1450  -29.7444    7.3136 N.am      1 UNK        -0.4461 
      5 CA        -49.7834  -29.1326    6.1401 C.3       1 UNK         0.0864 
      6 C6        -51.1437  -28.4902    6.5143 C.3       14 UNK        -0.0898 
      7 S7        -52.3236  -29.6609    7.2672 S.3       14 UNK        -0.2598 
      8 C8        -53.9130  -28.8778    6.8424 C.3       14 UNK         0.0286 
      9 C9        -54.0804  -27.5363    7.5417 C.ar      14 UNK        -0.0844 
     10 C10       -53.6766  -26.3569    6.9101 C.ar      14 UNK        -0.0881 
     11 C11       -53.7960  -25.1251    7.5580 C.ar      14 UNK        -0.0643 
     12 C12       -54.3517  -25.0726    8.8398 C.ar      14 UNK        -0.0930 
     13 C13       -54.7635  -26.2459    9.4805 C.ar      14 UNK        -0.0827 
     14 C14       -54.6296  -27.4738    8.8246 C.ar      14 UNK        -0.1249 
     15 C15       -55.3494  -26.1908   10.8841 C.3       14 UNK         0.0141 
     16 S16       -54.1093  -25.7544   12.1463 S.3       14 UNK        -0.2313 
     17 C17       -52.8110  -27.0160   11.9022 C.3       14 UNK        -0.0915 
     18 CA        -53.2620  -28.4673   12.2071 C.3       13 UNK         0.0968 
     19 C         -52.0915  -29.4663   12.0153 C.2       13 UNK         0.5732 
     20 N         -51.7842  -29.8304   10.7774 N.am      13 UNK        -0.7310 
     21 O         -51.4432  -29.9013   12.9649 O.2       13 UNK        -0.5035 
     22 N         -53.8604  -28.5825   13.5423 N.am      13 UNK        -0.4233 
     23 C         -54.9168  -29.3502   13.8355 C.2       13 UNK         0.4989 
     24 O         -55.5128  -30.0401   13.0055 O.2       13 UNK        -0.4996 
     25 CA        -55.4073  -29.3175   15.2964 C.3       12 UNK         0.0216 
     26 CB        -56.4394  -30.4190   15.6229 C.3       12 UNK        -0.1964 
     27 N         -54.3060  -29.3155   16.2637 N.am      12 UNK        -0.4276 
     28 C         -53.3846  -30.2732   16.4593 C.2       12 UNK         0.5020 
     29 O         -53.4018  -31.3670   15.8931 O.2       12 UNK        -0.5489 
     30 CA        -52.2376  -29.9656   17.4421 C.3       11 UNK         0.0294 
     31 CB        -50.8731  -30.1487   16.7546 C.3       11 UNK        -0.2019 
     32 N         -52.3162  -28.6018   17.9720 N.am      11 UNK        -0.4493 
     33 C         -52.8670  -28.2626   19.1463 C.2       11 UNK         0.4932 
     34 O         -53.3048  -29.0789   19.9570 O.2       11 UNK        -0.5029 
     35 CA        -52.9688  -26.7589   19.4717 C.3       10 UNK         0.0280 
     36 CB        -51.8090  -26.3302   20.3850 C.3       10 UNK        -0.1976 
     37 N         -52.9936  -25.8937   18.2876 N.am      10 UNK        -0.4242 
     38 C         -53.9630  -25.8788   17.3607 C.2       10 UNK         0.5072 
     39 O         -54.9751  -26.5767   17.4181 O.2       10 UNK        -0.5224 
     40 CA        -53.7241  -24.9972   16.1223 C.3       9 UNK         0.0343 
     41 CB        -54.2496  -23.5728   16.3546 C.3       9 UNK        -0.2003 
     42 N         -52.3167  -24.9393   15.7144 N.am      9 UNK        -0.4272 
     43 C         -51.5749  -25.9914   15.3457 C.2       9 UNK         0.4988 
     44 O         -52.0109  -27.1445   15.3289 O.2       9 UNK        -0.5108 
     45 CA        -50.1073  -25.7105   14.9643 C.3       8 UNK         0.0248 
     46 CB        -49.3812  -26.9659   14.4458 C.3       8 UNK        -0.2001 
     47 N         -49.9662  -24.6286   13.9822 N.am      8 UNK        -0.4140 
     48 C         -50.0421  -23.3176   14.2642 C.2       8 UNK         0.5028 
     49 O         -50.3101  -22.8897   15.3884 O.2       8 UNK        -0.5428 
     50 CA        -49.7809  -22.3039   13.1341 C.3       7 UNK         0.0264 
     51 CB        -48.3887  -21.6725   13.2966 C.3       7 UNK        -0.1988 
     52 N         -49.8933  -22.8801   11.7935 N.am      7 UNK        -0.4454 
     53 C         -51.0589  -23.1867   11.2015 C.2       7 UNK         0.5027 
     54 O         -52.1523  -22.9155   11.6974 O.2       7 UNK        -0.5083 
     55 CA        -51.0164  -23.9024    9.8294 C.3       6 UNK         0.0844 
     56 C56       -51.3961  -22.8974    8.7135 C.3       14 UNK        -0.0967 
     57 S57       -51.5107  -23.6508    7.0560 S.3       14 UNK        -0.2604 
     58 C58       -53.3105  -23.8619    6.8649 C.3       14 UNK         0.0134 
     59 N         -49.7431  -24.5818    9.5559 N.am      6 UNK        -0.4116 
     60 C         -49.1943  -25.5441   10.3113 C.2       5 UNK         0.5034 
     61 O         -49.7385  -26.0236   11.3038 O.2       5 UNK        -0.5045 
     62 CA        -47.7677  -26.0030    9.9599 C.3       5 UNK         0.0224 
     63 CB        -47.8155  -27.3152    9.1689 C.3       5 UNK        -0.1978 
     64 N         -46.9452  -25.0216    9.2367 N.am      5 UNK        -0.4737 
     65 C         -46.6795  -23.7727    9.6517 C.2       4 UNK         0.5027 
     66 O         -47.1735  -23.2857   10.6693 O.2       4 UNK        -0.5211 
     67 CA        -45.7107  -22.9112    8.8189 C.3       4 UNK         0.0297 
     68 CB        -44.5720  -22.3683    9.7004 C.3       4 UNK        -0.1993 
     69 N         -45.1219  -23.5995    7.6669 N.am      4 UNK        -0.4486 
     70 C         -45.7201  -23.7953    6.4853 C.2       3 UNK         0.4961 
     71 O         -46.8802  -23.4579    6.2457 O.2       3 UNK        -0.5105 
     72 CA        -44.8798  -24.4538    5.3706 C.3       3 UNK         0.0299 
     73 CB        -43.4573  -24.8792    5.8070 C.3       3 UNK        -0.1972 
     74 N         -45.5737  -25.5776    4.7332 N.am      3 UNK        -0.4305 
     75 C         -46.0170  -26.6934    5.3291 C.2       2 UNK         0.5006 
     76 O         -45.9094  -26.9267    6.5357 O.2       2 UNK        -0.5106 
     77 CA        -46.6209  -27.7534    4.3913 C.3       2 UNK         0.0296 
     78 CB        -45.5194  -28.6885    3.8653 C.3       2 UNK        -0.2002 
     79 N         -47.6487  -28.5602    5.0485 N.am      2 UNK        -0.4032 
     80 C         -48.8580  -28.1212    5.4154 C.2       1 UNK         0.5000 
     81 O         -49.2488  -26.9728    5.1940 O.2       1 UNK        -0.5238 
     82 H82       -47.7885  -32.2547    8.7170 H         1 UNK         0.0889 
     83 H83       -48.2366  -30.7309    9.4849 H         1 UNK         0.0889 
     84 H84       -46.6296  -30.9236    8.7813 H         1 UNK         0.0889 
     85 H85       -49.5150  -29.4324    8.1989 H         1 UNK         0.3028 
     86 H86       -49.9857  -29.9290    5.4206 H         1 UNK         0.0864 
     87 H87       -51.6084  -28.0751    5.6184 H         1 UNK         0.0720 
     88 H88       -51.0009  -27.6562    7.2050 H         1 UNK         0.0720 
     89 H89       -53.9874  -28.7586    5.7603 H         1 UNK         0.0814 
     90 H90       -54.7246  -29.5482    7.1291 H         1 UNK         0.0814 
     91 H91       -53.2469  -26.3952    5.9188 H         1 UNK         0.1469 
     92 H92       -54.4440  -24.1238    9.3506 H         1 UNK         0.1381 
     93 H93       -54.9461  -28.3851    9.3128 H         1 UNK         0.1206 
     94 H94       -55.8123  -27.1417   11.1519 H         1 UNK         0.0813 
     95 H95       -56.1490  -25.4495   10.9090 H         1 UNK         0.0813 
     96 H96       -52.4380  -26.9358   10.8798 H         1 UNK         0.0638 
     97 H97       -51.9743  -26.7414   12.5431 H         1 UNK         0.0638 
     98 H98       -54.0170  -28.7331   11.4671 H         1 UNK         0.0568 
     99 H99       -52.2960  -29.4832    9.9810 H         1 UNK         0.3450 
    100 H100      -51.0328  -30.4866   10.6440 H         1 UNK         0.3450 
    101 H101      -53.3588  -28.1024   14.2833 H         1 UNK         0.2987 
    102 H102      -55.9110  -28.3573   15.4169 H         1 UNK         0.0766 
    103 H103      -56.7736  -30.3548   16.6584 H         1 UNK         0.0798 
    104 H104      -57.3238  -30.3239   14.9917 H         1 UNK         0.0798 
    105 H105      -56.0335  -31.4181   15.4619 H         1 UNK         0.0798 
    106 H106      -54.2167  -28.4586   16.7979 H         1 UNK         0.3198 
    107 H107      -52.3056  -30.6878   18.2584 H         1 UNK         0.0843 
    108 H108      -50.0496  -29.8910   17.4205 H         1 UNK         0.0831 
    109 H109      -50.7908  -29.5341   15.8575 H         1 UNK         0.0831 
    110 H110      -50.7285  -31.1849   16.4463 H         1 UNK         0.0831 
    111 H111      -52.0180  -27.8705   17.3367 H         1 UNK         0.3133 
    112 H112      -53.9046  -26.6053   20.0131 H         1 UNK         0.0566 
    113 H113      -50.8427  -26.4411   19.8913 H         1 UNK         0.0814 
    114 H114      -51.7822  -26.9362   21.2919 H         1 UNK         0.0814 
    115 H115      -51.9112  -25.2906   20.6970 H         1 UNK         0.0814 
    116 H116      -52.1986  -25.2862   18.1508 H         1 UNK         0.3091 
    117 H117      -54.2853  -25.4378   15.2955 H         1 UNK         0.0702 
    118 H118      -53.7007  -23.0626   17.1471 H         1 UNK         0.0785 
    119 H119      -55.3022  -23.5868   16.6411 H         1 UNK         0.0785 
    120 H120      -54.1695  -22.9705   15.4492 H         1 UNK         0.0785 
    121 H121      -51.8651  -24.0288   15.7097 H         1 UNK         0.2998 
    122 H122      -49.6001  -25.4033   15.8812 H         1 UNK         0.0697 
    123 H123      -49.8862  -27.4020   13.5835 H         1 UNK         0.0825 
    124 H124      -49.3369  -27.7353   15.2166 H         1 UNK         0.0825 
    125 H125      -48.3546  -26.7430   14.1550 H         1 UNK         0.0825 
    126 H126      -49.8123  -24.9180   13.0215 H         1 UNK         0.3029 
    127 H127      -50.5252  -21.5104   13.2319 H         1 UNK         0.0897 
    128 H128      -48.1988  -20.9239   12.5272 H         1 UNK         0.0792 
    129 H129      -48.2954  -21.1752   14.2631 H         1 UNK         0.0792 
    130 H130      -47.5974  -22.4210   13.2378 H         1 UNK         0.0792 
    131 H131      -49.0189  -23.1027   11.3230 H         1 UNK         0.3086 
    132 H132      -51.7801  -24.6807    9.8651 H         1 UNK         0.0583 
    133 H133      -52.3445  -22.4083    8.9451 H         1 UNK         0.1020 
    134 H134      -50.6573  -22.0951    8.6620 H         1 UNK         0.1020 
    135 H135      -53.8396  -22.9835    7.2371 H         1 UNK         0.0694 
    136 H136      -53.5419  -23.9222    5.8003 H         1 UNK         0.0694 
    137 H137      -49.2265  -24.2540    8.7528 H         1 UNK         0.2989 
    138 H138      -47.2647  -26.1990   10.9093 H         1 UNK         0.1055 
    139 H139      -46.8190  -27.7352    9.0304 H         1 UNK         0.0806 
    140 H140      -48.2568  -27.1642    8.1838 H         1 UNK         0.0806 
    141 H141      -48.4121  -28.0636    9.6920 H         1 UNK         0.0806 
    142 H142      -46.5097  -25.3425    8.3809 H         1 UNK         0.3061 
    143 H143      -46.2865  -22.0584    8.4528 H         1 UNK         0.0734 
    144 H144      -44.9643  -21.7883   10.5373 H         1 UNK         0.0832 
    145 H145      -43.9667  -23.1732   10.1191 H         1 UNK         0.0832 
    146 H146      -43.9125  -21.7079    9.1371 H         1 UNK         0.0832 
    147 H147      -44.1757  -23.9347    7.7792 H         1 UNK         0.3156 
    148 H148      -44.7668  -23.6922    4.5976 H         1 UNK         0.0589 
    149 H149      -43.4750  -25.6275    6.6006 H         1 UNK         0.0808 
    150 H150      -42.9060  -25.3072    4.9696 H         1 UNK         0.0808 
    151 H151      -42.8757  -24.0265    6.1599 H         1 UNK         0.0808 
    152 H152      -45.7362  -25.4752    3.7410 H         1 UNK         0.3098 
    153 H153      -47.0840  -27.2466    3.5418 H         1 UNK         0.0720 
    154 H154      -45.9205  -29.4186    3.1619 H         1 UNK         0.0791 
    155 H155      -44.7437  -28.1280    3.3419 H         1 UNK         0.0791 
    156 H156      -45.0358  -29.2349    4.6765 H         1 UNK         0.0791 
    157 H157      -47.3991  -29.5085    5.3173 H         1 UNK         0.3028 
@<TRIPOS>BOND
     1    1    2 1    
     2    1   82 1    
     3    1   83 1    
     4    1   84 1    
     5    2    3 2    
     6    2    4 am   BACKBONE|DICT|INTERRES
     7    4    5 1    
     8    4   85 1    
     9    5    6 1    
    10    5   80 1    
    11    5   86 1    
    12    6    7 1    
    13    6   87 1    
    14    6   88 1    
    15    7    8 1    
    16    8    9 1    
    17    8   89 1    
    18    8   90 1    
    19    9   10 ar   
    20    9   14 ar   
    21   10   11 ar   
    22   10   91 1    
    23   11   12 ar   
    24   11   58 1    
    25   12   13 ar   
    26   12   92 1    
    27   13   14 ar   
    28   13   15 1    
    29   14   93 1    
    30   15   16 1    
    31   15   94 1    
    32   15   95 1    
    33   16   17 1    
    34   17   18 1    
    35   17   96 1    
    36   17   97 1    
    37   18   19 1    
    38   18   22 1    
    39   18   98 1    
    40   19   20 am   BACKBONE|DICT|INTERRES
    41   19   21 2    
    42   20   99 1    
    43   20  100 1    
    44   22   23 am   BACKBONE|DICT|INTERRES
    45   22  101 1    
    46   23   24 2    
    47   23   25 1    
    48   25   26 1    
    49   25   27 1    
    50   25  102 1    
    51   26  103 1    
    52   26  104 1    
    53   26  105 1    
    54   27   28 am   BACKBONE|DICT|INTERRES
    55   27  106 1    
    56   28   29 2    
    57   28   30 1    
    58   30   31 1    
    59   30   32 1    
    60   30  107 1    
    61   31  108 1    
    62   31  109 1    
    63   31  110 1    
    64   32   33 am   BACKBONE|DICT|INTERRES
    65   32  111 1    
    66   33   34 2    
    67   33   35 1    
    68   35   36 1    
    69   35   37 1    
    70   35  112 1    
    71   36  113 1    
    72   36  114 1    
    73   36  115 1    
    74   37   38 am   BACKBONE|DICT|INTERRES
    75   37  116 1    
    76   38   39 2    
    77   38   40 1    
    78   40   41 1    
    79   40   42 1    
    80   40  117 1    
    81   41  118 1    
    82   41  119 1    
    83   41  120 1    
    84   42   43 am   BACKBONE|DICT|INTERRES
    85   42  121 1    
    86   43   44 2    
    87   43   45 1    
    88   45   46 1    
    89   45   47 1    
    90   45  122 1    
    91   46  123 1    
    92   46  124 1    
    93   46  125 1    
    94   47   48 am   BACKBONE|DICT|INTERRES
    95   47  126 1    
    96   48   49 2    
    97   48   50 1    
    98   50   51 1    
    99   50   52 1    
   100   50  127 1    
   101   51  128 1    
   102   51  129 1    
   103   51  130 1    
   104   52   53 am   BACKBONE|DICT|INTERRES
   105   52  131 1    
   106   53   54 2    
   107   53   55 1    
   108   55   56 1    
   109   55   59 1    
   110   55  132 1    
   111   56   57 1    
   112   56  133 1    
   113   56  134 1    
   114   57   58 1    
   115   58  135 1    
   116   58  136 1    
   117   59   60 am   BACKBONE|DICT|INTERRES
   118   59  137 1    
   119   60   61 2    
   120   60   62 1    
   121   62   63 1    
   122   62   64 1    
   123   62  138 1    
   124   63  139 1    
   125   63  140 1    
   126   63  141 1    
   127   64   65 am   BACKBONE|DICT|INTERRES
   128   64  142 1    
   129   65   66 2    
   130   65   67 1    
   131   67   68 1    
   132   67   69 1    
   133   67  143 1    
   134   68  144 1    
   135   68  145 1    
   136   68  146 1    
   137   69   70 am   BACKBONE|DICT|INTERRES
   138   69  147 1    
   139   70   71 2    
   140   70   72 1    
   141   72   73 1    
   142   72   74 1    
   143   72  148 1    
   144   73  149 1    
   145   73  150 1    
   146   73  151 1    
   147   74   75 am   BACKBONE|DICT|INTERRES
   148   74  152 1    
   149   75   76 2    
   150   75   77 1    
   151   77   78 1    
   152   77   79 1    
   153   77  153 1    
   154   78  154 1    
   155   78  155 1    
   156   78  156 1    
   157   79   80 am   BACKBONE|DICT|INTERRES
   158   79  157 1    
   159   80   81 2    
@<TRIPOS>SUBSTRUCTURE
     1 UNK         1 GROUP             0       ****    0 ROOT    
