@<TRIPOS>MOLECULE
3R207
157   159    1
SMALL
USER_CHARGES


@<TRIPOS>ATOM
      1 CA        -47.4059  -30.2415   10.1068 C.3       0 UNK        -0.1975 
      2 C         -47.7881  -29.3927    8.9046 C.2       0 UNK         0.4852 
      3 O         -47.9164  -28.1758    9.0346 O.2       0 UNK        -0.5216 
      4 N         -47.9547  -30.0227    7.7324 N.am      1 UNK        -0.4461 
      5 CA        -48.4143  -29.4134    6.4705 C.3       1 UNK         0.0864 
      6 C6        -49.8925  -28.9340    6.5278 C.3       14 UNK        -0.0898 
      7 S7        -51.0516  -30.2150    7.1222 S.3       14 UNK        -0.2598 
      8 C8        -52.6290  -29.6474    6.4103 C.3       14 UNK         0.0286 
      9 C9        -53.0854  -28.3226    7.0061 C.ar      14 UNK        -0.0844 
     10 C10       -52.7641  -27.1202    6.3698 C.ar      14 UNK        -0.0881 
     11 C11       -53.1773  -25.8982    6.9064 C.ar      14 UNK        -0.0643 
     12 C12       -53.9548  -25.8886    8.0665 C.ar      14 UNK        -0.0930 
     13 C13       -54.2591  -27.0790    8.7319 C.ar      14 UNK        -0.0827 
     14 C14       -53.8244  -28.2955    8.1935 C.ar      14 UNK        -0.1249 
     15 C15       -55.0022  -27.0250   10.0606 C.3       14 UNK         0.0141 
     16 S16       -56.5993  -27.8934   10.0081 S.3       14 UNK        -0.2313 
     17 C17       -56.1849  -29.4585   10.8488 C.3       14 UNK        -0.0915 
     18 CA        -56.6685  -29.4655   12.3216 C.3       13 UNK         0.0968 
     19 C         -56.5495  -30.8849   12.9385 C.2       13 UNK         0.5732 
     20 N         -57.5500  -31.7321   12.7401 N.am      13 UNK        -0.7310 
     21 O         -55.5489  -31.2370   13.5603 O.2       13 UNK        -0.5035 
     22 N         -55.9666  -28.4580   13.1313 N.am      13 UNK        -0.4233 
     23 C         -56.4193  -27.9743   14.2924 C.2       13 UNK         0.4989 
     24 O         -57.5207  -28.2544   14.7700 O.2       13 UNK        -0.4996 
     25 CA        -55.4559  -27.0551   15.0635 C.3       12 UNK         0.0216 
     26 CB        -56.1476  -26.3047   16.2179 C.3       12 UNK        -0.1964 
     27 N         -54.3507  -27.8465   15.6046 N.am      12 UNK        -0.4276 
     28 C         -53.2362  -28.1513   14.9327 C.2       12 UNK         0.5020 
     29 O         -52.9849  -27.7469   13.7940 O.2       12 UNK        -0.5489 
     30 CA        -52.2520  -29.0944   15.6279 C.3       11 UNK         0.0294 
     31 CB        -52.5870  -30.5599   15.2882 C.3       11 UNK        -0.2019 
     32 N         -50.9148  -28.7445   15.1661 N.am      11 UNK        -0.4493 
     33 C         -49.7574  -29.1784   15.6757 C.2       11 UNK         0.4932 
     34 O         -49.6657  -29.9824   16.6036 O.2       11 UNK        -0.5029 
     35 CA        -48.4852  -28.5822   15.0554 C.3       10 UNK         0.0280 
     36 CB        -48.3104  -29.0394   13.5973 C.3       10 UNK        -0.1976 
     37 N         -48.4923  -27.1191   15.1381 N.am      10 UNK        -0.4242 
     38 C         -48.3086  -26.4306   16.2761 C.2       10 UNK         0.5072 
     39 O         -48.0252  -26.9476   17.3574 O.2       10 UNK        -0.5224 
     40 CA        -48.4806  -24.9073   16.2000 C.3       9 UNK         0.0343 
     41 CB        -47.1931  -24.2379   15.6910 C.3       9 UNK        -0.2003 
     42 N         -49.5910  -24.5444   15.3243 N.am      9 UNK        -0.4272 
     43 C         -50.8816  -24.5067   15.6797 C.2       9 UNK         0.4988 
     44 O         -51.2803  -24.7400   16.8218 O.2       9 UNK        -0.5108 
     45 CA        -51.8944  -24.1669   14.5661 C.3       8 UNK         0.0248 
     46 CB        -53.1888  -23.5224   15.1033 C.3       8 UNK        -0.2001 
     47 N         -51.3175  -23.3712   13.4736 N.am      8 UNK        -0.4140 
     48 C         -50.7862  -22.1390   13.5365 C.2       8 UNK         0.5028 
     49 O         -50.7854  -21.4434   14.5528 O.2       8 UNK        -0.5428 
     50 CA        -50.0993  -21.5933   12.2666 C.3       7 UNK         0.0264 
     51 CB        -48.5783  -21.5072   12.4818 C.3       7 UNK        -0.1988 
     52 N         -50.3488  -22.3982   11.0690 N.am      7 UNK        -0.4454 
     53 C         -51.4977  -22.4307   10.3803 C.2       7 UNK         0.5027 
     54 O         -52.4572  -21.6950   10.6133 O.2       7 UNK        -0.5083 
     55 CA        -51.6083  -23.5115    9.2856 C.3       6 UNK         0.0844 
     56 C56       -51.0900  -22.9839    7.9234 C.3       14 UNK        -0.0967 
     57 S57       -51.0015  -24.2314    6.5906 S.3       14 UNK        -0.2604 
     58 C58       -52.7537  -24.5965    6.2419 C.3       14 UNK         0.0134 
     59 N         -50.9833  -24.7712    9.7109 N.am      6 UNK        -0.4116 
     60 C         -51.4375  -25.5454   10.7081 C.2       5 UNK         0.5034 
     61 O         -52.4549  -25.2938   11.3510 O.2       5 UNK        -0.5045 
     62 CA        -50.5886  -26.7629   11.1066 C.3       5 UNK         0.0224 
     63 CB        -51.0304  -28.0179   10.3435 C.3       5 UNK        -0.1978 
     64 N         -49.1569  -26.5303   10.8996 N.am      5 UNK        -0.4737 
     65 C         -48.4057  -25.7635   11.6977 C.2       4 UNK         0.5027 
     66 O         -48.8242  -25.2702   12.7441 O.2       4 UNK        -0.5211 
     67 CA        -46.9607  -25.4775   11.2581 C.3       4 UNK         0.0297 
     68 CB        -46.0119  -26.5826   11.7414 C.3       4 UNK        -0.1993 
     69 N         -46.8066  -25.2908    9.8120 N.am      4 UNK        -0.4486 
     70 C         -47.3775  -24.3115    9.1015 C.2       3 UNK         0.4961 
     71 O         -48.1468  -23.4894    9.5991 O.2       3 UNK        -0.5105 
     72 CA        -47.0710  -24.2037    7.5941 C.3       3 UNK         0.0299 
     73 CB        -46.1302  -23.0147    7.3201 C.3       3 UNK        -0.1972 
     74 N         -46.5856  -25.4206    6.9249 N.am      3 UNK        -0.4305 
     75 C         -45.4381  -26.0912    7.0967 C.2       2 UNK         0.5006 
     76 O         -44.6117  -25.8216    7.9694 O.2       2 UNK        -0.5106 
     77 CA        -45.1990  -27.2854    6.1479 C.3       2 UNK         0.0296 
     78 CB        -43.7920  -27.8928    6.3040 C.3       2 UNK        -0.2002 
     79 N         -46.1937  -28.3391    6.3551 N.am      2 UNK        -0.4032 
     80 C         -47.4736  -28.2943    5.9566 C.2       1 UNK         0.5000 
     81 O         -47.9169  -27.3911    5.2422 O.2       1 UNK        -0.5238 
     82 H82       -47.2980  -31.2939    9.8454 H         1 UNK         0.0889 
     83 H83       -48.1732  -30.1612   10.8752 H         1 UNK         0.0889 
     84 H84       -46.4616  -29.8976   10.5271 H         1 UNK         0.0889 
     85 H85       -47.8271  -31.0247    7.6963 H         1 UNK         0.3028 
     86 H86       -48.3580  -30.2039    5.7207 H         1 UNK         0.0864 
     87 H87       -49.9870  -28.0560    7.1686 H         1 UNK         0.0720 
     88 H88       -50.2174  -28.6214    5.5340 H         1 UNK         0.0720 
     89 H89       -53.3889  -30.4093    6.5898 H         1 UNK         0.0814 
     90 H90       -52.5329  -29.5674    5.3264 H         1 UNK         0.0814 
     91 H91       -52.1712  -27.1298    5.4656 H         1 UNK         0.1469 
     92 H92       -54.2982  -24.9498    8.4749 H         1 UNK         0.1381 
     93 H93       -54.0522  -29.2216    8.7020 H         1 UNK         0.1206 
     94 H94       -55.1936  -25.9899   10.3477 H         1 UNK         0.0813 
     95 H95       -54.3657  -27.4300   10.8478 H         1 UNK         0.0813 
     96 H96       -55.1129  -29.6537   10.7901 H         1 UNK         0.0638 
     97 H97       -56.6680  -30.2583   10.2845 H         1 UNK         0.0638 
     98 H98       -57.7291  -29.2047   12.3213 H         1 UNK         0.0568 
     99 H99       -57.4842  -32.6629   13.1212 H         1 UNK         0.3450 
    100 H100      -58.3709  -31.4596   12.2223 H         1 UNK         0.3450 
    101 H101      -55.0150  -28.2420   12.8646 H         1 UNK         0.2987 
    102 H102      -55.0699  -26.3086   14.3649 H         1 UNK         0.0766 
    103 H103      -56.9693  -25.6915   15.8456 H         1 UNK         0.0798 
    104 H104      -56.5613  -26.9891   16.9597 H         1 UNK         0.0798 
    105 H105      -55.4541  -25.6386   16.7308 H         1 UNK         0.0798 
    106 H106      -54.4988  -28.2574   16.5157 H         1 UNK         0.3198 
    107 H107      -52.3029  -28.9394   16.7078 H         1 UNK         0.0843 
    108 H108      -53.6015  -30.8115   15.6000 H         1 UNK         0.0831 
    109 H109      -51.9168  -31.2570   15.7904 H         1 UNK         0.0831 
    110 H110      -52.5234  -30.7471   14.2153 H         1 UNK         0.0831 
    111 H111      -50.9177  -28.0832   14.4001 H         1 UNK         0.3133 
    112 H112      -47.6299  -28.9549   15.6234 H         1 UNK         0.0566 
    113 H113      -47.3446  -28.7316   13.2004 H         1 UNK         0.0814 
    114 H114      -48.3507  -30.1272   13.5255 H         1 UNK         0.0814 
    115 H115      -49.0863  -28.6432   12.9432 H         1 UNK         0.0814 
    116 H116      -48.7014  -26.5973   14.2942 H         1 UNK         0.3091 
    117 H117      -48.6843  -24.5358   17.2067 H         1 UNK         0.0702 
    118 H118      -47.2950  -23.1527   15.6688 H         1 UNK         0.0785 
    119 H119      -46.9316  -24.5688   14.6850 H         1 UNK         0.0785 
    120 H120      -46.3493  -24.4717   16.3416 H         1 UNK         0.0785 
    121 H121      -49.3645  -24.4336   14.3393 H         1 UNK         0.2998 
    122 H122      -52.1707  -25.1230   14.1199 H         1 UNK         0.0697 
    123 H123      -52.9907  -22.5810   15.6160 H         1 UNK         0.0825 
    124 H124      -53.6861  -24.1815   15.8152 H         1 UNK         0.0825 
    125 H125      -53.8961  -23.3263   14.2975 H         1 UNK         0.0825 
    126 H126      -51.2845  -23.8460   12.5811 H         1 UNK         0.3029 
    127 H127      -50.4836  -20.5858   12.0939 H         1 UNK         0.0897 
    128 H128      -48.0779  -21.0784   11.6132 H         1 UNK         0.0792 
    129 H129      -48.3374  -20.8768   13.3388 H         1 UNK         0.0792 
    130 H130      -48.1421  -22.4899   12.6667 H         1 UNK         0.0792 
    131 H131      -49.5769  -22.9736   10.7372 H         1 UNK         0.3086 
    132 H132      -52.6728  -23.7040    9.1720 H         1 UNK         0.0583 
    133 H133      -51.7147  -22.1571    7.5797 H         1 UNK         0.1020 
    134 H134      -50.0882  -22.5653    8.0343 H         1 UNK         0.1020 
    135 H135      -53.3857  -23.7666    6.5616 H         1 UNK         0.0694 
    136 H136      -52.8867  -24.6840    5.1627 H         1 UNK         0.0694 
    137 H137      -50.1261  -25.0284    9.2451 H         1 UNK         0.2989 
    138 H138      -50.7626  -26.9420   12.1697 H         1 UNK         0.1055 
    139 H139      -50.4265  -28.8843   10.6105 H         1 UNK         0.0806 
    140 H140      -50.9616  -27.8775    9.2653 H         1 UNK         0.0806 
    141 H141      -52.0665  -28.2653   10.5750 H         1 UNK         0.0806 
    142 H142      -48.7167  -26.9803   10.0955 H         1 UNK         0.3061 
    143 H143      -46.6599  -24.5437   11.7376 H         1 UNK         0.0734 
    144 H144      -46.0727  -26.7025   12.8239 H         1 UNK         0.0832 
    145 H145      -46.2501  -27.5437   11.2860 H         1 UNK         0.0832 
    146 H146      -44.9749  -26.3470   11.5018 H         1 UNK         0.0832 
    147 H147      -46.1583  -25.9014    9.3289 H         1 UNK         0.3156 
    148 H148      -48.0233  -23.9780    7.1135 H         1 UNK         0.0589 
    149 H149      -45.1506  -23.1576    7.7775 H         1 UNK         0.0808 
    150 H150      -45.9834  -22.8625    6.2508 H         1 UNK         0.0808 
    151 H151      -46.5433  -22.0894    7.7242 H         1 UNK         0.0808 
    152 H152      -47.2188  -25.8080    6.2298 H         1 UNK         0.3098 
    153 H153      -45.2883  -26.9125    5.1253 H         1 UNK         0.0720 
    154 H154      -43.0211  -27.1398    6.1343 H         1 UNK         0.0791 
    155 H155      -43.6236  -28.6938    5.5838 H         1 UNK         0.0791 
    156 H156      -43.6349  -28.3011    7.3033 H         1 UNK         0.0791 
    157 H157      -45.9249  -29.0955    6.9672 H         1 UNK         0.3028 
@<TRIPOS>BOND
     1    1    2 1    
     2    1   82 1    
     3    1   83 1    
     4    1   84 1    
     5    2    3 2    
     6    2    4 am   BACKBONE|DICT|INTERRES
     7    4    5 1    
     8    4   85 1    
     9    5    6 1    
    10    5   80 1    
    11    5   86 1    
    12    6    7 1    
    13    6   87 1    
    14    6   88 1    
    15    7    8 1    
    16    8    9 1    
    17    8   89 1    
    18    8   90 1    
    19    9   10 ar   
    20    9   14 ar   
    21   10   11 ar   
    22   10   91 1    
    23   11   12 ar   
    24   11   58 1    
    25   12   13 ar   
    26   12   92 1    
    27   13   14 ar   
    28   13   15 1    
    29   14   93 1    
    30   15   16 1    
    31   15   94 1    
    32   15   95 1    
    33   16   17 1    
    34   17   18 1    
    35   17   96 1    
    36   17   97 1    
    37   18   19 1    
    38   18   22 1    
    39   18   98 1    
    40   19   20 am   BACKBONE|DICT|INTERRES
    41   19   21 2    
    42   20   99 1    
    43   20  100 1    
    44   22   23 am   BACKBONE|DICT|INTERRES
    45   22  101 1    
    46   23   24 2    
    47   23   25 1    
    48   25   26 1    
    49   25   27 1    
    50   25  102 1    
    51   26  103 1    
    52   26  104 1    
    53   26  105 1    
    54   27   28 am   BACKBONE|DICT|INTERRES
    55   27  106 1    
    56   28   29 2    
    57   28   30 1    
    58   30   31 1    
    59   30   32 1    
    60   30  107 1    
    61   31  108 1    
    62   31  109 1    
    63   31  110 1    
    64   32   33 am   BACKBONE|DICT|INTERRES
    65   32  111 1    
    66   33   34 2    
    67   33   35 1    
    68   35   36 1    
    69   35   37 1    
    70   35  112 1    
    71   36  113 1    
    72   36  114 1    
    73   36  115 1    
    74   37   38 am   BACKBONE|DICT|INTERRES
    75   37  116 1    
    76   38   39 2    
    77   38   40 1    
    78   40   41 1    
    79   40   42 1    
    80   40  117 1    
    81   41  118 1    
    82   41  119 1    
    83   41  120 1    
    84   42   43 am   BACKBONE|DICT|INTERRES
    85   42  121 1    
    86   43   44 2    
    87   43   45 1    
    88   45   46 1    
    89   45   47 1    
    90   45  122 1    
    91   46  123 1    
    92   46  124 1    
    93   46  125 1    
    94   47   48 am   BACKBONE|DICT|INTERRES
    95   47  126 1    
    96   48   49 2    
    97   48   50 1    
    98   50   51 1    
    99   50   52 1    
   100   50  127 1    
   101   51  128 1    
   102   51  129 1    
   103   51  130 1    
   104   52   53 am   BACKBONE|DICT|INTERRES
   105   52  131 1    
   106   53   54 2    
   107   53   55 1    
   108   55   56 1    
   109   55   59 1    
   110   55  132 1    
   111   56   57 1    
   112   56  133 1    
   113   56  134 1    
   114   57   58 1    
   115   58  135 1    
   116   58  136 1    
   117   59   60 am   BACKBONE|DICT|INTERRES
   118   59  137 1    
   119   60   61 2    
   120   60   62 1    
   121   62   63 1    
   122   62   64 1    
   123   62  138 1    
   124   63  139 1    
   125   63  140 1    
   126   63  141 1    
   127   64   65 am   BACKBONE|DICT|INTERRES
   128   64  142 1    
   129   65   66 2    
   130   65   67 1    
   131   67   68 1    
   132   67   69 1    
   133   67  143 1    
   134   68  144 1    
   135   68  145 1    
   136   68  146 1    
   137   69   70 am   BACKBONE|DICT|INTERRES
   138   69  147 1    
   139   70   71 2    
   140   70   72 1    
   141   72   73 1    
   142   72   74 1    
   143   72  148 1    
   144   73  149 1    
   145   73  150 1    
   146   73  151 1    
   147   74   75 am   BACKBONE|DICT|INTERRES
   148   74  152 1    
   149   75   76 2    
   150   75   77 1    
   151   77   78 1    
   152   77   79 1    
   153   77  153 1    
   154   78  154 1    
   155   78  155 1    
   156   78  156 1    
   157   79   80 am   BACKBONE|DICT|INTERRES
   158   79  157 1    
   159   80   81 2    
@<TRIPOS>SUBSTRUCTURE
     1 UNK         1 GROUP             0       ****    0 ROOT    
