@<TRIPOS>MOLECULE
3R207
157   159    1
SMALL
USER_CHARGES


@<TRIPOS>ATOM
      1 CA        -48.1168  -27.4626    3.7895 C.3       0 UNK        -0.1975 
      2 C         -49.0602  -26.5337    4.5378 C.2       0 UNK         0.4852 
      3 O         -49.1195  -25.3422    4.2300 O.2       0 UNK        -0.5216 
      4 N         -49.7895  -27.0648    5.5283 N.am      1 UNK        -0.4461 
      5 CA        -50.7292  -26.3299    6.3834 C.3       1 UNK         0.0864 
      6 C6        -51.5034  -27.2644    7.3438 C.3       14 UNK        -0.0898 
      7 S7        -52.4035  -28.5984    6.4853 S.3       14 UNK        -0.2598 
      8 C8        -51.4309  -30.0686    6.9509 C.3       14 UNK         0.0286 
      9 C9        -51.5783  -30.4151    8.4268 C.ar      14 UNK        -0.0844 
     10 C10       -50.5419  -30.1513    9.3265 C.ar      14 UNK        -0.0881 
     11 C11       -50.6663  -30.4882   10.6815 C.ar      14 UNK        -0.0643 
     12 C12       -51.8421  -31.1114   11.1170 C.ar      14 UNK        -0.0930 
     13 C13       -52.9006  -31.3637   10.2330 C.ar      14 UNK        -0.0827 
     14 C14       -52.7506  -31.0161    8.8880 C.ar      14 UNK        -0.1249 
     15 C15       -54.2153  -32.0277   10.6533 C.3       14 UNK         0.0141 
     16 S16       -54.5710  -32.1263   12.4456 S.3       14 UNK        -0.2313 
     17 C17       -54.6411  -30.3829   12.9821 C.3       14 UNK        -0.0915 
     18 CA        -55.8034  -29.5327   12.4038 C.3       13 UNK         0.0968 
     19 C         -57.1679  -29.8132   13.1038 C.2       13 UNK         0.5732 
     20 N         -57.7816  -28.8563   13.7927 N.am      13 UNK        -0.7310 
     21 O         -57.6989  -30.9160   12.9988 O.2       13 UNK        -0.5035 
     22 N         -55.4183  -28.1170   12.4037 N.am      13 UNK        -0.4233 
     23 C         -55.9002  -27.1811   11.5790 C.2       13 UNK         0.4989 
     24 O         -56.6630  -27.4234   10.6421 O.2       13 UNK        -0.4996 
     25 CA        -55.4450  -25.7304   11.8464 C.3       12 UNK         0.0216 
     26 CB        -56.4836  -24.6893   11.3783 C.3       12 UNK        -0.1964 
     27 N         -55.0471  -25.4732   13.2396 N.am      12 UNK        -0.4276 
     28 C         -55.8024  -25.6152   14.3385 C.2       12 UNK         0.5020 
     29 O         -56.9664  -26.0223   14.3258 O.2       12 UNK        -0.5489 
     30 CA        -55.1031  -25.2951   15.6720 C.3       11 UNK         0.0294 
     31 CB        -56.0395  -25.4352   16.8911 C.3       11 UNK        -0.2019 
     32 N         -53.8802  -26.0854   15.8655 N.am      11 UNK        -0.4493 
     33 C         -53.7652  -27.4219   15.9153 C.2       11 UNK         0.4932 
     34 O         -54.7085  -28.1951   15.7529 O.2       11 UNK        -0.5029 
     35 CA        -52.3655  -28.0150   16.1740 C.3       10 UNK         0.0280 
     36 CB        -51.9409  -28.9548   15.0324 C.3       10 UNK        -0.1976 
     37 N         -51.3153  -27.0129   16.3657 N.am      10 UNK        -0.4242 
     38 C         -51.0815  -26.3322   17.4959 C.2       10 UNK         0.5072 
     39 O         -51.7613  -26.4383   18.5168 O.2       10 UNK        -0.5224 
     40 CA        -49.8913  -25.3610   17.4745 C.3       9 UNK         0.0343 
     41 CB        -48.5725  -26.1158   17.7102 C.3       9 UNK        -0.2003 
     42 N         -49.8137  -24.6327   16.2071 N.am      9 UNK        -0.4272 
     43 C         -50.4991  -23.5144   15.9311 C.2       9 UNK         0.4988 
     44 O         -51.2406  -22.9480   16.7340 O.2       9 UNK        -0.5108 
     45 CA        -50.3424  -22.9359   14.5137 C.3       8 UNK         0.0248 
     46 CB        -49.1118  -22.0183   14.4362 C.3       8 UNK        -0.2001 
     47 N         -50.2446  -23.9775   13.4885 N.am      8 UNK        -0.4140 
     48 C         -51.2666  -24.7691   13.1296 C.2       8 UNK         0.5028 
     49 O         -52.4085  -24.6551   13.5753 O.2       8 UNK        -0.5428 
     50 CA        -50.9822  -25.8984   12.1251 C.3       7 UNK         0.0264 
     51 CB        -51.3334  -25.4419   10.7033 C.3       7 UNK        -0.1988 
     52 N         -49.6053  -26.3940   12.1319 N.am      7 UNK        -0.4454 
     53 C         -48.9438  -26.8867   13.1896 C.2       7 UNK         0.5027 
     54 O         -49.4317  -26.9879   14.3145 O.2       7 UNK        -0.5083 
     55 CA        -47.4703  -27.2858   12.9684 C.3       6 UNK         0.0844 
     56 C56       -47.3249  -28.8027   12.6825 C.3       14 UNK        -0.0967 
     57 S57       -48.0804  -29.3450   11.1063 S.3       14 UNK        -0.2604 
     58 C58       -49.5812  -30.1929   11.7214 C.3       14 UNK         0.0134 
     59 N         -46.7822  -26.4651   11.9652 N.am      6 UNK        -0.4116 
     60 C         -46.6846  -25.1286   11.9521 C.2       5 UNK         0.5034 
     61 O         -47.2056  -24.3988   12.7973 O.2       5 UNK        -0.5045 
     62 CA        -45.9119  -24.4796   10.7900 C.3       5 UNK         0.0224 
     63 CB        -44.4381  -24.2461   11.1726 C.3       5 UNK        -0.1978 
     64 N         -46.0263  -25.1677    9.4942 N.am      5 UNK        -0.4737 
     65 C         -45.5667  -26.3726    9.1193 C.2       4 UNK         0.5027 
     66 O         -44.9850  -27.1461    9.8796 O.2       4 UNK        -0.5211 
     67 CA        -45.8156  -26.8062    7.6627 C.3       4 UNK         0.0297 
     68 CB        -46.8066  -27.9825    7.6064 C.3       4 UNK        -0.1993 
     69 N         -46.3112  -25.7035    6.8328 N.am      4 UNK        -0.4486 
     70 C         -45.5223  -24.7928    6.2404 C.2       3 UNK         0.4961 
     71 O         -44.2927  -24.8512    6.2503 O.2       3 UNK        -0.5105 
     72 CA        -46.1997  -23.6055    5.5301 C.3       3 UNK         0.0299 
     73 CB        -46.1145  -23.7640    4.0032 C.3       3 UNK        -0.1972 
     74 N         -47.5974  -23.4120    5.9281 N.am      3 UNK        -0.4305 
     75 C         -47.9806  -22.8583    7.0899 C.2       2 UNK         0.5006 
     76 O         -47.1920  -22.4304    7.9327 O.2       2 UNK        -0.5106 
     77 CA        -49.4914  -22.8209    7.3937 C.3       2 UNK         0.0296 
     78 CB        -50.1142  -21.5159    6.8733 C.3       2 UNK        -0.2002 
     79 N         -50.2262  -23.9670    6.8485 N.am      2 UNK        -0.4032 
     80 C         -49.9795  -25.2423    7.1767 C.2       1 UNK         0.5000 
     81 O         -49.1444  -25.5771    8.0200 O.2       1 UNK        -0.5238 
     82 H82       -48.2825  -27.3795    2.7158 H         1 UNK         0.0889 
     83 H83       -48.2603  -28.5048    4.0740 H         1 UNK         0.0889 
     84 H84       -47.0819  -27.1923    3.9976 H         1 UNK         0.0889 
     85 H85       -49.7025  -28.0481    5.7334 H         1 UNK         0.3028 
     86 H86       -51.4561  -25.8464    5.7272 H         1 UNK         0.0864 
     87 H87       -50.8295  -27.6953    8.0848 H         1 UNK         0.0720 
     88 H88       -52.2438  -26.6913    7.9043 H         1 UNK         0.0720 
     89 H89       -50.3828  -29.9146    6.6915 H         1 UNK         0.0814 
     90 H90       -51.7680  -30.9148    6.3504 H         1 UNK         0.0814 
     91 H91       -49.6425  -29.6802    8.9582 H         1 UNK         0.1469 
     92 H92       -51.9275  -31.3892   12.1578 H         1 UNK         0.1381 
     93 H93       -53.5525  -31.2153    8.1895 H         1 UNK         0.1206 
     94 H94       -54.2107  -33.0468   10.2645 H         1 UNK         0.0813 
     95 H95       -55.0489  -31.5275   10.1597 H         1 UNK         0.0813 
     96 H96       -53.6864  -29.9279   12.7202 H         1 UNK         0.0638 
     97 H97       -54.6776  -30.3719   14.0723 H         1 UNK         0.0638 
     98 H98       -55.9435  -29.8171   11.3610 H         1 UNK         0.0568 
     99 H99       -58.6665  -29.0603   14.2278 H         1 UNK         0.3450 
    100 H100      -57.3729  -27.9328   13.8985 H         1 UNK         0.3450 
    101 H101      -54.8533  -27.8184   13.1848 H         1 UNK         0.2987 
    102 H102      -54.5469  -25.5889   11.2458 H         1 UNK         0.0766 
    103 H103      -56.1316  -23.6725   11.5523 H         1 UNK         0.0798 
    104 H104      -57.4358  -24.8083   11.8965 H         1 UNK         0.0798 
    105 H105      -56.6811  -24.7826   10.3097 H         1 UNK         0.0798 
    106 H106      -54.0847  -25.1523   13.3724 H         1 UNK         0.3198 
    107 H107      -54.7913  -24.2508   15.6137 H         1 UNK         0.0843 
    108 H108      -56.4116  -26.4543   17.0025 H         1 UNK         0.0831 
    109 H109      -56.9078  -24.7829   16.7915 H         1 UNK         0.0831 
    110 H110      -55.5310  -25.1609   17.8153 H         1 UNK         0.0831 
    111 H111      -53.0271  -25.5490   15.9421 H         1 UNK         0.3133 
    112 H112      -52.4349  -28.6101   17.0868 H         1 UNK         0.0566 
    113 H113      -51.9731  -28.4572   14.0631 H         1 UNK         0.0814 
    114 H114      -50.9283  -29.3307   15.1810 H         1 UNK         0.0814 
    115 H115      -52.5947  -29.8246   14.9830 H         1 UNK         0.0814 
    116 H116      -50.6631  -26.8977   15.5907 H         1 UNK         0.3091 
    117 H117      -50.0224  -24.6481   18.2917 H         1 UNK         0.0702 
    118 H118      -47.7266  -25.4296   17.7526 H         1 UNK         0.0785 
    119 H119      -48.3734  -26.8444   16.9231 H         1 UNK         0.0785 
    120 H120      -48.5977  -26.6572   18.6569 H         1 UNK         0.0785 
    121 H121      -49.2670  -25.0605   15.4715 H         1 UNK         0.2998 
    122 H122      -51.2284  -22.3337   14.3008 H         1 UNK         0.0697 
    123 H123      -48.1877  -22.5613   14.6393 H         1 UNK         0.0825 
    124 H124      -49.1819  -21.2099   15.1654 H         1 UNK         0.0825 
    125 H125      -49.0200  -21.5594   13.4517 H         1 UNK         0.0825 
    126 H126      -49.3274  -24.1434   13.0891 H         1 UNK         0.3029 
    127 H127      -51.6322  -26.7349   12.3877 H         1 UNK         0.0897 
    128 H128      -50.6595  -24.6596   10.3513 H         1 UNK         0.0792 
    129 H129      -52.3475  -25.0464   10.6477 H         1 UNK         0.0792 
    130 H130      -51.2706  -26.2767   10.0084 H         1 UNK         0.0792 
    131 H131      -49.1135  -26.3645   11.2498 H         1 UNK         0.3086 
    132 H132      -46.9609  -27.0863   13.9133 H         1 UNK         0.0583 
    133 H133      -46.2658  -29.0634   12.6485 H         1 UNK         0.1020 
    134 H134      -47.7340  -29.3856   13.5103 H         1 UNK         0.1020 
    135 H135      -49.2779  -31.1292   12.1919 H         1 UNK         0.0694 
    136 H136      -50.0296  -29.5818   12.5058 H         1 UNK         0.0694 
    137 H137      -46.2848  -26.9669   11.2342 H         1 UNK         0.2989 
    138 H138      -46.3671  -23.4992   10.6363 H         1 UNK         0.1055 
    139 H139      -44.3627  -23.6438   12.0790 H         1 UNK         0.0806 
    140 H140      -43.9046  -23.7136   10.3852 H         1 UNK         0.0806 
    141 H141      -43.9108  -25.1815   11.3621 H         1 UNK         0.0806 
    142 H142      -46.5248  -24.6401    8.7895 H         1 UNK         0.3061 
    143 H143      -44.8620  -27.1556    7.2612 H         1 UNK         0.0734 
    144 H144      -46.4159  -28.8428    8.1517 H         1 UNK         0.0832 
    145 H145      -46.9844  -28.3059    6.5814 H         1 UNK         0.0832 
    146 H146      -47.7672  -27.7331    8.0561 H         1 UNK         0.0832 
    147 H147      -47.3140  -25.5624    6.8335 H         1 UNK         0.3156 
    148 H148      -45.6415  -22.7065    5.8004 H         1 UNK         0.0589 
    149 H149      -46.6121  -24.6696    3.6578 H         1 UNK         0.0808 
    150 H150      -46.5665  -22.9155    3.4894 H         1 UNK         0.0808 
    151 H151      -45.0754  -23.8227    3.6764 H         1 UNK         0.0808 
    152 H152      -48.3012  -23.7930    5.3022 H         1 UNK         0.3098 
    153 H153      -49.6057  -22.8444    8.4797 H         1 UNK         0.0720 
    154 H154      -51.1627  -21.4338    7.1604 H         1 UNK         0.0791 
    155 H155      -50.0557  -21.4448    5.7863 H         1 UNK         0.0791 
    156 H156      -49.5987  -20.6469    7.2849 H         1 UNK         0.0791 
    157 H157      -50.8991  -23.7705    6.1211 H         1 UNK         0.3028 
@<TRIPOS>BOND
     1    1    2 1    
     2    1   82 1    
     3    1   83 1    
     4    1   84 1    
     5    2    3 2    
     6    2    4 am   BACKBONE|DICT|INTERRES
     7    4    5 1    
     8    4   85 1    
     9    5    6 1    
    10    5   80 1    
    11    5   86 1    
    12    6    7 1    
    13    6   87 1    
    14    6   88 1    
    15    7    8 1    
    16    8    9 1    
    17    8   89 1    
    18    8   90 1    
    19    9   10 ar   
    20    9   14 ar   
    21   10   11 ar   
    22   10   91 1    
    23   11   12 ar   
    24   11   58 1    
    25   12   13 ar   
    26   12   92 1    
    27   13   14 ar   
    28   13   15 1    
    29   14   93 1    
    30   15   16 1    
    31   15   94 1    
    32   15   95 1    
    33   16   17 1    
    34   17   18 1    
    35   17   96 1    
    36   17   97 1    
    37   18   19 1    
    38   18   22 1    
    39   18   98 1    
    40   19   20 am   BACKBONE|DICT|INTERRES
    41   19   21 2    
    42   20   99 1    
    43   20  100 1    
    44   22   23 am   BACKBONE|DICT|INTERRES
    45   22  101 1    
    46   23   24 2    
    47   23   25 1    
    48   25   26 1    
    49   25   27 1    
    50   25  102 1    
    51   26  103 1    
    52   26  104 1    
    53   26  105 1    
    54   27   28 am   BACKBONE|DICT|INTERRES
    55   27  106 1    
    56   28   29 2    
    57   28   30 1    
    58   30   31 1    
    59   30   32 1    
    60   30  107 1    
    61   31  108 1    
    62   31  109 1    
    63   31  110 1    
    64   32   33 am   BACKBONE|DICT|INTERRES
    65   32  111 1    
    66   33   34 2    
    67   33   35 1    
    68   35   36 1    
    69   35   37 1    
    70   35  112 1    
    71   36  113 1    
    72   36  114 1    
    73   36  115 1    
    74   37   38 am   BACKBONE|DICT|INTERRES
    75   37  116 1    
    76   38   39 2    
    77   38   40 1    
    78   40   41 1    
    79   40   42 1    
    80   40  117 1    
    81   41  118 1    
    82   41  119 1    
    83   41  120 1    
    84   42   43 am   BACKBONE|DICT|INTERRES
    85   42  121 1    
    86   43   44 2    
    87   43   45 1    
    88   45   46 1    
    89   45   47 1    
    90   45  122 1    
    91   46  123 1    
    92   46  124 1    
    93   46  125 1    
    94   47   48 am   BACKBONE|DICT|INTERRES
    95   47  126 1    
    96   48   49 2    
    97   48   50 1    
    98   50   51 1    
    99   50   52 1    
   100   50  127 1    
   101   51  128 1    
   102   51  129 1    
   103   51  130 1    
   104   52   53 am   BACKBONE|DICT|INTERRES
   105   52  131 1    
   106   53   54 2    
   107   53   55 1    
   108   55   56 1    
   109   55   59 1    
   110   55  132 1    
   111   56   57 1    
   112   56  133 1    
   113   56  134 1    
   114   57   58 1    
   115   58  135 1    
   116   58  136 1    
   117   59   60 am   BACKBONE|DICT|INTERRES
   118   59  137 1    
   119   60   61 2    
   120   60   62 1    
   121   62   63 1    
   122   62   64 1    
   123   62  138 1    
   124   63  139 1    
   125   63  140 1    
   126   63  141 1    
   127   64   65 am   BACKBONE|DICT|INTERRES
   128   64  142 1    
   129   65   66 2    
   130   65   67 1    
   131   67   68 1    
   132   67   69 1    
   133   67  143 1    
   134   68  144 1    
   135   68  145 1    
   136   68  146 1    
   137   69   70 am   BACKBONE|DICT|INTERRES
   138   69  147 1    
   139   70   71 2    
   140   70   72 1    
   141   72   73 1    
   142   72   74 1    
   143   72  148 1    
   144   73  149 1    
   145   73  150 1    
   146   73  151 1    
   147   74   75 am   BACKBONE|DICT|INTERRES
   148   74  152 1    
   149   75   76 2    
   150   75   77 1    
   151   77   78 1    
   152   77   79 1    
   153   77  153 1    
   154   78  154 1    
   155   78  155 1    
   156   78  156 1    
   157   79   80 am   BACKBONE|DICT|INTERRES
   158   79  157 1    
   159   80   81 2    
@<TRIPOS>SUBSTRUCTURE
     1 UNK         1 GROUP             0       ****    0 ROOT    
