@<TRIPOS>MOLECULE
3R207
157   159    1
SMALL
USER_CHARGES


@<TRIPOS>ATOM
      1 CA        -55.0318  -28.4063    5.6716 C.3       0 UNK        -0.1975 
      2 C         -53.5240  -28.2026    5.6465 C.2       0 UNK         0.4852 
      3 O         -52.9982  -27.6661    4.6703 O.2       0 UNK        -0.5216 
      4 N         -52.8336  -28.6308    6.7124 N.am      1 UNK        -0.4461 
      5 CA        -51.3909  -28.4898    6.9328 C.3       1 UNK         0.0864 
      6 C6        -50.5590  -29.2787    5.8796 C.3       14 UNK        -0.0898 
      7 S7        -48.9443  -29.8471    6.5079 S.3       14 UNK        -0.2598 
      8 C8        -49.3411  -31.5296    7.0940 C.3       14 UNK         0.0286 
      9 C9        -50.0026  -31.4945    8.4637 C.ar      14 UNK        -0.0844 
     10 C10       -49.2132  -31.3606    9.6089 C.ar      14 UNK        -0.0881 
     11 C11       -49.8043  -31.2568   10.8711 C.ar      14 UNK        -0.0643 
     12 C12       -51.1952  -31.3093   10.9852 C.ar      14 UNK        -0.0930 
     13 C13       -51.9964  -31.4429    9.8482 C.ar      14 UNK        -0.0827 
     14 C14       -51.3945  -31.5576    8.5902 C.ar      14 UNK        -0.1249 
     15 C15       -53.5124  -31.4221    9.9827 C.3       14 UNK         0.0141 
     16 S16       -54.2303  -29.8791    9.3330 S.3       14 UNK        -0.2313 
     17 C17       -53.3983  -28.5935   10.3388 C.3       14 UNK        -0.0915 
     18 CA        -54.2698  -27.3844   10.7991 C.3       13 UNK         0.0968 
     19 C         -55.1608  -26.7403    9.6976 C.2       13 UNK         0.5732 
     20 N         -54.5679  -26.3141    8.5897 N.am      13 UNK        -0.7310 
     21 O         -56.3717  -26.5809    9.8416 O.2       13 UNK        -0.5035 
     22 N         -54.9429  -27.6092   12.0859 N.am      13 UNK        -0.4233 
     23 C         -55.9051  -28.4832   12.4038 C.2       13 UNK         0.4989 
     24 O         -56.4112  -29.2847   11.6185 O.2       13 UNK        -0.4996 
     25 CA        -56.3701  -28.4636   13.8791 C.3       12 UNK         0.0216 
     26 CB        -57.3449  -29.6103   14.2110 C.3       12 UNK        -0.1964 
     27 N         -55.2531  -28.5004   14.8344 N.am      12 UNK        -0.4276 
     28 C         -54.4493  -27.4691   15.1220 C.2       12 UNK         0.5020 
     29 O         -54.5581  -26.3617   14.5910 O.2       12 UNK        -0.5489 
     30 CA        -53.2932  -27.7402   16.0957 C.3       11 UNK         0.0294 
     31 CB        -52.1084  -28.3754   15.3459 C.3       11 UNK        -0.2019 
     32 N         -52.8409  -26.4980   16.7214 N.am      11 UNK        -0.4493 
     33 C         -53.4879  -25.8499   17.6988 C.2       11 UNK         0.4932 
     34 O         -54.4955  -26.2851   18.2582 O.2       11 UNK        -0.5029 
     35 CA        -52.9210  -24.4882   18.1259 C.3       10 UNK         0.0280 
     36 CB        -51.6758  -24.6765   19.0093 C.3       10 UNK        -0.1976 
     37 N         -52.5679  -23.6708   16.9630 N.am      10 UNK        -0.4242 
     38 C         -53.1419  -22.5055   16.6286 C.2       10 UNK         0.5072 
     39 O         -54.0540  -21.9817   17.2704 O.2       10 UNK        -0.5224 
     40 CA        -52.6015  -21.7726   15.3830 C.3       9 UNK         0.0343 
     41 CB        -51.6234  -20.6615   15.7992 C.3       9 UNK        -0.2003 
     42 N         -51.9293  -22.6678   14.4407 N.am      9 UNK        -0.4272 
     43 C         -52.5591  -23.4943   13.5953 C.2       9 UNK         0.4988 
     44 O         -53.7724  -23.4563   13.3917 O.2       9 UNK        -0.5108 
     45 CA        -51.7059  -24.5413   12.8481 C.3       8 UNK         0.0248 
     46 CB        -51.6754  -24.2446   11.3380 C.3       8 UNK        -0.2001 
     47 N         -50.3247  -24.7000   13.3247 N.am      8 UNK        -0.4140 
     48 C         -49.9333  -25.0837   14.5473 C.2       8 UNK         0.5028 
     49 O         -50.7123  -25.2443   15.4873 O.2       8 UNK        -0.5428 
     50 CA        -48.4247  -25.3328   14.7460 C.3       7 UNK         0.0264 
     51 CB        -48.0825  -25.7227   16.1966 C.3       7 UNK        -0.1988 
     52 N         -47.9317  -26.3781   13.8448 N.am      7 UNK        -0.4454 
     53 C         -47.7145  -26.2217   12.5334 C.2       7 UNK         0.5027 
     54 O         -47.8605  -25.1467   11.9490 O.2       7 UNK        -0.5083 
     55 CA        -47.3526  -27.4818   11.7363 C.3       6 UNK         0.0844 
     56 C56       -48.6150  -28.3120   11.3999 C.3       14 UNK        -0.0967 
     57 S57       -49.1684  -29.3612   12.7894 S.3       14 UNK        -0.2604 
     58 C58       -48.9448  -31.0366   12.1076 C.3       14 UNK         0.0134 
     59 N         -46.6673  -27.0727   10.5155 N.am      6 UNK        -0.4116 
     60 C         -45.6638  -27.7302    9.9268 C.2       5 UNK         0.5034 
     61 O         -45.1571  -28.7563   10.3819 O.2       5 UNK        -0.5045 
     62 CA        -45.1386  -27.1687    8.5968 C.3       5 UNK         0.0224 
     63 CB        -45.8352  -27.8726    7.4202 C.3       5 UNK        -0.1978 
     64 N         -45.3510  -25.7239    8.4707 N.am      5 UNK        -0.4737 
     65 C         -44.4001  -24.7939    8.6384 C.2       4 UNK         0.5027 
     66 O         -43.2440  -25.0557    8.9711 O.2       4 UNK        -0.5211 
     67 CA        -44.7779  -23.3259    8.3607 C.3       4 UNK         0.0297 
     68 CB        -44.2626  -22.8996    6.9760 C.3       4 UNK        -0.1993 
     69 N         -46.2214  -23.0915    8.4204 N.am      4 UNK        -0.4486 
     70 C         -46.9097  -22.8660    9.5472 C.2       3 UNK         0.4961 
     71 O         -46.3775  -22.6876   10.6426 O.2       3 UNK        -0.5105 
     72 CA        -48.4491  -22.8312    9.4376 C.3       3 UNK         0.0299 
     73 CB        -48.9644  -21.3858    9.5285 C.3       3 UNK        -0.1972 
     74 N         -48.9879  -23.4589    8.2228 N.am      3 UNK        -0.4305 
     75 C         -48.8850  -24.7592    7.9151 C.2       2 UNK         0.5006 
     76 O         -48.2961  -25.5854    8.6142 O.2       2 UNK        -0.5106 
     77 CA        -49.4332  -25.1759    6.5429 C.3       2 UNK         0.0296 
     78 CB        -48.3427  -25.0116    5.4706 C.3       2 UNK        -0.2002 
     79 N         -49.9016  -26.5613    6.5259 N.am      2 UNK        -0.4032 
     80 C         -51.0161  -27.0019    7.1228 C.2       1 UNK         0.5000 
     81 O         -51.7560  -26.2845    7.8050 O.2       1 UNK        -0.5238 
     82 H82       -55.3719  -28.8219    6.6201 H         1 UNK         0.0889 
     83 H83       -55.3324  -29.0858    4.8747 H         1 UNK         0.0889 
     84 H84       -55.5408  -27.4550    5.5201 H         1 UNK         0.0889 
     85 H85       -53.3408  -29.0382    7.4890 H         1 UNK         0.3028 
     86 H86       -51.2099  -28.9409    7.9076 H         1 UNK         0.0864 
     87 H87       -51.1139  -30.1616    5.5587 H         1 UNK         0.0720 
     88 H88       -50.4109  -28.6988    4.9670 H         1 UNK         0.0720 
     89 H89       -48.4168  -32.1062    7.1527 H         1 UNK         0.0814 
     90 H90       -49.9715  -32.0466    6.3691 H         1 UNK         0.0814 
     91 H91       -48.1376  -31.2999    9.5114 H         1 UNK         0.1469 
     92 H92       -51.6518  -31.2076   11.9603 H         1 UNK         0.1381 
     93 H93       -52.0125  -31.6482    7.7073 H         1 UNK         0.1206 
     94 H94       -53.8161  -31.5430   11.0238 H         1 UNK         0.0813 
     95 H95       -53.9360  -32.2675    9.4390 H         1 UNK         0.0813 
     96 H96       -52.5591  -28.2218    9.7513 H         1 UNK         0.0638 
     97 H97       -52.9431  -29.0595   11.2133 H         1 UNK         0.0638 
     98 H98       -53.5640  -26.5922   11.0494 H         1 UNK         0.0568 
     99 H99       -53.5631  -26.3806    8.4523 H         1 UNK         0.3450 
    100 H100      -55.1335  -25.8708    7.8852 H         1 UNK         0.3450 
    101 H101      -54.6651  -26.9774   12.8334 H         1 UNK         0.2987 
    102 H102      -56.9103  -27.5250   14.0218 H         1 UNK         0.0766 
    103 H103      -56.8798  -30.5875   14.0753 H         1 UNK         0.0798 
    104 H104      -57.6995  -29.5457   15.2399 H         1 UNK         0.0798 
    105 H105      -58.2249  -29.5754   13.5672 H         1 UNK         0.0798 
    106 H106      -55.0698  -29.3924   15.2719 H         1 UNK         0.3198 
    107 H107      -53.6345  -28.4248   16.8752 H         1 UNK         0.0843 
    108 H108      -52.3850  -29.3353   14.9084 H         1 UNK         0.0831 
    109 H109      -51.2655  -28.5558   16.0133 H         1 UNK         0.0831 
    110 H110      -51.7566  -27.7390   14.5324 H         1 UNK         0.0831 
    111 H111      -52.0318  -26.0526   16.2891 H         1 UNK         0.3133 
    112 H112      -53.6852  -23.9893   18.7254 H         1 UNK         0.0566 
    113 H113      -51.3062  -23.7197   19.3784 H         1 UNK         0.0814 
    114 H114      -51.9033  -25.2938   19.8794 H         1 UNK         0.0814 
    115 H115      -50.8627  -25.1613   18.4668 H         1 UNK         0.0814 
    116 H116      -51.8553  -24.0591   16.3497 H         1 UNK         0.3091 
    117 H117      -53.4512  -21.3067   14.8792 H         1 UNK         0.0702 
    118 H118      -51.2783  -20.0925   14.9357 H         1 UNK         0.0785 
    119 H119      -50.7475  -21.0636   16.3103 H         1 UNK         0.0785 
    120 H120      -52.1022  -19.9559   16.4798 H         1 UNK         0.0785 
    121 H121      -50.9275  -22.7528   14.5269 H         1 UNK         0.2998 
    122 H122      -52.2025  -25.5025   12.9954 H         1 UNK         0.0697 
    123 H123      -52.6846  -24.1819   10.9284 H         1 UNK         0.0825 
    124 H124      -51.1529  -25.0261   10.7847 H         1 UNK         0.0825 
    125 H125      -51.1818  -23.2956   11.1265 H         1 UNK         0.0825 
    126 H126      -49.5907  -24.6129   12.6266 H         1 UNK         0.3029 
    127 H127      -47.9077  -24.3977   14.5191 H         1 UNK         0.0897 
    128 H128      -47.0083  -25.8511   16.3308 H         1 UNK         0.0792 
    129 H129      -48.4042  -24.9493   16.8955 H         1 UNK         0.0792 
    130 H130      -48.5722  -26.6518   16.4918 H         1 UNK         0.0792 
    131 H131      -47.8598  -27.3084   14.2332 H         1 UNK         0.3086 
    132 H132      -46.6671  -28.0768   12.3440 H         1 UNK         0.0583 
    133 H133      -49.4424  -27.6748   11.0787 H         1 UNK         0.1020 
    134 H134      -48.4031  -28.9471   10.5409 H         1 UNK         0.1020 
    135 H135      -47.8884  -31.1944   11.8841 H         1 UNK         0.0694 
    136 H136      -49.2131  -31.7698   12.8694 H         1 UNK         0.0694 
    137 H137      -47.0518  -26.2427   10.0746 H         1 UNK         0.2989 
    138 H138      -44.0720  -27.3994    8.5448 H         1 UNK         0.1055 
    139 H139      -45.4352  -27.5372    6.4634 H         1 UNK         0.0806 
    140 H140      -46.9098  -27.6862    7.4184 H         1 UNK         0.0806 
    141 H141      -45.6938  -28.9533    7.4695 H         1 UNK         0.0806 
    142 H142      -46.3004  -25.4298    8.2726 H         1 UNK         0.3061 
    143 H143      -44.2812  -22.7085    9.1125 H         1 UNK         0.0734 
    144 H144      -43.1819  -23.0313    6.9051 H         1 UNK         0.0832 
    145 H145      -44.7145  -23.4876    6.1760 H         1 UNK         0.0832 
    146 H146      -44.4716  -21.8476    6.7807 H         1 UNK         0.0832 
    147 H147      -46.7357  -23.1790    7.5569 H         1 UNK         0.3156 
    148 H148      -48.8435  -23.3830   10.2917 H         1 UNK         0.0589 
    149 H149      -50.0539  -21.3517    9.5454 H         1 UNK         0.0808 
    150 H150      -48.6145  -20.9040   10.4428 H         1 UNK         0.0808 
    151 H151      -48.6200  -20.7803    8.6892 H         1 UNK         0.0808 
    152 H152      -49.4680  -22.8462    7.5785 H         1 UNK         0.3098 
    153 H153      -50.2774  -24.5304    6.2903 H         1 UNK         0.0720 
    154 H154      -48.7166  -25.2788    4.4818 H         1 UNK         0.0791 
    155 H155      -47.4725  -25.6361    5.6784 H         1 UNK         0.0791 
    156 H156      -47.9975  -23.9786    5.4122 H         1 UNK         0.0791 
    157 H157      -49.3234  -27.2338    6.0429 H         1 UNK         0.3028 
@<TRIPOS>BOND
     1    1    2 1    
     2    1   82 1    
     3    1   83 1    
     4    1   84 1    
     5    2    3 2    
     6    2    4 am   BACKBONE|DICT|INTERRES
     7    4    5 1    
     8    4   85 1    
     9    5    6 1    
    10    5   80 1    
    11    5   86 1    
    12    6    7 1    
    13    6   87 1    
    14    6   88 1    
    15    7    8 1    
    16    8    9 1    
    17    8   89 1    
    18    8   90 1    
    19    9   10 ar   
    20    9   14 ar   
    21   10   11 ar   
    22   10   91 1    
    23   11   12 ar   
    24   11   58 1    
    25   12   13 ar   
    26   12   92 1    
    27   13   14 ar   
    28   13   15 1    
    29   14   93 1    
    30   15   16 1    
    31   15   94 1    
    32   15   95 1    
    33   16   17 1    
    34   17   18 1    
    35   17   96 1    
    36   17   97 1    
    37   18   19 1    
    38   18   22 1    
    39   18   98 1    
    40   19   20 am   BACKBONE|DICT|INTERRES
    41   19   21 2    
    42   20   99 1    
    43   20  100 1    
    44   22   23 am   BACKBONE|DICT|INTERRES
    45   22  101 1    
    46   23   24 2    
    47   23   25 1    
    48   25   26 1    
    49   25   27 1    
    50   25  102 1    
    51   26  103 1    
    52   26  104 1    
    53   26  105 1    
    54   27   28 am   BACKBONE|DICT|INTERRES
    55   27  106 1    
    56   28   29 2    
    57   28   30 1    
    58   30   31 1    
    59   30   32 1    
    60   30  107 1    
    61   31  108 1    
    62   31  109 1    
    63   31  110 1    
    64   32   33 am   BACKBONE|DICT|INTERRES
    65   32  111 1    
    66   33   34 2    
    67   33   35 1    
    68   35   36 1    
    69   35   37 1    
    70   35  112 1    
    71   36  113 1    
    72   36  114 1    
    73   36  115 1    
    74   37   38 am   BACKBONE|DICT|INTERRES
    75   37  116 1    
    76   38   39 2    
    77   38   40 1    
    78   40   41 1    
    79   40   42 1    
    80   40  117 1    
    81   41  118 1    
    82   41  119 1    
    83   41  120 1    
    84   42   43 am   BACKBONE|DICT|INTERRES
    85   42  121 1    
    86   43   44 2    
    87   43   45 1    
    88   45   46 1    
    89   45   47 1    
    90   45  122 1    
    91   46  123 1    
    92   46  124 1    
    93   46  125 1    
    94   47   48 am   BACKBONE|DICT|INTERRES
    95   47  126 1    
    96   48   49 2    
    97   48   50 1    
    98   50   51 1    
    99   50   52 1    
   100   50  127 1    
   101   51  128 1    
   102   51  129 1    
   103   51  130 1    
   104   52   53 am   BACKBONE|DICT|INTERRES
   105   52  131 1    
   106   53   54 2    
   107   53   55 1    
   108   55   56 1    
   109   55   59 1    
   110   55  132 1    
   111   56   57 1    
   112   56  133 1    
   113   56  134 1    
   114   57   58 1    
   115   58  135 1    
   116   58  136 1    
   117   59   60 am   BACKBONE|DICT|INTERRES
   118   59  137 1    
   119   60   61 2    
   120   60   62 1    
   121   62   63 1    
   122   62   64 1    
   123   62  138 1    
   124   63  139 1    
   125   63  140 1    
   126   63  141 1    
   127   64   65 am   BACKBONE|DICT|INTERRES
   128   64  142 1    
   129   65   66 2    
   130   65   67 1    
   131   67   68 1    
   132   67   69 1    
   133   67  143 1    
   134   68  144 1    
   135   68  145 1    
   136   68  146 1    
   137   69   70 am   BACKBONE|DICT|INTERRES
   138   69  147 1    
   139   70   71 2    
   140   70   72 1    
   141   72   73 1    
   142   72   74 1    
   143   72  148 1    
   144   73  149 1    
   145   73  150 1    
   146   73  151 1    
   147   74   75 am   BACKBONE|DICT|INTERRES
   148   74  152 1    
   149   75   76 2    
   150   75   77 1    
   151   77   78 1    
   152   77   79 1    
   153   77  153 1    
   154   78  154 1    
   155   78  155 1    
   156   78  156 1    
   157   79   80 am   BACKBONE|DICT|INTERRES
   158   79  157 1    
   159   80   81 2    
@<TRIPOS>SUBSTRUCTURE
     1 UNK         1 GROUP             0       ****    0 ROOT    
