@<TRIPOS>MOLECULE
3R207
157   159    1
SMALL
USER_CHARGES


@<TRIPOS>ATOM
      1 CA        -47.3011  -26.9558   10.7724 C.3       0 UNK        -0.1975 
      2 C         -47.4456  -27.9809    9.6568 C.2       0 UNK         0.4852 
      3 O         -47.0942  -29.1452    9.8521 O.2       0 UNK        -0.5216 
      4 N         -47.9653  -27.5530    8.5013 N.am      1 UNK        -0.4461 
      5 CA        -48.1312  -28.3624    7.2938 C.3       1 UNK         0.0864 
      6 C6        -49.5994  -28.3800    6.8006 C.3       14 UNK        -0.0898 
      7 S7        -50.6644  -29.3612    7.9061 S.3       14 UNK        -0.2598 
      8 C8        -52.2280  -29.3582    6.9757 C.3       14 UNK         0.0286 
      9 C9        -53.1710  -28.2737    7.4734 C.ar      14 UNK        -0.0844 
     10 C10       -53.0950  -26.9725    6.9661 C.ar      14 UNK        -0.0881 
     11 C11       -53.9741  -25.9821    7.4183 C.ar      14 UNK        -0.0643 
     12 C12       -54.9345  -26.3055    8.3826 C.ar      14 UNK        -0.0930 
     13 C13       -55.0309  -27.6070    8.8844 C.ar      14 UNK        -0.0827 
     14 C14       -54.1432  -28.5848    8.4283 C.ar      14 UNK        -0.1249 
     15 C15       -56.1211  -27.9601    9.8869 C.3       14 UNK         0.0141 
     16 S16       -55.5729  -27.7087   11.6020 S.3       14 UNK        -0.2313 
     17 C17       -54.6985  -29.2710   11.9620 C.3       14 UNK        -0.0915 
     18 CA        -55.3755  -30.0995   13.0859 C.3       13 UNK         0.0968 
     19 C         -54.6756  -31.4761   13.2891 C.2       13 UNK         0.5732 
     20 N         -54.2810  -31.8658   14.4969 N.am      13 UNK        -0.7310 
     21 O         -54.5001  -32.2209   12.3277 O.2       13 UNK        -0.5035 
     22 N         -55.5179  -29.3275   14.3304 N.am      13 UNK        -0.4233 
     23 C         -56.5486  -29.4500   15.1766 C.2       13 UNK         0.4989 
     24 O         -57.5224  -30.1751   14.9626 O.2       13 UNK        -0.4996 
     25 CA        -56.4849  -28.6277   16.4801 C.3       12 UNK         0.0216 
     26 CB        -57.4381  -29.1618   17.5709 C.3       12 UNK        -0.1964 
     27 N         -55.1291  -28.4713   17.0209 N.am      12 UNK        -0.4276 
     28 C         -54.2698  -29.4427   17.3727 C.2       12 UNK         0.5020 
     29 O         -54.5162  -30.6434   17.2471 O.2       12 UNK        -0.5489 
     30 CA        -52.8972  -29.0103   17.9275 C.3       11 UNK         0.0294 
     31 CB        -51.7656  -29.9114   17.3987 C.3       11 UNK        -0.2019 
     32 N         -52.5961  -27.6234   17.5711 N.am      11 UNK        -0.4493 
     33 C         -52.6724  -26.5661   18.3911 C.2       11 UNK         0.4932 
     34 O         -52.9124  -26.6496   19.5954 O.2       11 UNK        -0.5029 
     35 CA        -52.4833  -25.1722   17.7586 C.3       10 UNK         0.0280 
     36 CB        -51.0598  -24.6555   18.0188 C.3       10 UNK        -0.1976 
     37 N         -52.7606  -25.1456   16.3168 N.am      10 UNK        -0.4242 
     38 C         -53.9769  -25.3396   15.7784 C.2       10 UNK         0.5072 
     39 O         -54.9979  -25.4793   16.4522 O.2       10 UNK        -0.5224 
     40 CA        -54.0756  -25.4893   14.2475 C.3       9 UNK         0.0343 
     41 CB        -54.4463  -24.1503   13.5936 C.3       9 UNK        -0.2003 
     42 N         -52.8560  -26.0134   13.6269 N.am      9 UNK        -0.4272 
     43 C         -52.2891  -27.1933   13.9255 C.2       9 UNK         0.4988 
     44 O         -52.8272  -28.0279   14.6535 O.2       9 UNK        -0.5108 
     45 CA        -50.8696  -27.4767   13.3907 C.3       8 UNK         0.0248 
     46 CB        -50.9112  -28.4939   12.2387 C.3       8 UNK        -0.2001 
     47 N         -50.1450  -26.2822   12.9480 N.am      8 UNK        -0.4140 
     48 C         -49.8643  -25.2032   13.6944 C.2       8 UNK         0.5028 
     49 O         -50.1070  -25.1279   14.8991 O.2       8 UNK        -0.5428 
     50 CA        -49.2937  -23.9717   12.9629 C.3       7 UNK         0.0264 
     51 CB        -47.7864  -23.8453   13.2354 C.3       7 UNK        -0.1988 
     52 N         -49.5456  -23.9376   11.5107 N.am      7 UNK        -0.4454 
     53 C         -50.7621  -23.9925   10.9350 C.2       7 UNK         0.5027 
     54 O         -51.8043  -24.0616   11.5886 O.2       7 UNK        -0.5083 
     55 CA        -50.8316  -24.0198    9.3939 C.3       6 UNK         0.0844 
     56 C56       -52.2080  -23.5546    8.8490 C.3       14 UNK        -0.0967 
     57 S57       -52.3201  -23.7510    7.0364 S.3       14 UNK        -0.2604 
     58 C58       -53.9306  -24.5768    6.8289 C.3       14 UNK         0.0134 
     59 N         -49.7275  -23.2443    8.8264 N.am      6 UNK        -0.4116 
     60 C         -48.7491  -23.7330    8.0581 C.2       5 UNK         0.5034 
     61 O         -48.6415  -24.9220    7.7535 O.2       5 UNK        -0.5045 
     62 CA        -47.6914  -22.7360    7.5483 C.3       5 UNK         0.0224 
     63 CB        -48.0455  -21.2513    7.7953 C.3       5 UNK        -0.1978 
     64 N         -46.3549  -23.0285    8.0776 N.am      5 UNK        -0.4737 
     65 C         -46.0026  -23.1499    9.3678 C.2       4 UNK         0.5027 
     66 O         -46.8053  -23.0790   10.2996 O.2       4 UNK        -0.5211 
     67 CA        -44.5003  -23.3611    9.6588 C.3       4 UNK         0.0297 
     68 CB        -44.2355  -23.9514   11.0614 C.3       4 UNK        -0.1993 
     69 N         -43.8155  -24.1228    8.6038 N.am      4 UNK        -0.4486 
     70 C         -44.0414  -25.4006    8.2706 C.2       3 UNK         0.4961 
     71 O         -44.7624  -26.1697    8.9046 O.2       3 UNK        -0.5105 
     72 CA        -43.4218  -25.8841    6.9503 C.3       3 UNK         0.0299 
     73 CB        -42.5673  -27.1452    7.1581 C.3       3 UNK        -0.1972 
     74 N         -44.5066  -26.1789    6.0158 N.am      3 UNK        -0.4305 
     75 C         -45.3122  -25.2550    5.4772 C.2       2 UNK         0.5006 
     76 O         -45.0932  -24.0434    5.5306 O.2       2 UNK        -0.5106 
     77 CA        -46.6228  -25.7532    4.8503 C.3       2 UNK         0.0296 
     78 CB        -46.3946  -26.4469    3.4925 C.3       2 UNK        -0.2002 
     79 N         -47.4107  -26.5697    5.7854 N.am      2 UNK        -0.4032 
     80 C         -47.1757  -27.8182    6.2199 C.2       1 UNK         0.5000 
     81 O         -46.2284  -28.5109    5.8423 O.2       1 UNK        -0.5238 
     82 H82       -47.6432  -25.9682   10.4646 H         1 UNK         0.0889 
     83 H83       -46.2543  -26.8713   11.0618 H         1 UNK         0.0889 
     84 H84       -47.8654  -27.2682   11.6490 H         1 UNK         0.0889 
     85 H85       -48.1999  -26.5687    8.3907 H         1 UNK         0.3028 
     86 H86       -47.8283  -29.3948    7.4823 H         1 UNK         0.0864 
     87 H87       -50.0038  -27.3688    6.7267 H         1 UNK         0.0720 
     88 H88       -49.6607  -28.8175    5.8020 H         1 UNK         0.0720 
     89 H89       -52.0402  -29.2371    5.9079 H         1 UNK         0.0814 
     90 H90       -52.6975  -30.3370    7.0857 H         1 UNK         0.0814 
     91 H91       -52.3562  -26.7285    6.2153 H         1 UNK         0.1469 
     92 H92       -55.6253  -25.5490    8.7294 H         1 UNK         0.1381 
     93 H93       -54.2147  -29.5949    8.8065 H         1 UNK         0.1206 
     94 H94       -56.4562  -28.9891    9.7472 H         1 UNK         0.0813 
     95 H95       -56.9975  -27.3351    9.7094 H         1 UNK         0.0813 
     96 H96       -54.6322  -29.8620   11.0487 H         1 UNK         0.0638 
     97 H97       -53.6737  -29.0312   12.2325 H         1 UNK         0.0638 
     98 H98       -56.3743  -30.3457   12.7212 H         1 UNK         0.0568 
     99 H99       -53.8377  -32.7644   14.5968 H         1 UNK         0.3450 
    100 H100      -54.4405  -31.2936   15.3187 H         1 UNK         0.3450 
    101 H101      -54.7188  -28.7571   14.5854 H         1 UNK         0.2987 
    102 H102      -56.8210  -27.6246   16.2134 H         1 UNK         0.0766 
    103 H103      -57.3958  -28.5472   18.4701 H         1 UNK         0.0798 
    104 H104      -58.4730  -29.1563   17.2266 H         1 UNK         0.0798 
    105 H105      -57.1939  -30.1866   17.8530 H         1 UNK         0.0798 
    106 H106      -54.8259  -27.5097   17.1266 H         1 UNK         0.3198 
    107 H107      -52.9423  -29.1214   19.0128 H         1 UNK         0.0843 
    108 H108      -51.7190  -29.9036   16.3090 H         1 UNK         0.0831 
    109 H109      -51.9097  -30.9467   17.7105 H         1 UNK         0.0831 
    110 H110      -50.7947  -29.5936   17.7788 H         1 UNK         0.0831 
    111 H111      -52.4357  -27.4647   16.5821 H         1 UNK         0.3133 
    112 H112      -53.1851  -24.4919   18.2457 H         1 UNK         0.0566 
    113 H113      -50.3063  -25.3145   17.5858 H         1 UNK         0.0814 
    114 H114      -50.8581  -24.5906   19.0888 H         1 UNK         0.0814 
    115 H115      -50.9142  -23.6596   17.6001 H         1 UNK         0.0814 
    116 H116      -51.9524  -25.0652   15.7049 H         1 UNK         0.3091 
    117 H117      -54.8786  -26.2005   14.0477 H         1 UNK         0.0702 
    118 H118      -54.6096  -24.2677   12.5219 H         1 UNK         0.0785 
    119 H119      -53.6633  -23.4037   13.7326 H         1 UNK         0.0785 
    120 H120      -55.3659  -23.7470   14.0198 H         1 UNK         0.0785 
    121 H121      -52.3780  -25.3873   12.9858 H         1 UNK         0.2998 
    122 H122      -50.3010  -27.9140   14.2139 H         1 UNK         0.0697 
    123 H123      -51.3751  -29.4269   12.5614 H         1 UNK         0.0825 
    124 H124      -49.9100  -28.7457   11.8888 H         1 UNK         0.0825 
    125 H125      -51.4805  -28.1201   11.3860 H         1 UNK         0.0825 
    126 H126      -49.9332  -26.2289   11.9641 H         1 UNK         0.3029 
    127 H127      -49.7889  -23.0995   13.3946 H         1 UNK         0.0897 
    128 H128      -47.4013  -22.8874   12.8857 H         1 UNK         0.0792 
    129 H129      -47.5726  -23.9024   14.3037 H         1 UNK         0.0792 
    130 H130      -47.2168  -24.6353   12.7452 H         1 UNK         0.0792 
    131 H131      -48.7274  -23.8155   10.9216 H         1 UNK         0.3086 
    132 H132      -50.7211  -25.0732    9.1271 H         1 UNK         0.0583 
    133 H133      -53.0149  -24.1224    9.3161 H         1 UNK         0.1020 
    134 H134      -52.3906  -22.5083    9.0998 H         1 UNK         0.1020 
    135 H135      -54.7063  -23.9452    7.2649 H         1 UNK         0.0694 
    136 H136      -54.1534  -24.6400    5.7630 H         1 UNK         0.0694 
    137 H137      -49.7140  -22.2599    9.0508 H         1 UNK         0.2989 
    138 H138      -47.6379  -22.8860    6.4688 H         1 UNK         0.1055 
    139 H139      -47.3094  -20.5959    7.3295 H         1 UNK         0.0806 
    140 H140      -48.0752  -21.0023    8.8568 H         1 UNK         0.0806 
    141 H141      -49.0130  -20.9954    7.3608 H         1 UNK         0.0806 
    142 H142      -45.6410  -23.1787    7.3727 H         1 UNK         0.3061 
    143 H143      -44.0571  -22.3644    9.6419 H         1 UNK         0.0734 
    144 H144      -44.6105  -23.2858   11.8398 H         1 UNK         0.0832 
    145 H145      -44.7288  -24.9130   11.1997 H         1 UNK         0.0832 
    146 H146      -43.1696  -24.0904   11.2403 H         1 UNK         0.0832 
    147 H147      -43.2133  -23.5789    7.9998 H         1 UNK         0.3156 
    148 H148      -42.7896  -25.1009    6.5266 H         1 UNK         0.0589 
    149 H149      -43.1551  -27.9710    7.5619 H         1 UNK         0.0808 
    150 H150      -42.1202  -27.4794    6.2218 H         1 UNK         0.0808 
    151 H151      -41.7527  -26.9520    7.8571 H         1 UNK         0.0808 
    152 H152      -44.8240  -27.1432    5.9722 H         1 UNK         0.3098 
    153 H153      -47.2326  -24.8689    4.6584 H         1 UNK         0.0720 
    154 H154      -47.3370  -26.7707    3.0508 H         1 UNK         0.0791 
    155 H155      -45.9233  -25.7630    2.7856 H         1 UNK         0.0791 
    156 H156      -45.7458  -27.3191    3.5742 H         1 UNK         0.0791 
    157 H157      -48.1442  -26.0546    6.2642 H         1 UNK         0.3028 
@<TRIPOS>BOND
     1    1    2 1    
     2    1   82 1    
     3    1   83 1    
     4    1   84 1    
     5    2    3 2    
     6    2    4 am   BACKBONE|DICT|INTERRES
     7    4    5 1    
     8    4   85 1    
     9    5    6 1    
    10    5   80 1    
    11    5   86 1    
    12    6    7 1    
    13    6   87 1    
    14    6   88 1    
    15    7    8 1    
    16    8    9 1    
    17    8   89 1    
    18    8   90 1    
    19    9   10 ar   
    20    9   14 ar   
    21   10   11 ar   
    22   10   91 1    
    23   11   12 ar   
    24   11   58 1    
    25   12   13 ar   
    26   12   92 1    
    27   13   14 ar   
    28   13   15 1    
    29   14   93 1    
    30   15   16 1    
    31   15   94 1    
    32   15   95 1    
    33   16   17 1    
    34   17   18 1    
    35   17   96 1    
    36   17   97 1    
    37   18   19 1    
    38   18   22 1    
    39   18   98 1    
    40   19   20 am   BACKBONE|DICT|INTERRES
    41   19   21 2    
    42   20   99 1    
    43   20  100 1    
    44   22   23 am   BACKBONE|DICT|INTERRES
    45   22  101 1    
    46   23   24 2    
    47   23   25 1    
    48   25   26 1    
    49   25   27 1    
    50   25  102 1    
    51   26  103 1    
    52   26  104 1    
    53   26  105 1    
    54   27   28 am   BACKBONE|DICT|INTERRES
    55   27  106 1    
    56   28   29 2    
    57   28   30 1    
    58   30   31 1    
    59   30   32 1    
    60   30  107 1    
    61   31  108 1    
    62   31  109 1    
    63   31  110 1    
    64   32   33 am   BACKBONE|DICT|INTERRES
    65   32  111 1    
    66   33   34 2    
    67   33   35 1    
    68   35   36 1    
    69   35   37 1    
    70   35  112 1    
    71   36  113 1    
    72   36  114 1    
    73   36  115 1    
    74   37   38 am   BACKBONE|DICT|INTERRES
    75   37  116 1    
    76   38   39 2    
    77   38   40 1    
    78   40   41 1    
    79   40   42 1    
    80   40  117 1    
    81   41  118 1    
    82   41  119 1    
    83   41  120 1    
    84   42   43 am   BACKBONE|DICT|INTERRES
    85   42  121 1    
    86   43   44 2    
    87   43   45 1    
    88   45   46 1    
    89   45   47 1    
    90   45  122 1    
    91   46  123 1    
    92   46  124 1    
    93   46  125 1    
    94   47   48 am   BACKBONE|DICT|INTERRES
    95   47  126 1    
    96   48   49 2    
    97   48   50 1    
    98   50   51 1    
    99   50   52 1    
   100   50  127 1    
   101   51  128 1    
   102   51  129 1    
   103   51  130 1    
   104   52   53 am   BACKBONE|DICT|INTERRES
   105   52  131 1    
   106   53   54 2    
   107   53   55 1    
   108   55   56 1    
   109   55   59 1    
   110   55  132 1    
   111   56   57 1    
   112   56  133 1    
   113   56  134 1    
   114   57   58 1    
   115   58  135 1    
   116   58  136 1    
   117   59   60 am   BACKBONE|DICT|INTERRES
   118   59  137 1    
   119   60   61 2    
   120   60   62 1    
   121   62   63 1    
   122   62   64 1    
   123   62  138 1    
   124   63  139 1    
   125   63  140 1    
   126   63  141 1    
   127   64   65 am   BACKBONE|DICT|INTERRES
   128   64  142 1    
   129   65   66 2    
   130   65   67 1    
   131   67   68 1    
   132   67   69 1    
   133   67  143 1    
   134   68  144 1    
   135   68  145 1    
   136   68  146 1    
   137   69   70 am   BACKBONE|DICT|INTERRES
   138   69  147 1    
   139   70   71 2    
   140   70   72 1    
   141   72   73 1    
   142   72   74 1    
   143   72  148 1    
   144   73  149 1    
   145   73  150 1    
   146   73  151 1    
   147   74   75 am   BACKBONE|DICT|INTERRES
   148   74  152 1    
   149   75   76 2    
   150   75   77 1    
   151   77   78 1    
   152   77   79 1    
   153   77  153 1    
   154   78  154 1    
   155   78  155 1    
   156   78  156 1    
   157   79   80 am   BACKBONE|DICT|INTERRES
   158   79  157 1    
   159   80   81 2    
@<TRIPOS>SUBSTRUCTURE
     1 UNK         1 GROUP             0       ****    0 ROOT    
