@<TRIPOS>MOLECULE
3R207
157   159    1
SMALL
USER_CHARGES


@<TRIPOS>ATOM
      1 CA        -45.4623  -31.0384    4.8650 C.3       0 UNK        -0.1975 
      2 C         -46.3275  -29.9611    5.5014 C.2       0 UNK         0.4852 
      3 O         -45.8688  -29.2751    6.4157 O.2       0 UNK        -0.5216 
      4 N         -47.5658  -29.8001    5.0117 N.am      1 UNK        -0.4461 
      5 CA        -48.6153  -28.8672    5.4595 C.3       1 UNK         0.0864 
      6 C6        -49.0426  -29.0504    6.9407 C.3       14 UNK        -0.0898 
      7 S7        -49.7194  -30.7083    7.2842 S.3       14 UNK        -0.2598 
      8 C8        -51.4988  -30.4595    6.9801 C.3       14 UNK         0.0286 
      9 C9        -52.1415  -29.5336    8.0041 C.ar      14 UNK        -0.0844 
     10 C10       -52.4646  -28.2162    7.6608 C.ar      14 UNK        -0.0881 
     11 C11       -53.0695  -27.3672    8.5923 C.ar      14 UNK        -0.0643 
     12 C12       -53.3676  -27.8533    9.8679 C.ar      14 UNK        -0.0930 
     13 C13       -53.0319  -29.1588   10.2297 C.ar      14 UNK        -0.0827 
     14 C14       -52.4238  -29.9984    9.2923 C.ar      14 UNK        -0.1249 
     15 C15       -53.2939  -29.6426   11.6446 C.3       14 UNK         0.0141 
     16 S16       -54.9110  -30.4476   11.8021 S.3       14 UNK        -0.2313 
     17 C17       -54.9044  -30.8233   13.5882 C.3       14 UNK        -0.0915 
     18 CA        -56.2197  -30.3969   14.2886 C.3       13 UNK         0.0968 
     19 C         -56.2780  -30.9227   15.7528 C.2       13 UNK         0.5732 
     20 N         -56.4099  -30.0736   16.7655 N.am      13 UNK        -0.7310 
     21 O         -56.2194  -32.1301   15.9741 O.2       13 UNK        -0.5035 
     22 N         -56.4741  -28.9506   14.1627 N.am      13 UNK        -0.4233 
     23 C         -57.6972  -28.4088   14.0967 C.2       13 UNK         0.4989 
     24 O         -58.7345  -29.0738   14.0810 O.2       13 UNK        -0.4996 
     25 CA        -57.8123  -26.8737   14.0675 C.3       12 UNK         0.0216 
     26 CB        -58.4844  -26.3610   15.3531 C.3       12 UNK        -0.1964 
     27 N         -56.5402  -26.1693   13.8997 N.am      12 UNK        -0.4276 
     28 C         -55.8763  -26.0005   12.7526 C.2       12 UNK         0.5020 
     29 O         -56.2325  -26.4977   11.6850 O.2       12 UNK        -0.5489 
     30 CA        -54.6160  -25.1116   12.7856 C.3       11 UNK         0.0294 
     31 CB        -54.9881  -23.6307   12.5865 C.3       11 UNK        -0.2019 
     32 N         -53.7275  -25.2757   13.9468 N.am      11 UNK        -0.4493 
     33 C         -53.9729  -25.0654   15.2490 C.2       11 UNK         0.4932 
     34 O         -55.0692  -24.7111   15.6860 O.2       11 UNK        -0.5029 
     35 CA        -52.8076  -25.2675   16.2359 C.3       10 UNK         0.0280 
     36 CB        -53.2857  -25.7584   17.6196 C.3       10 UNK        -0.1976 
     37 N         -51.7156  -26.1080   15.7308 N.am      10 UNK        -0.4242 
     38 C         -51.7504  -27.4171   15.4318 C.2       10 UNK         0.5072 
     39 O         -52.7761  -28.0981   15.4854 O.2       10 UNK        -0.5224 
     40 CA        -50.4290  -28.0926   15.0007 C.3       9 UNK         0.0343 
     41 CB        -50.6136  -28.9372   13.7317 C.3       9 UNK        -0.2003 
     42 N         -49.3330  -27.1490   14.7738 N.am      9 UNK        -0.4272 
     43 C         -48.5351  -26.6430   15.7230 C.2       9 UNK         0.4988 
     44 O         -48.5819  -26.9749   16.9077 O.2       9 UNK        -0.5108 
     45 CA        -47.5521  -25.5425   15.2849 C.3       8 UNK         0.0248 
     46 CB        -46.2302  -26.1614   14.8046 C.3       8 UNK        -0.2001 
     47 N         -48.0960  -24.6557   14.2475 N.am      8 UNK        -0.4140 
     48 C         -49.1830  -23.8838   14.4022 C.2       8 UNK         0.5028 
     49 O         -49.8224  -23.8137   15.4519 O.2       8 UNK        -0.5428 
     50 CA        -49.6741  -23.0916   13.1791 C.3       7 UNK         0.0264 
     51 CB        -48.8314  -21.8230   12.9751 C.3       7 UNK        -0.1988 
     52 N         -49.6953  -23.8806   11.9448 N.am      7 UNK        -0.4454 
     53 C         -50.4456  -24.9773   11.7502 C.2       7 UNK         0.5027 
     54 O         -51.2141  -25.4398   12.5955 O.2       7 UNK        -0.5083 
     55 CA        -50.2600  -25.7206   10.4079 C.3       6 UNK         0.0844 
     56 C56       -50.9148  -24.9825    9.2100 C.3       14 UNK        -0.0967 
     57 S57       -52.7133  -24.7091    9.3772 S.3       14 UNK        -0.2604 
     58 C58       -53.4093  -25.9307    8.2158 C.3       14 UNK         0.0134 
     59 N         -48.8436  -25.9867   10.1457 N.am      6 UNK        -0.4116 
     60 C         -48.0076  -26.6616   10.9476 C.2       5 UNK         0.5034 
     61 O         -48.3500  -27.2336   11.9815 O.2       5 UNK        -0.5045 
     62 CA        -46.5199  -26.6336   10.5638 C.3       5 UNK         0.0224 
     63 CB        -46.1999  -27.6738    9.4799 C.3       5 UNK        -0.1978 
     64 N         -46.0911  -25.3052   10.1179 N.am      5 UNK        -0.4737 
     65 C         -45.9882  -24.2364   10.9198 C.2       4 UNK         0.5027 
     66 O         -46.2103  -24.2661   12.1286 O.2       4 UNK        -0.5211 
     67 CA        -45.6068  -22.9031   10.2557 C.3       4 UNK         0.0297 
     68 CB        -44.0843  -22.8073   10.0701 C.3       4 UNK        -0.1993 
     69 N         -46.2751  -22.7012    8.9680 N.am      4 UNK        -0.4486 
     70 C         -47.5972  -22.5354    8.8206 C.2       3 UNK         0.4961 
     71 O         -48.3930  -22.4987    9.7585 O.2       3 UNK        -0.5105 
     72 CA        -48.1266  -22.4508    7.3775 C.3       3 UNK         0.0299 
     73 CB        -48.0034  -21.0164    6.8401 C.3       3 UNK        -0.1972 
     74 N         -47.4721  -23.3856    6.4529 N.am      3 UNK        -0.4305 
     75 C         -47.4483  -24.7166    6.6081 C.2       2 UNK         0.5006 
     76 O         -47.9483  -25.2985    7.5734 O.2       2 UNK        -0.5106 
     77 CA        -46.6899  -25.5229    5.5400 C.3       2 UNK         0.0296 
     78 CB        -45.1756  -25.4604    5.8008 C.3       2 UNK        -0.2002 
     79 N         -47.1033  -26.9263    5.5384 N.am      2 UNK        -0.4032 
     80 C         -48.3051  -27.3835    5.1680 C.2       1 UNK         0.5000 
     81 O         -49.1616  -26.6851    4.6216 O.2       1 UNK        -0.5238 
     82 H82       -45.9860  -31.5661    4.0681 H         1 UNK         0.0889 
     83 H83       -45.1638  -31.7692    5.6161 H         1 UNK         0.0889 
     84 H84       -44.5607  -30.5946    4.4437 H         1 UNK         0.0889 
     85 H85       -47.8469  -30.3911    4.2416 H         1 UNK         0.3028 
     86 H86       -49.4845  -29.1067    4.8447 H         1 UNK         0.0864 
     87 H87       -48.1950  -28.8998    7.6079 H         1 UNK         0.0720 
     88 H88       -49.7722  -28.2949    7.2328 H         1 UNK         0.0720 
     89 H89       -51.6433  -30.0790    5.9678 H         1 UNK         0.0814 
     90 H90       -51.9979  -31.4290    7.0116 H         1 UNK         0.0814 
     91 H91       -52.2423  -27.8511    6.6674 H         1 UNK         0.1469 
     92 H92       -53.8464  -27.2065   10.5873 H         1 UNK         0.1381 
     93 H93       -52.1644  -31.0121    9.5659 H         1 UNK         0.1206 
     94 H94       -53.2443  -28.8031   12.3403 H         1 UNK         0.0813 
     95 H95       -52.5167  -30.3480   11.9404 H         1 UNK         0.0813 
     96 H96       -54.0514  -30.3428   14.0714 H         1 UNK         0.0638 
     97 H97       -54.7440  -31.8983   13.6889 H         1 UNK         0.0638 
     98 H98       -57.0243  -30.9241   13.7723 H         1 UNK         0.0568 
     99 H99       -56.4524  -30.4323   17.7062 H         1 UNK         0.3450 
    100 H100      -56.4556  -29.0820   16.5997 H         1 UNK         0.3450 
    101 H101      -55.6668  -28.3458   14.1799 H         1 UNK         0.2987 
    102 H102      -58.4561  -26.6195   13.2228 H         1 UNK         0.0766 
    103 H103      -58.6494  -25.2841   15.3113 H         1 UNK         0.0798 
    104 H104      -57.8803  -26.5725   16.2363 H         1 UNK         0.0798 
    105 H105      -59.4584  -26.8290   15.5032 H         1 UNK         0.0798 
    106 H106      -56.1605  -25.6890   14.7159 H         1 UNK         0.3198 
    107 H107      -54.0111  -25.4054   11.9292 H         1 UNK         0.0843 
    108 H108      -54.0968  -23.0106   12.4902 H         1 UNK         0.0831 
    109 H109      -55.5811  -23.2432   13.4155 H         1 UNK         0.0831 
    110 H110      -55.5739  -23.4966   11.6761 H         1 UNK         0.0831 
    111 H111      -52.7751  -25.5344   13.6946 H         1 UNK         0.3133 
    112 H112      -52.3724  -24.2777   16.3777 H         1 UNK         0.0566 
    113 H113      -52.4495  -25.8789   18.3083 H         1 UNK         0.0814 
    114 H114      -53.9748  -25.0451   18.0733 H         1 UNK         0.0814 
    115 H115      -53.8068  -26.7140   17.5530 H         1 UNK         0.0814 
    116 H116      -50.8375  -25.6152   15.6049 H         1 UNK         0.3091 
    117 H117      -50.1456  -28.7689   15.8096 H         1 UNK         0.0702 
    118 H118      -51.3628  -29.7130   13.8887 H         1 UNK         0.0785 
    119 H119      -49.6869  -29.4378   13.4504 H         1 UNK         0.0785 
    120 H120      -50.9284  -28.3237   12.8865 H         1 UNK         0.0785 
    121 H121      -49.1852  -26.8594   13.8115 H         1 UNK         0.2998 
    122 H122      -47.3392  -24.9262   16.1607 H         1 UNK         0.0697 
    123 H123      -46.3722  -26.7707   13.9118 H         1 UNK         0.0825 
    124 H124      -45.7970  -26.8033   15.5728 H         1 UNK         0.0825 
    125 H125      -45.4932  -25.3926   14.5720 H         1 UNK         0.0825 
    126 H126      -47.5813  -24.6116   13.3701 H         1 UNK         0.3029 
    127 H127      -50.7022  -22.7845   13.3830 H         1 UNK         0.0897 
    128 H128      -49.2338  -21.2059   12.1715 H         1 UNK         0.0792 
    129 H129      -48.8194  -21.2118   13.8785 H         1 UNK         0.0792 
    130 H130      -47.7967  -22.0602   12.7264 H         1 UNK         0.0792 
    131 H131      -49.1147  -23.5400   11.1815 H         1 UNK         0.3086 
    132 H132      -50.7442  -26.6939   10.5077 H         1 UNK         0.0583 
    133 H133      -50.4470  -24.0091    9.0630 H         1 UNK         0.1020 
    134 H134      -50.7258  -25.5376    8.2894 H         1 UNK         0.1020 
    135 H135      -54.4944  -25.8205    8.2017 H         1 UNK         0.0694 
    136 H136      -53.0615  -25.6964    7.2085 H         1 UNK         0.0694 
    137 H137      -48.4650  -25.5987    9.2836 H         1 UNK         0.2989 
    138 H138      -45.9485  -26.8922   11.4579 H         1 UNK         0.1055 
    139 H139      -46.5566  -28.6642    9.7665 H         1 UNK         0.0806 
    140 H140      -45.1258  -27.7539    9.3122 H         1 UNK         0.0806 
    141 H141      -46.6642  -27.4222    8.5275 H         1 UNK         0.0806 
    142 H142      -45.9477  -25.1803    9.1269 H         1 UNK         0.3061 
    143 H143      -45.9192  -22.0991   10.9258 H         1 UNK         0.0734 
    144 H144      -43.7925  -21.8329    9.6782 H         1 UNK         0.0832 
    145 H145      -43.5682  -22.9387   11.0224 H         1 UNK         0.0832 
    146 H146      -43.7081  -23.5712    9.3885 H         1 UNK         0.0832 
    147 H147      -45.6977  -22.7162    8.1402 H         1 UNK         0.3156 
    148 H148      -49.1868  -22.7102    7.4027 H         1 UNK         0.0589 
    149 H149      -46.9623  -20.7041    6.7492 H         1 UNK         0.0808 
    150 H150      -48.4712  -20.9175    5.8604 H         1 UNK         0.0808 
    151 H151      -48.4989  -20.3076    7.5054 H         1 UNK         0.0808 
    152 H152      -47.0301  -22.9831    5.6385 H         1 UNK         0.3098 
    153 H153      -46.9059  -25.0969    4.5581 H         1 UNK         0.0720 
    154 H154      -44.6216  -26.0124    5.0410 H         1 UNK         0.0791 
    155 H155      -44.9157  -25.8822    6.7729 H         1 UNK         0.0791 
    156 H156      -44.8104  -24.4329    5.7805 H         1 UNK         0.0791 
    157 H157      -46.4809  -27.5972    5.9839 H         1 UNK         0.3028 
@<TRIPOS>BOND
     1    1    2 1    
     2    1   82 1    
     3    1   83 1    
     4    1   84 1    
     5    2    3 2    
     6    2    4 am   BACKBONE|DICT|INTERRES
     7    4    5 1    
     8    4   85 1    
     9    5    6 1    
    10    5   80 1    
    11    5   86 1    
    12    6    7 1    
    13    6   87 1    
    14    6   88 1    
    15    7    8 1    
    16    8    9 1    
    17    8   89 1    
    18    8   90 1    
    19    9   10 ar   
    20    9   14 ar   
    21   10   11 ar   
    22   10   91 1    
    23   11   12 ar   
    24   11   58 1    
    25   12   13 ar   
    26   12   92 1    
    27   13   14 ar   
    28   13   15 1    
    29   14   93 1    
    30   15   16 1    
    31   15   94 1    
    32   15   95 1    
    33   16   17 1    
    34   17   18 1    
    35   17   96 1    
    36   17   97 1    
    37   18   19 1    
    38   18   22 1    
    39   18   98 1    
    40   19   20 am   BACKBONE|DICT|INTERRES
    41   19   21 2    
    42   20   99 1    
    43   20  100 1    
    44   22   23 am   BACKBONE|DICT|INTERRES
    45   22  101 1    
    46   23   24 2    
    47   23   25 1    
    48   25   26 1    
    49   25   27 1    
    50   25  102 1    
    51   26  103 1    
    52   26  104 1    
    53   26  105 1    
    54   27   28 am   BACKBONE|DICT|INTERRES
    55   27  106 1    
    56   28   29 2    
    57   28   30 1    
    58   30   31 1    
    59   30   32 1    
    60   30  107 1    
    61   31  108 1    
    62   31  109 1    
    63   31  110 1    
    64   32   33 am   BACKBONE|DICT|INTERRES
    65   32  111 1    
    66   33   34 2    
    67   33   35 1    
    68   35   36 1    
    69   35   37 1    
    70   35  112 1    
    71   36  113 1    
    72   36  114 1    
    73   36  115 1    
    74   37   38 am   BACKBONE|DICT|INTERRES
    75   37  116 1    
    76   38   39 2    
    77   38   40 1    
    78   40   41 1    
    79   40   42 1    
    80   40  117 1    
    81   41  118 1    
    82   41  119 1    
    83   41  120 1    
    84   42   43 am   BACKBONE|DICT|INTERRES
    85   42  121 1    
    86   43   44 2    
    87   43   45 1    
    88   45   46 1    
    89   45   47 1    
    90   45  122 1    
    91   46  123 1    
    92   46  124 1    
    93   46  125 1    
    94   47   48 am   BACKBONE|DICT|INTERRES
    95   47  126 1    
    96   48   49 2    
    97   48   50 1    
    98   50   51 1    
    99   50   52 1    
   100   50  127 1    
   101   51  128 1    
   102   51  129 1    
   103   51  130 1    
   104   52   53 am   BACKBONE|DICT|INTERRES
   105   52  131 1    
   106   53   54 2    
   107   53   55 1    
   108   55   56 1    
   109   55   59 1    
   110   55  132 1    
   111   56   57 1    
   112   56  133 1    
   113   56  134 1    
   114   57   58 1    
   115   58  135 1    
   116   58  136 1    
   117   59   60 am   BACKBONE|DICT|INTERRES
   118   59  137 1    
   119   60   61 2    
   120   60   62 1    
   121   62   63 1    
   122   62   64 1    
   123   62  138 1    
   124   63  139 1    
   125   63  140 1    
   126   63  141 1    
   127   64   65 am   BACKBONE|DICT|INTERRES
   128   64  142 1    
   129   65   66 2    
   130   65   67 1    
   131   67   68 1    
   132   67   69 1    
   133   67  143 1    
   134   68  144 1    
   135   68  145 1    
   136   68  146 1    
   137   69   70 am   BACKBONE|DICT|INTERRES
   138   69  147 1    
   139   70   71 2    
   140   70   72 1    
   141   72   73 1    
   142   72   74 1    
   143   72  148 1    
   144   73  149 1    
   145   73  150 1    
   146   73  151 1    
   147   74   75 am   BACKBONE|DICT|INTERRES
   148   74  152 1    
   149   75   76 2    
   150   75   77 1    
   151   77   78 1    
   152   77   79 1    
   153   77  153 1    
   154   78  154 1    
   155   78  155 1    
   156   78  156 1    
   157   79   80 am   BACKBONE|DICT|INTERRES
   158   79  157 1    
   159   80   81 2    
@<TRIPOS>SUBSTRUCTURE
     1 UNK         1 GROUP             0       ****    0 ROOT    
