@<TRIPOS>MOLECULE
3R207
157   159    1
SMALL
USER_CHARGES


@<TRIPOS>ATOM
      1 CA        -51.6439  -28.0221    0.8302 C.3       0 UNK        -0.1975 
      2 C         -50.8886  -27.9456    2.1485 C.2       0 UNK         0.4852 
      3 O         -49.7637  -28.4410    2.2363 O.2       0 UNK        -0.5216 
      4 N         -51.4938  -27.3206    3.1696 N.am      1 UNK        -0.4461 
      5 CA        -50.9774  -27.1158    4.5315 C.3       1 UNK         0.0864 
      6 C6        -50.6231  -28.4428    5.2579 C.3       14 UNK        -0.0898 
      7 S7        -50.5618  -28.2750    7.0712 S.3       14 UNK        -0.2598 
      8 C8        -50.5605  -30.0293    7.5479 C.3       14 UNK         0.0286 
      9 C9        -50.4360  -30.2073    9.0538 C.ar      14 UNK        -0.0844 
     10 C10       -49.1755  -30.2127    9.6564 C.ar      14 UNK        -0.0881 
     11 C11       -49.0401  -30.4187   11.0321 C.ar      14 UNK        -0.0643 
     12 C12       -50.1865  -30.6145   11.8108 C.ar      14 UNK        -0.0930 
     13 C13       -51.4546  -30.6328   11.2170 C.ar      14 UNK        -0.0827 
     14 C14       -51.5724  -30.4189    9.8397 C.ar      14 UNK        -0.1249 
     15 C15       -52.6889  -30.9581   12.0493 C.3       14 UNK         0.0141 
     16 S16       -53.5261  -29.4724   12.6783 S.3       14 UNK        -0.2313 
     17 C17       -54.3651  -28.8506   11.1855 C.3       14 UNK        -0.0915 
     18 CA        -55.5690  -27.9188   11.4859 C.3       13 UNK         0.0968 
     19 C         -56.7782  -28.6757   12.1083 C.2       13 UNK         0.5732 
     20 N         -57.4601  -29.4975   11.3205 N.am      13 UNK        -0.7310 
     21 O         -57.0963  -28.5478   13.2889 O.2       13 UNK        -0.5035 
     22 N         -55.1594  -26.7225   12.2367 N.am      13 UNK        -0.4233 
     23 C         -55.8845  -25.6015   12.3247 C.2       13 UNK         0.4989 
     24 O         -56.9734  -25.4406   11.7685 O.2       13 UNK        -0.4996 
     25 CA        -55.2547  -24.4575   13.1365 C.3       12 UNK         0.0216 
     26 CB        -56.0823  -23.1537   13.1111 C.3       12 UNK        -0.1964 
     27 N         -54.9239  -24.8524   14.5109 N.am      12 UNK        -0.4276 
     28 C         -55.7691  -25.1755   15.4989 C.2       12 UNK         0.5020 
     29 O         -56.9931  -25.2410   15.3694 O.2       12 UNK        -0.5489 
     30 CA        -55.1355  -25.3893   16.8867 C.3       11 UNK         0.0294 
     31 CB        -56.1073  -26.0027   17.9195 C.3       11 UNK        -0.2019 
     32 N         -53.8535  -26.1039   16.8572 N.am      11 UNK        -0.4493 
     33 C         -53.6364  -27.4037   16.6042 C.2       11 UNK         0.4932 
     34 O         -54.5274  -28.1913   16.2864 O.2       11 UNK        -0.5029 
     35 CA        -52.1924  -27.9287   16.7857 C.3       10 UNK         0.0280 
     36 CB        -51.8637  -29.1059   15.8525 C.3       10 UNK        -0.1976 
     37 N         -51.1699  -26.8967   16.6059 N.am      10 UNK        -0.4242 
     38 C         -50.7349  -26.0471   17.5451 C.2       10 UNK         0.5072 
     39 O         -51.1120  -26.0688   18.7168 O.2       10 UNK        -0.5224 
     40 CA        -49.7624  -24.9452   17.0852 C.3       9 UNK         0.0343 
     41 CB        -48.3102  -25.4404   17.1599 C.3       9 UNK        -0.2003 
     42 N         -50.0486  -24.4413   15.7359 N.am      9 UNK        -0.4272 
     43 C         -51.2018  -23.8577   15.3713 C.2       9 UNK         0.4988 
     44 O         -52.1462  -23.6612   16.1373 O.2       9 UNK        -0.5108 
     45 CA        -51.3514  -23.4675   13.8939 C.3       8 UNK         0.0248 
     46 CB        -50.5798  -22.1736   13.5920 C.3       8 UNK        -0.2001 
     47 N         -50.9271  -24.5334   12.9832 N.am      8 UNK        -0.4140 
     48 C         -51.5042  -25.7419   12.8942 C.2       8 UNK         0.5028 
     49 O         -52.5057  -26.0710   13.5283 O.2       8 UNK        -0.5428 
     50 CA        -50.8279  -26.7740   11.9792 C.3       7 UNK         0.0264 
     51 CB        -51.1400  -26.4933   10.5037 C.3       7 UNK        -0.1988 
     52 N         -49.3810  -26.8384   12.1833 N.am      7 UNK        -0.4454 
     53 C         -48.8022  -27.1806   13.3453 C.2       7 UNK         0.5027 
     54 O         -49.4273  -27.5296   14.3462 O.2       7 UNK        -0.5083 
     55 CA        -47.2716  -27.0498   13.4408 C.3       6 UNK         0.0844 
     56 C56       -46.5328  -28.3797   13.1665 C.3       14 UNK        -0.0967 
     57 S57       -46.6664  -28.9973   11.4543 S.3       14 UNK        -0.2604 
     58 C58       -47.6501  -30.5228   11.6488 C.3       14 UNK         0.0134 
     59 N         -46.7682  -25.9193   12.6560 N.am      6 UNK        -0.4116 
     60 C         -46.9527  -24.6403   13.0160 C.2       5 UNK         0.5034 
     61 O         -47.5518  -24.2940   14.0359 O.2       5 UNK        -0.5045 
     62 CA        -46.4074  -23.5649   12.0639 C.3       5 UNK         0.0224 
     63 CB        -44.8706  -23.5244   12.0950 C.3       5 UNK        -0.1978 
     64 N         -46.8720  -23.7280   10.6843 N.am      5 UNK        -0.4737 
     65 C         -48.1551  -23.6713   10.3004 C.2       4 UNK         0.5027 
     66 O         -49.0939  -23.5030   11.0754 O.2       4 UNK        -0.5211 
     67 CA        -48.4499  -23.8347    8.8016 C.3       4 UNK         0.0297 
     68 CB        -48.4943  -22.4636    8.1101 C.3       4 UNK        -0.1993 
     69 N         -47.5088  -24.7021    8.0931 N.am      4 UNK        -0.4486 
     70 C         -47.3052  -26.0017    8.3418 C.2       3 UNK         0.4961 
     71 O         -47.8133  -26.6007    9.2907 O.2       3 UNK        -0.5105 
     72 CA        -46.3933  -26.7394    7.3387 C.3       3 UNK         0.0299 
     73 CB        -46.2346  -28.2342    7.6622 C.3       3 UNK        -0.1972 
     74 N         -46.8965  -26.6128    5.9684 N.am      3 UNK        -0.4305 
     75 C         -46.7661  -25.5386    5.1769 C.2       2 UNK         0.5006 
     76 O         -46.1320  -24.5319    5.4967 O.2       2 UNK        -0.5106 
     77 CA        -47.5042  -25.5704    3.8266 C.3       2 UNK         0.0296 
     78 CB        -46.5813  -26.1003    2.7179 C.3       2 UNK        -0.2002 
     79 N         -48.7324  -26.3699    3.8591 N.am      2 UNK        -0.4032 
     80 C         -49.8256  -26.0887    4.5825 C.2       1 UNK         0.5000 
     81 O         -49.9509  -25.0675    5.2606 O.2       1 UNK        -0.5238 
     82 H82       -52.6228  -27.5469    0.8915 H         1 UNK         0.0889 
     83 H83       -51.7897  -29.0628    0.5425 H         1 UNK         0.0889 
     84 H84       -51.0751  -27.5274    0.0434 H         1 UNK         0.0889 
     85 H85       -52.4058  -26.9154    3.0068 H         1 UNK         0.3028 
     86 H86       -51.8112  -26.6649    5.0730 H         1 UNK         0.0864 
     87 H87       -51.3803  -29.1932    5.0248 H         1 UNK         0.0720 
     88 H88       -49.6758  -28.8554    4.9069 H         1 UNK         0.0720 
     89 H89       -49.7348  -30.5384    7.0482 H         1 UNK         0.0814 
     90 H90       -51.4755  -30.5020    7.1876 H         1 UNK         0.0814 
     91 H91       -48.2907  -30.0752    9.0529 H         1 UNK         0.1469 
     92 H92       -50.0911  -30.7915   12.8733 H         1 UNK         0.1381 
     93 H93       -52.5483  -30.4405    9.3749 H         1 UNK         0.1206 
     94 H94       -52.4042  -31.5766   12.9017 H         1 UNK         0.0813 
     95 H95       -53.3908  -31.5581   11.4682 H         1 UNK         0.0813 
     96 H96       -54.6859  -29.6969   10.5762 H         1 UNK         0.0638 
     97 H97       -53.6283  -28.3186   10.5839 H         1 UNK         0.0638 
     98 H98       -55.9201  -27.5547   10.5181 H         1 UNK         0.0568 
     99 H99       -58.2419  -30.0043   11.7047 H         1 UNK         0.3450 
    100 H100      -57.2124  -29.6194   10.3512 H         1 UNK         0.3450 
    101 H101      -54.2884  -26.7865   12.7541 H         1 UNK         0.2987 
    102 H102      -54.3070  -24.2359   12.6453 H         1 UNK         0.0766 
    103 H103      -55.5809  -22.3554   13.6583 H         1 UNK         0.0798 
    104 H104      -57.0727  -23.2891   13.5468 H         1 UNK         0.0798 
    105 H105      -56.2254  -22.8044   12.0879 H         1 UNK         0.0798 
    106 H106      -53.9318  -24.9523   14.6969 H         1 UNK         0.3198 
    107 H107      -54.8922  -24.3871   17.2436 H         1 UNK         0.0843 
    108 H108      -56.4727  -26.9802   17.6035 H         1 UNK         0.0831 
    109 H109      -56.9802  -25.3639   18.0594 H         1 UNK         0.0831 
    110 H110      -55.6329  -26.1182   18.8939 H         1 UNK         0.0831 
    111 H111      -53.0445  -25.5295   17.0611 H         1 UNK         0.3133 
    112 H112      -52.1341  -28.3036   17.8093 H         1 UNK         0.0566 
    113 H113      -51.8204  -28.7791   14.8145 H         1 UNK         0.0814 
    114 H114      -50.8963  -29.5443   16.0975 H         1 UNK         0.0814 
    115 H115      -52.6064  -29.9014   15.9217 H         1 UNK         0.0814 
    116 H116      -50.7640  -26.8358   15.6762 H         1 UNK         0.3091 
    117 H117      -49.8696  -24.1041   17.7732 H         1 UNK         0.0702 
    118 H118      -47.6068  -24.6605   16.8674 H         1 UNK         0.0785 
    119 H119      -48.1463  -26.3021   16.5135 H         1 UNK         0.0785 
    120 H120      -48.0549  -25.7438   18.1761 H         1 UNK         0.0785 
    121 H121      -49.3069  -24.5300   15.0478 H         1 UNK         0.2998 
    122 H122      -52.4087  -23.2735   13.7089 H         1 UNK         0.0697 
    123 H123      -49.5032  -22.3081   13.7038 H         1 UNK         0.0825 
    124 H124      -50.8821  -21.3703   14.2652 H         1 UNK         0.0825 
    125 H125      -50.7675  -21.8307   12.5744 H         1 UNK         0.0825 
    126 H126      -50.1366  -24.3191   12.3774 H         1 UNK         0.3029 
    127 H127      -51.2320  -27.7554   12.2305 H         1 UNK         0.0897 
    128 H128      -52.2152  -26.4573   10.3285 H         1 UNK         0.0792 
    129 H129      -50.7295  -27.2749    9.8649 H         1 UNK         0.0792 
    130 H130      -50.7264  -25.5412   10.1766 H         1 UNK         0.0792 
    131 H131      -48.7933  -26.6140   11.3886 H         1 UNK         0.3086 
    132 H132      -47.0591  -26.8140   14.4855 H         1 UNK         0.0583 
    133 H133      -45.4714  -28.2470   13.3816 H         1 UNK         0.1020 
    134 H134      -46.8676  -29.1395   13.8742 H         1 UNK         0.1020 
    135 H135      -47.1164  -31.3336   11.1512 H         1 UNK         0.0694 
    136 H136      -47.7149  -30.8148   12.6972 H         1 UNK         0.0694 
    137 H137      -46.3182  -26.1352   11.7780 H         1 UNK         0.2989 
    138 H138      -46.7782  -22.6018   12.4224 H         1 UNK         0.1055 
    139 H139      -44.5045  -23.4028   13.1156 H         1 UNK         0.0806 
    140 H140      -44.4852  -22.6861   11.5143 H         1 UNK         0.0806 
    141 H141      -44.4288  -24.4387   11.6969 H         1 UNK         0.0806 
    142 H142      -46.1708  -23.8776    9.9734 H         1 UNK         0.3061 
    143 H143      -49.4373  -24.2895    8.7078 H         1 UNK         0.0734 
    144 H144      -49.2087  -21.8018    8.6020 H         1 UNK         0.0832 
    145 H145      -48.8047  -22.5560    7.0688 H         1 UNK         0.0832 
    146 H146      -47.5227  -21.9685    8.1301 H         1 UNK         0.0832 
    147 H147      -47.0482  -24.3129    7.2763 H         1 UNK         0.3156 
    148 H148      -45.4052  -26.2785    7.3983 H         1 UNK         0.0589 
    149 H149      -47.1879  -28.7574    7.5944 H         1 UNK         0.0808 
    150 H150      -45.5371  -28.7173    6.9779 H         1 UNK         0.0808 
    151 H151      -45.8473  -28.3782    8.6709 H         1 UNK         0.0808 
    152 H152      -47.4704  -27.3729    5.6351 H         1 UNK         0.3098 
    153 H153      -47.7822  -24.5434    3.5807 H         1 UNK         0.0720 
    154 H154      -47.0661  -26.0530    1.7424 H         1 UNK         0.0791 
    155 H155      -46.2877  -27.1355    2.8966 H         1 UNK         0.0791 
    156 H156      -45.6676  -25.5075    2.6538 H         1 UNK         0.0791 
    157 H157      -48.7685  -27.2032    3.2762 H         1 UNK         0.3028 
@<TRIPOS>BOND
     1    1    2 1    
     2    1   82 1    
     3    1   83 1    
     4    1   84 1    
     5    2    3 2    
     6    2    4 am   BACKBONE|DICT|INTERRES
     7    4    5 1    
     8    4   85 1    
     9    5    6 1    
    10    5   80 1    
    11    5   86 1    
    12    6    7 1    
    13    6   87 1    
    14    6   88 1    
    15    7    8 1    
    16    8    9 1    
    17    8   89 1    
    18    8   90 1    
    19    9   10 ar   
    20    9   14 ar   
    21   10   11 ar   
    22   10   91 1    
    23   11   12 ar   
    24   11   58 1    
    25   12   13 ar   
    26   12   92 1    
    27   13   14 ar   
    28   13   15 1    
    29   14   93 1    
    30   15   16 1    
    31   15   94 1    
    32   15   95 1    
    33   16   17 1    
    34   17   18 1    
    35   17   96 1    
    36   17   97 1    
    37   18   19 1    
    38   18   22 1    
    39   18   98 1    
    40   19   20 am   BACKBONE|DICT|INTERRES
    41   19   21 2    
    42   20   99 1    
    43   20  100 1    
    44   22   23 am   BACKBONE|DICT|INTERRES
    45   22  101 1    
    46   23   24 2    
    47   23   25 1    
    48   25   26 1    
    49   25   27 1    
    50   25  102 1    
    51   26  103 1    
    52   26  104 1    
    53   26  105 1    
    54   27   28 am   BACKBONE|DICT|INTERRES
    55   27  106 1    
    56   28   29 2    
    57   28   30 1    
    58   30   31 1    
    59   30   32 1    
    60   30  107 1    
    61   31  108 1    
    62   31  109 1    
    63   31  110 1    
    64   32   33 am   BACKBONE|DICT|INTERRES
    65   32  111 1    
    66   33   34 2    
    67   33   35 1    
    68   35   36 1    
    69   35   37 1    
    70   35  112 1    
    71   36  113 1    
    72   36  114 1    
    73   36  115 1    
    74   37   38 am   BACKBONE|DICT|INTERRES
    75   37  116 1    
    76   38   39 2    
    77   38   40 1    
    78   40   41 1    
    79   40   42 1    
    80   40  117 1    
    81   41  118 1    
    82   41  119 1    
    83   41  120 1    
    84   42   43 am   BACKBONE|DICT|INTERRES
    85   42  121 1    
    86   43   44 2    
    87   43   45 1    
    88   45   46 1    
    89   45   47 1    
    90   45  122 1    
    91   46  123 1    
    92   46  124 1    
    93   46  125 1    
    94   47   48 am   BACKBONE|DICT|INTERRES
    95   47  126 1    
    96   48   49 2    
    97   48   50 1    
    98   50   51 1    
    99   50   52 1    
   100   50  127 1    
   101   51  128 1    
   102   51  129 1    
   103   51  130 1    
   104   52   53 am   BACKBONE|DICT|INTERRES
   105   52  131 1    
   106   53   54 2    
   107   53   55 1    
   108   55   56 1    
   109   55   59 1    
   110   55  132 1    
   111   56   57 1    
   112   56  133 1    
   113   56  134 1    
   114   57   58 1    
   115   58  135 1    
   116   58  136 1    
   117   59   60 am   BACKBONE|DICT|INTERRES
   118   59  137 1    
   119   60   61 2    
   120   60   62 1    
   121   62   63 1    
   122   62   64 1    
   123   62  138 1    
   124   63  139 1    
   125   63  140 1    
   126   63  141 1    
   127   64   65 am   BACKBONE|DICT|INTERRES
   128   64  142 1    
   129   65   66 2    
   130   65   67 1    
   131   67   68 1    
   132   67   69 1    
   133   67  143 1    
   134   68  144 1    
   135   68  145 1    
   136   68  146 1    
   137   69   70 am   BACKBONE|DICT|INTERRES
   138   69  147 1    
   139   70   71 2    
   140   70   72 1    
   141   72   73 1    
   142   72   74 1    
   143   72  148 1    
   144   73  149 1    
   145   73  150 1    
   146   73  151 1    
   147   74   75 am   BACKBONE|DICT|INTERRES
   148   74  152 1    
   149   75   76 2    
   150   75   77 1    
   151   77   78 1    
   152   77   79 1    
   153   77  153 1    
   154   78  154 1    
   155   78  155 1    
   156   78  156 1    
   157   79   80 am   BACKBONE|DICT|INTERRES
   158   79  157 1    
   159   80   81 2    
@<TRIPOS>SUBSTRUCTURE
     1 UNK         1 GROUP             0       ****    0 ROOT    
