@<TRIPOS>MOLECULE
3R207
157   159    1
SMALL
USER_CHARGES


@<TRIPOS>ATOM
      1 CA        -50.6521  -24.9472    4.6624 C.3       0 UNK        -0.1975 
      2 C         -49.7119  -26.1118    4.9353 C.2       0 UNK         0.4852 
      3 O         -48.8037  -26.3564    4.1420 O.2       0 UNK        -0.5216 
      4 N         -49.9469  -26.8219    6.0471 N.am      1 UNK        -0.4461 
      5 CA        -49.1847  -27.9613    6.5704 C.3       1 UNK         0.0864 
      6 C6        -48.9946  -29.1136    5.5475 C.3       14 UNK        -0.0898 
      7 S7        -48.7233  -30.7354    6.3404 S.3       14 UNK        -0.2598 
      8 C8        -50.4183  -31.4018    6.4373 C.3       14 UNK         0.0286 
      9 C9        -51.2271  -30.6941    7.5138 C.ar      14 UNK        -0.0844 
     10 C10       -52.1080  -29.6611    7.1756 C.ar      14 UNK        -0.0881 
     11 C11       -52.7899  -28.9584    8.1732 C.ar      14 UNK        -0.0643 
     12 C12       -52.6164  -29.3231    9.5104 C.ar      14 UNK        -0.0930 
     13 C13       -51.7595  -30.3691    9.8587 C.ar      14 UNK        -0.0827 
     14 C14       -51.0654  -31.0512    8.8562 C.ar      14 UNK        -0.1249 
     15 C15       -51.5612  -30.7335   11.3204 C.3       14 UNK         0.0141 
     16 S16       -52.9111  -31.7894   11.9390 S.3       14 UNK        -0.2313 
     17 C17       -53.5676  -30.7722   13.3047 C.3       14 UNK        -0.0915 
     18 CA        -54.6457  -29.7542   12.8274 C.3       13 UNK         0.0968 
     19 C         -56.1035  -30.2547   13.0581 C.2       13 UNK         0.5732 
     20 N         -56.9991  -29.4776   13.6574 N.am      13 UNK        -0.7310 
     21 O         -56.4378  -31.3730   12.6748 O.2       13 UNK        -0.5035 
     22 N         -54.3723  -28.4137   13.3653 N.am      13 UNK        -0.4233 
     23 C         -54.6371  -27.2613   12.7377 C.2       13 UNK         0.4989 
     24 O         -55.0638  -27.1922   11.5838 O.2       13 UNK        -0.4996 
     25 CA        -54.3983  -25.9752   13.5561 C.3       12 UNK         0.0216 
     26 CB        -55.0926  -24.7395   12.9462 C.3       12 UNK        -0.1964 
     27 N         -54.7405  -26.1146   14.9794 N.am      12 UNK        -0.4276 
     28 C         -55.9320  -26.4580   15.4983 C.2       12 UNK         0.5020 
     29 O         -56.9142  -26.7399   14.8108 O.2       12 UNK        -0.5489 
     30 CA        -56.0579  -26.5598   17.0328 C.3       11 UNK         0.0294 
     31 CB        -56.2891  -28.0224   17.4512 C.3       11 UNK        -0.2019 
     32 N         -54.8981  -26.0425   17.7622 N.am      11 UNK        -0.4493 
     33 C         -54.5823  -24.7475   17.9037 C.2       11 UNK         0.4932 
     34 O         -55.2962  -23.8233   17.5149 O.2       11 UNK        -0.5029 
     35 CA        -53.2232  -24.4285   18.5604 C.3       10 UNK         0.0280 
     36 CB        -53.4200  -24.0404   20.0348 C.3       10 UNK        -0.1976 
     37 N         -52.2318  -25.5119   18.4731 N.am      10 UNK        -0.4242 
     38 C         -51.7625  -26.0416   17.3348 C.2       10 UNK         0.5072 
     39 O         -52.1310  -25.6891   16.2095 O.2       10 UNK        -0.5224 
     40 CA        -50.7692  -27.2005   17.4750 C.3       9 UNK         0.0343 
     41 CB        -51.4877  -28.4831   17.9410 C.3       9 UNK        -0.2003 
     42 N         -50.1575  -27.4144   16.1696 N.am      9 UNK        -0.4272 
     43 C         -49.0525  -28.1176   15.8997 C.2       9 UNK         0.4988 
     44 O         -48.3819  -28.7020   16.7512 O.2       9 UNK        -0.5108 
     45 CA        -48.6286  -28.1869   14.4223 C.3       8 UNK         0.0248 
     46 CB        -49.2155  -29.4442   13.7638 C.3       8 UNK        -0.2001 
     47 N         -49.0449  -27.0014   13.6660 N.am      8 UNK        -0.4140 
     48 C         -48.4224  -25.8174   13.7173 C.2       8 UNK         0.5028 
     49 O         -47.3915  -25.6231   14.3642 O.2       8 UNK        -0.5428 
     50 CA        -49.0567  -24.6641   12.9150 C.3       7 UNK         0.0264 
     51 CB        -48.1471  -23.4234   12.8465 C.3       7 UNK        -0.1988 
     52 N         -49.4298  -25.0390   11.5483 N.am      7 UNK        -0.4454 
     53 C         -50.5506  -25.6812   11.1881 C.2       7 UNK         0.5027 
     54 O         -51.3024  -26.2094   12.0084 O.2       7 UNK        -0.5083 
     55 CA        -50.8706  -25.7724    9.6748 C.3       6 UNK         0.0844 
     56 C56       -52.4011  -25.8463    9.4006 C.3       14 UNK        -0.0967 
     57 S57       -52.7867  -26.2327    7.6582 S.3       14 UNK        -0.2604 
     58 C58       -53.7053  -27.7997    7.8082 C.3       14 UNK         0.0134 
     59 N         -50.1809  -24.7259    8.8995 N.am      6 UNK        -0.4116 
     60 C         -50.4300  -23.4065    8.9437 C.2       5 UNK         0.5034 
     61 O         -51.3503  -22.9044    9.5889 O.2       5 UNK        -0.5045 
     62 CA        -49.4841  -22.4717    8.1722 C.3       5 UNK         0.0224 
     63 CB        -48.8665  -21.4184    9.1110 C.3       5 UNK        -0.1978 
     64 N         -48.3934  -23.1792    7.4954 N.am      5 UNK        -0.4737 
     65 C         -47.9786  -22.9252    6.2455 C.2       4 UNK         0.5027 
     66 O         -48.5600  -22.1520    5.4833 O.2       4 UNK        -0.5211 
     67 CA        -46.7038  -23.6497    5.7606 C.3       4 UNK         0.0297 
     68 CB        -45.8864  -22.8099    4.7561 C.3       4 UNK        -0.1993 
     69 N         -45.8616  -24.1398    6.8595 N.am      4 UNK        -0.4486 
     70 C         -45.2359  -23.4091    7.7986 C.2       3 UNK         0.4961 
     71 O         -45.1692  -22.1797    7.7735 O.2       3 UNK        -0.5105 
     72 CA        -44.6053  -24.1705    8.9871 C.3       3 UNK         0.0299 
     73 CB        -44.7321  -23.3767   10.3047 C.3       3 UNK        -0.1972 
     74 N         -45.1096  -25.5409    9.1653 N.am      3 UNK        -0.4305 
     75 C         -46.3765  -25.9146    9.3939 C.2       2 UNK         0.5006 
     76 O         -47.3242  -25.1327    9.5217 O.2       2 UNK        -0.5106 
     77 CA        -46.6396  -27.4295    9.4168 C.3       2 UNK         0.0296 
     78 CB        -46.9342  -27.9050   10.8469 C.3       2 UNK        -0.2002 
     79 N         -47.7550  -27.8123    8.5467 N.am      2 UNK        -0.4032 
     80 C         -47.8720  -27.5147    7.2431 C.2       1 UNK         0.5000 
     81 O         -47.0096  -26.9115    6.6001 O.2       1 UNK        -0.5238 
     82 H82       -51.0908  -24.5593    5.5818 H         1 UNK         0.0889 
     83 H83       -51.4588  -25.2625    4.0013 H         1 UNK         0.0889 
     84 H84       -50.1159  -24.1308    4.1791 H         1 UNK         0.0889 
     85 H85       -50.7500  -26.5635    6.6086 H         1 UNK         0.3028 
     86 H86       -49.8209  -28.3372    7.3692 H         1 UNK         0.0864 
     87 H87       -49.8711  -29.1925    4.9028 H         1 UNK         0.0720 
     88 H88       -48.1570  -28.9065    4.8787 H         1 UNK         0.0720 
     89 H89       -50.3657  -32.4675    6.6649 H         1 UNK         0.0814 
     90 H90       -50.9069  -31.3236    5.4648 H         1 UNK         0.0814 
     91 H91       -52.2332  -29.3759    6.1398 H         1 UNK         0.1469 
     92 H92       -53.1431  -28.7864   10.2851 H         1 UNK         0.1381 
     93 H93       -50.3842  -31.8490    9.1199 H         1 UNK         0.1206 
     94 H94       -51.4985  -29.8119   11.8984 H         1 UNK         0.0813 
     95 H95       -50.6113  -31.2508   11.4631 H         1 UNK         0.0813 
     96 H96       -52.7272  -30.2687   13.7849 H         1 UNK         0.0638 
     97 H97       -53.9612  -31.4421   14.0715 H         1 UNK         0.0638 
     98 H98       -54.5752  -29.6772   11.7428 H         1 UNK         0.0568 
     99 H99       -57.9340  -29.8292   13.7862 H         1 UNK         0.3450 
    100 H100      -56.7782  -28.5332   13.9544 H         1 UNK         0.3450 
    101 H101      -54.0525  -28.3752   14.3208 H         1 UNK         0.2987 
    102 H102      -53.3246  -25.7914   13.5290 H         1 UNK         0.0766 
    103 H103      -54.7379  -24.5536   11.9315 H         1 UNK         0.0798 
    104 H104      -54.8871  -23.8420   13.5295 H         1 UNK         0.0798 
    105 H105      -56.1744  -24.8680   12.8960 H         1 UNK         0.0798 
    106 H106      -53.9719  -25.9223   15.6173 H         1 UNK         0.3198 
    107 H107      -56.9344  -25.9762   17.3226 H         1 UNK         0.0843 
    108 H108      -55.4446  -28.6592   17.1850 H         1 UNK         0.0831 
    109 H109      -57.1728  -28.4350   16.9619 H         1 UNK         0.0831 
    110 H110      -56.4504  -28.1078   18.5260 H         1 UNK         0.0831 
    111 H111      -54.2579  -26.7266   18.1372 H         1 UNK         0.3133 
    112 H112      -52.8084  -23.5664   18.0339 H         1 UNK         0.0566 
    113 H113      -52.4848  -23.7116   20.4886 H         1 UNK         0.0814 
    114 H114      -53.8067  -24.8729   20.6240 H         1 UNK         0.0814 
    115 H115      -54.1295  -23.2170   20.1308 H         1 UNK         0.0814 
    116 H116      -51.8815  -25.8701   19.3507 H         1 UNK         0.3091 
    117 H117      -49.9959  -26.9177   18.1921 H         1 UNK         0.0702 
    118 H118      -50.7912  -29.3151   18.0447 H         1 UNK         0.0785 
    119 H119      -52.2646  -28.7872   17.2383 H         1 UNK         0.0785 
    120 H120      -51.9605  -28.3435   18.9137 H         1 UNK         0.0785 
    121 H121      -50.6309  -26.9210   15.4222 H         1 UNK         0.2998 
    122 H122      -47.5394  -28.2598   14.3858 H         1 UNK         0.0697 
    123 H123      -50.3022  -29.4639   13.8437 H         1 UNK         0.0825 
    124 H124      -48.8403  -30.3464   14.2487 H         1 UNK         0.0825 
    125 H125      -48.9468  -29.5079   12.7095 H         1 UNK         0.0825 
    126 H126      -49.9003  -27.0574   13.1216 H         1 UNK         0.3029 
    127 H127      -49.9641  -24.3764   13.4514 H         1 UNK         0.0897 
    128 H128      -47.2039  -23.6482   12.3482 H         1 UNK         0.0792 
    129 H129      -47.9097  -23.0535   13.8448 H         1 UNK         0.0792 
    130 H130      -48.6280  -22.6067   12.3080 H         1 UNK         0.0792 
    131 H131      -48.7808  -24.7650   10.8169 H         1 UNK         0.3086 
    132 H132      -50.4372  -26.7202    9.3547 H         1 UNK         0.0583 
    133 H133      -52.8740  -26.5898   10.0395 H         1 UNK         0.1020 
    134 H134      -52.8948  -24.9102    9.6627 H         1 UNK         0.1020 
    135 H135      -54.5014  -27.6900    8.5469 H         1 UNK         0.0694 
    136 H136      -54.2000  -28.0087    6.8586 H         1 UNK         0.0694 
    137 H137      -49.3635  -25.0245    8.3889 H         1 UNK         0.2989 
    138 H138      -50.1101  -21.9568    7.4401 H         1 UNK         0.1055 
    139 H139      -48.2354  -21.8805    9.8711 H         1 UNK         0.0806 
    140 H140      -49.6368  -20.8438    9.6272 H         1 UNK         0.0806 
    141 H141      -48.2527  -20.7079    8.5570 H         1 UNK         0.0806 
    142 H142      -47.8348  -23.8018    8.0713 H         1 UNK         0.3061 
    143 H143      -47.0485  -24.5385    5.2318 H         1 UNK         0.0734 
    144 H144      -45.5816  -21.8523    5.1787 H         1 UNK         0.0832 
    145 H145      -44.9887  -23.3377    4.4346 H         1 UNK         0.0832 
    146 H146      -46.4716  -22.5953    3.8611 H         1 UNK         0.0832 
    147 H147      -45.8802  -25.1485    6.9729 H         1 UNK         0.3156 
    148 H148      -43.5432  -24.2658    8.7570 H         1 UNK         0.0589 
    149 H149      -44.3276  -23.9341   11.1495 H         1 UNK         0.0808 
    150 H150      -44.1858  -22.4345   10.2484 H         1 UNK         0.0808 
    151 H151      -45.7710  -23.1330   10.5271 H         1 UNK         0.0808 
    152 H152      -44.4164  -26.2685    9.0520 H         1 UNK         0.3098 
    153 H153      -45.7502  -27.9496    9.0555 H         1 UNK         0.0720 
    154 H154      -46.1534  -27.5880   11.5399 H         1 UNK         0.0791 
    155 H155      -46.9918  -28.9923   10.9007 H         1 UNK         0.0791 
    156 H156      -47.8776  -27.5024   11.2122 H         1 UNK         0.0791 
    157 H157      -48.4901  -28.3473    8.9843 H         1 UNK         0.3028 
@<TRIPOS>BOND
     1    1    2 1    
     2    1   82 1    
     3    1   83 1    
     4    1   84 1    
     5    2    3 2    
     6    2    4 am   BACKBONE|DICT|INTERRES
     7    4    5 1    
     8    4   85 1    
     9    5    6 1    
    10    5   80 1    
    11    5   86 1    
    12    6    7 1    
    13    6   87 1    
    14    6   88 1    
    15    7    8 1    
    16    8    9 1    
    17    8   89 1    
    18    8   90 1    
    19    9   10 ar   
    20    9   14 ar   
    21   10   11 ar   
    22   10   91 1    
    23   11   12 ar   
    24   11   58 1    
    25   12   13 ar   
    26   12   92 1    
    27   13   14 ar   
    28   13   15 1    
    29   14   93 1    
    30   15   16 1    
    31   15   94 1    
    32   15   95 1    
    33   16   17 1    
    34   17   18 1    
    35   17   96 1    
    36   17   97 1    
    37   18   19 1    
    38   18   22 1    
    39   18   98 1    
    40   19   20 am   BACKBONE|DICT|INTERRES
    41   19   21 2    
    42   20   99 1    
    43   20  100 1    
    44   22   23 am   BACKBONE|DICT|INTERRES
    45   22  101 1    
    46   23   24 2    
    47   23   25 1    
    48   25   26 1    
    49   25   27 1    
    50   25  102 1    
    51   26  103 1    
    52   26  104 1    
    53   26  105 1    
    54   27   28 am   BACKBONE|DICT|INTERRES
    55   27  106 1    
    56   28   29 2    
    57   28   30 1    
    58   30   31 1    
    59   30   32 1    
    60   30  107 1    
    61   31  108 1    
    62   31  109 1    
    63   31  110 1    
    64   32   33 am   BACKBONE|DICT|INTERRES
    65   32  111 1    
    66   33   34 2    
    67   33   35 1    
    68   35   36 1    
    69   35   37 1    
    70   35  112 1    
    71   36  113 1    
    72   36  114 1    
    73   36  115 1    
    74   37   38 am   BACKBONE|DICT|INTERRES
    75   37  116 1    
    76   38   39 2    
    77   38   40 1    
    78   40   41 1    
    79   40   42 1    
    80   40  117 1    
    81   41  118 1    
    82   41  119 1    
    83   41  120 1    
    84   42   43 am   BACKBONE|DICT|INTERRES
    85   42  121 1    
    86   43   44 2    
    87   43   45 1    
    88   45   46 1    
    89   45   47 1    
    90   45  122 1    
    91   46  123 1    
    92   46  124 1    
    93   46  125 1    
    94   47   48 am   BACKBONE|DICT|INTERRES
    95   47  126 1    
    96   48   49 2    
    97   48   50 1    
    98   50   51 1    
    99   50   52 1    
   100   50  127 1    
   101   51  128 1    
   102   51  129 1    
   103   51  130 1    
   104   52   53 am   BACKBONE|DICT|INTERRES
   105   52  131 1    
   106   53   54 2    
   107   53   55 1    
   108   55   56 1    
   109   55   59 1    
   110   55  132 1    
   111   56   57 1    
   112   56  133 1    
   113   56  134 1    
   114   57   58 1    
   115   58  135 1    
   116   58  136 1    
   117   59   60 am   BACKBONE|DICT|INTERRES
   118   59  137 1    
   119   60   61 2    
   120   60   62 1    
   121   62   63 1    
   122   62   64 1    
   123   62  138 1    
   124   63  139 1    
   125   63  140 1    
   126   63  141 1    
   127   64   65 am   BACKBONE|DICT|INTERRES
   128   64  142 1    
   129   65   66 2    
   130   65   67 1    
   131   67   68 1    
   132   67   69 1    
   133   67  143 1    
   134   68  144 1    
   135   68  145 1    
   136   68  146 1    
   137   69   70 am   BACKBONE|DICT|INTERRES
   138   69  147 1    
   139   70   71 2    
   140   70   72 1    
   141   72   73 1    
   142   72   74 1    
   143   72  148 1    
   144   73  149 1    
   145   73  150 1    
   146   73  151 1    
   147   74   75 am   BACKBONE|DICT|INTERRES
   148   74  152 1    
   149   75   76 2    
   150   75   77 1    
   151   77   78 1    
   152   77   79 1    
   153   77  153 1    
   154   78  154 1    
   155   78  155 1    
   156   78  156 1    
   157   79   80 am   BACKBONE|DICT|INTERRES
   158   79  157 1    
   159   80   81 2    
@<TRIPOS>SUBSTRUCTURE
     1 UNK         1 GROUP             0       ****    0 ROOT    
