@<TRIPOS>MOLECULE
3R207
157   159    1
SMALL
USER_CHARGES


@<TRIPOS>ATOM
      1 CA        -51.2979  -27.3463    0.3756 C.3       0 UNK        -0.1975 
      2 C         -51.2307  -26.8506    1.8127 C.2       0 UNK         0.4852 
      3 O         -51.6517  -25.7272    2.0904 O.2       0 UNK        -0.5216 
      4 N         -50.7096  -27.6831    2.7254 N.am      1 UNK        -0.4461 
      5 CA        -50.5348  -27.3758    4.1501 C.3       1 UNK         0.0864 
      6 C6        -50.1849  -28.6585    4.9482 C.3       14 UNK        -0.0898 
      7 S7        -50.2787  -28.4514    6.7568 S.3       14 UNK        -0.2598 
      8 C8        -50.2565  -30.1933    7.2783 C.3       14 UNK         0.0286 
      9 C9        -50.1856  -30.3127    8.7920 C.ar      14 UNK        -0.0844 
     10 C10       -48.9475  -30.3845    9.4337 C.ar      14 UNK        -0.0881 
     11 C11       -48.8697  -30.4891   10.8247 C.ar      14 UNK        -0.0643 
     12 C12       -50.0476  -30.5166   11.5801 C.ar      14 UNK        -0.0930 
     13 C13       -51.2960  -30.4654   10.9474 C.ar      14 UNK        -0.0827 
     14 C14       -51.3556  -30.3670    9.5528 C.ar      14 UNK        -0.1249 
     15 C15       -52.5821  -30.5499   11.7603 C.3       14 UNK         0.0141 
     16 S16       -53.6508  -29.1063   11.4794 S.3       14 UNK        -0.2313 
     17 C17       -55.0766  -29.5004   12.5411 C.3       14 UNK        -0.0915 
     18 CA        -56.1846  -28.4246   12.4144 C.3       13 UNK         0.0968 
     19 C         -57.4660  -28.8372   13.1891 C.2       13 UNK         0.5732 
     20 N         -58.2798  -29.7095   12.6090 N.am      13 UNK        -0.7310 
     21 O         -57.7176  -28.4091   14.3134 O.2       13 UNK        -0.5035 
     22 N         -55.6758  -27.1000   12.7916 N.am      13 UNK        -0.4233 
     23 C         -56.2702  -25.9348   12.5167 C.2       13 UNK         0.4989 
     24 O         -57.3314  -25.8286   11.8981 O.2       13 UNK        -0.4996 
     25 CA        -55.5169  -24.6816   12.9958 C.3       12 UNK         0.0216 
     26 CB        -56.3059  -23.3686   12.7979 C.3       12 UNK        -0.1964 
     27 N         -55.0345  -24.8259   14.3747 N.am      12 UNK        -0.4276 
     28 C         -55.7748  -24.9115   15.4905 C.2       12 UNK         0.5020 
     29 O         -57.0054  -24.8452   15.5103 O.2       12 UNK        -0.5489 
     30 CA        -54.9989  -25.0611   16.8116 C.3       11 UNK         0.0294 
     31 CB        -55.8933  -25.4551   18.0077 C.3       11 UNK        -0.2019 
     32 N         -53.8299  -25.9411   16.7039 N.am      11 UNK        -0.4493 
     33 C         -53.8087  -27.2702   16.5139 C.2       11 UNK         0.4932 
     34 O         -54.8228  -27.9497   16.3584 O.2       11 UNK        -0.5029 
     35 CA        -52.4348  -27.9789   16.5066 C.3       10 UNK         0.0280 
     36 CB        -52.3293  -28.9923   15.3531 C.3       10 UNK        -0.1976 
     37 N         -51.2959  -27.0603   16.4334 N.am      10 UNK        -0.4242 
     38 C         -50.7812  -26.3589   17.4530 C.2       10 UNK         0.5072 
     39 O         -51.1533  -26.4737   18.6208 O.2       10 UNK        -0.5224 
     40 CA        -49.7171  -25.3016   17.0994 C.3       9 UNK         0.0343 
     41 CB        -48.3094  -25.9138   17.1519 C.3       9 UNK        -0.2003 
     42 N         -49.9434  -24.6681   15.7926 N.am      9 UNK        -0.4272 
     43 C         -51.0318  -23.9445   15.4826 C.2       9 UNK         0.4988 
     44 O         -51.9313  -23.6894   16.2833 O.2       9 UNK        -0.5108 
     45 CA        -51.1791  -23.4741   14.0271 C.3       8 UNK         0.0248 
     46 CB        -50.3451  -22.2087   13.7747 C.3       8 UNK        -0.2001 
     47 N         -50.8215  -24.5156   13.0616 N.am      8 UNK        -0.4140 
     48 C         -51.4813  -25.6739   12.9100 C.2       8 UNK         0.5028 
     49 O         -52.5166  -25.9511   13.5178 O.2       8 UNK        -0.5428 
     50 CA        -50.8520  -26.7182   11.9707 C.3       7 UNK         0.0264 
     51 CB        -51.1722  -26.4171   10.4997 C.3       7 UNK        -0.1988 
     52 N         -49.4046  -26.8371   12.1583 N.am      7 UNK        -0.4454 
     53 C         -48.8415  -27.2902   13.2891 C.2       7 UNK         0.5027 
     54 O         -49.4890  -27.7214   14.2424 O.2       7 UNK        -0.5083 
     55 CA        -47.3111  -27.1861   13.4271 C.3       6 UNK         0.0844 
     56 C56       -46.5818  -28.5248   13.1737 C.3       14 UNK        -0.0967 
     57 S57       -46.5566  -29.0714   11.4345 S.3       14 UNK        -0.2604 
     58 C58       -47.5073  -30.6260   11.4883 C.3       14 UNK         0.0134 
     59 N         -46.7602  -26.0566   12.6739 N.am      6 UNK        -0.4116 
     60 C         -46.8910  -24.7828   13.0721 C.2       5 UNK         0.5034 
     61 O         -47.4743  -24.4453   14.1036 O.2       5 UNK        -0.5045 
     62 CA        -46.3060  -23.7013   12.1509 C.3       5 UNK         0.0224 
     63 CB        -44.7692  -23.7081   12.1965 C.3       5 UNK        -0.1978 
     64 N         -46.7619  -23.8177   10.7636 N.am      5 UNK        -0.4737 
     65 C         -48.0396  -23.7203   10.3698 C.2       4 UNK         0.5027 
     66 O         -48.9802  -23.5451   11.1411 O.2       4 UNK        -0.5211 
     67 CA        -48.3262  -23.8466    8.8655 C.3       4 UNK         0.0297 
     68 CB        -48.3596  -22.4589    8.2070 C.3       4 UNK        -0.1993 
     69 N         -47.3828  -24.7008    8.1433 N.am      4 UNK        -0.4486 
     70 C         -47.1955  -26.0090    8.3565 C.2       3 UNK         0.4961 
     71 O         -47.7378  -26.6314    9.2709 O.2       3 UNK        -0.5105 
     72 CA        -46.2498  -26.7234    7.3669 C.3       3 UNK         0.0299 
     73 CB        -46.1123  -28.2273    7.6573 C.3       3 UNK        -0.1972 
     74 N         -46.6902  -26.5592    5.9786 N.am      3 UNK        -0.4305 
     75 C         -46.5487  -25.4574    5.2276 C.2       2 UNK         0.5006 
     76 O         -45.9642  -24.4440    5.6142 O.2       2 UNK        -0.5106 
     77 CA        -47.1934  -25.4676    3.8278 C.3       2 UNK         0.0296 
     78 CB        -46.1473  -25.8149    2.7564 C.3       2 UNK        -0.2002 
     79 N         -48.3327  -26.3845    3.7081 N.am      2 UNK        -0.4032 
     80 C         -49.4935  -26.2569    4.3712 C.2       1 UNK         0.5000 
     81 O         -49.7555  -25.3127    5.1186 O.2       1 UNK        -0.5238 
     82 H82       -50.8999  -28.3556    0.2720 H         1 UNK         0.0889 
     83 H83       -50.7240  -26.6873   -0.2754 H         1 UNK         0.0889 
     84 H84       -52.3310  -27.3525    0.0291 H         1 UNK         0.0889 
     85 H85       -50.3993  -28.5984    2.4307 H         1 UNK         0.3028 
     86 H86       -51.4936  -27.0024    4.5173 H         1 UNK         0.0864 
     87 H87       -49.1918  -29.0286    4.6866 H         1 UNK         0.0720 
     88 H88       -50.8827  -29.4524    4.6756 H         1 UNK         0.0720 
     89 H89       -49.4028  -30.6983    6.8236 H         1 UNK         0.0814 
     90 H90       -51.1491  -30.6967    6.9035 H         1 UNK         0.0814 
     91 H91       -48.0372  -30.3632    8.8522 H         1 UNK         0.1469 
     92 H92       -49.9917  -30.5978   12.6570 H         1 UNK         0.1381 
     93 H93       -52.3172  -30.3238    9.0597 H         1 UNK         0.1206 
     94 H94       -52.3633  -30.6290   12.8260 H         1 UNK         0.0813 
     95 H95       -53.1200  -31.4572   11.4822 H         1 UNK         0.0813 
     96 H96       -55.4549  -30.4821   12.2502 H         1 UNK         0.0638 
     97 H97       -54.7401  -29.5870   13.5755 H         1 UNK         0.0638 
     98 H98       -56.4644  -28.3611   11.3607 H         1 UNK         0.0568 
     99 H99       -58.0833  -30.0776   11.6913 H         1 UNK         0.3450 
    100 H100      -59.1114  -30.0016   13.0980 H         1 UNK         0.3450 
    101 H101      -54.8066  -27.0893   13.3062 H         1 UNK         0.2987 
    102 H102      -54.6245  -24.6139   12.3718 H         1 UNK         0.0766 
    103 H103      -57.2561  -23.3774   13.3324 H         1 UNK         0.0798 
    104 H104      -55.7342  -22.5067   13.1417 H         1 UNK         0.0798 
    105 H105      -56.5318  -23.2075   11.7432 H         1 UNK         0.0798 
    106 H106      -54.0349  -24.9929   14.4529 H         1 UNK         0.3198 
    107 H107      -54.5992  -24.0689   17.0273 H         1 UNK         0.0843 
    108 H108      -56.4003  -26.4057   17.8399 H         1 UNK         0.0831 
    109 H109      -56.6656  -24.7046   18.1800 H         1 UNK         0.0831 
    110 H110      -55.3140  -25.5393   18.9271 H         1 UNK         0.0831 
    111 H111      -52.9398  -25.4599   16.7695 H         1 UNK         0.3133 
    112 H112      -52.3638  -28.5353   17.4431 H         1 UNK         0.0566 
    113 H113      -51.3685  -29.5071   15.3627 H         1 UNK         0.0814 
    114 H114      -53.1032  -29.7569   15.4269 H         1 UNK         0.0814 
    115 H115      -52.4372  -28.5075   14.3828 H         1 UNK         0.0814 
    116 H116      -50.8733  -26.9526   15.5165 H         1 UNK         0.3091 
    117 H117      -49.7712  -24.5135   17.8534 H         1 UNK         0.0702 
    118 H118      -47.5450  -25.1889   16.8712 H         1 UNK         0.0785 
    119 H119      -48.2210  -26.7749   16.4909 H         1 UNK         0.0785 
    120 H120      -48.0761  -26.2582   18.1602 H         1 UNK         0.0785 
    121 H121      -49.2155  -24.7788   15.0935 H         1 UNK         0.2998 
    122 H122      -52.2294  -23.2222   13.8656 H         1 UNK         0.0697 
    123 H123      -49.2764  -22.4001   13.8767 H         1 UNK         0.0825 
    124 H124      -50.6061  -21.4201   14.4817 H         1 UNK         0.0825 
    125 H125      -50.5177  -21.8158   12.7726 H         1 UNK         0.0825 
    126 H126      -50.0163  -24.3251   12.4677 H         1 UNK         0.3029 
    127 H127      -51.2861  -27.6865   12.2208 H         1 UNK         0.0897 
    128 H128      -50.7840  -25.4478   10.1904 H         1 UNK         0.0792 
    129 H129      -52.2500  -26.4074   10.3331 H         1 UNK         0.0792 
    130 H130      -50.7495  -27.1768    9.8406 H         1 UNK         0.0792 
    131 H131      -48.8103  -26.5478   11.3908 H         1 UNK         0.3086 
    132 H132      -47.1299  -26.9663   14.4806 H         1 UNK         0.0583 
    133 H133      -45.5432  -28.4267   13.4934 H         1 UNK         0.1020 
    134 H134      -46.9994  -29.3017   13.8159 H         1 UNK         0.1020 
    135 H135      -46.9370  -31.3911   10.9594 H         1 UNK         0.0694 
    136 H136      -47.6099  -30.9921   12.5101 H         1 UNK         0.0694 
    137 H137      -46.3176  -26.2675   11.7907 H         1 UNK         0.2989 
    138 H138      -46.6517  -22.7365   12.5293 H         1 UNK         0.1055 
    139 H139      -44.4092  -23.6199   13.2227 H         1 UNK         0.0806 
    140 H140      -44.3530  -22.8696   11.6377 H         1 UNK         0.0806 
    141 H141      -44.3517  -24.6267   11.7824 H         1 UNK         0.0806 
    142 H142      -46.0580  -23.9675   10.0554 H         1 UNK         0.3061 
    143 H143      -49.3150  -24.2955    8.7566 H         1 UNK         0.0734 
    144 H144      -47.3863  -21.9682    8.2481 H         1 UNK         0.0832 
    145 H145      -48.6604  -22.5241    7.1610 H         1 UNK         0.0832 
    146 H146      -49.0759  -21.8065    8.7087 H         1 UNK         0.0832 
    147 H147      -46.8962  -24.2893    7.3523 H         1 UNK         0.3156 
    148 H148      -45.2624  -26.2706    7.4778 H         1 UNK         0.0589 
    149 H149      -47.0698  -28.7385    7.5591 H         1 UNK         0.0808 
    150 H150      -45.4050  -28.7022    6.9774 H         1 UNK         0.0808 
    151 H151      -45.7486  -28.3983    8.6704 H         1 UNK         0.0808 
    152 H152      -47.2185  -27.3259    5.5904 H         1 UNK         0.3098 
    153 H153      -47.5593  -24.4572    3.6330 H         1 UNK         0.0720 
    154 H154      -46.5663  -25.7399    1.7527 H         1 UNK         0.0791 
    155 H155      -45.7565  -26.8253    2.8843 H         1 UNK         0.0791 
    156 H156      -45.2995  -25.1297    2.8027 H         1 UNK         0.0791 
    157 H157      -48.2177  -27.1737    3.0888 H         1 UNK         0.3028 
@<TRIPOS>BOND
     1    1    2 1    
     2    1   82 1    
     3    1   83 1    
     4    1   84 1    
     5    2    3 2    
     6    2    4 am   BACKBONE|DICT|INTERRES
     7    4    5 1    
     8    4   85 1    
     9    5    6 1    
    10    5   80 1    
    11    5   86 1    
    12    6    7 1    
    13    6   87 1    
    14    6   88 1    
    15    7    8 1    
    16    8    9 1    
    17    8   89 1    
    18    8   90 1    
    19    9   10 ar   
    20    9   14 ar   
    21   10   11 ar   
    22   10   91 1    
    23   11   12 ar   
    24   11   58 1    
    25   12   13 ar   
    26   12   92 1    
    27   13   14 ar   
    28   13   15 1    
    29   14   93 1    
    30   15   16 1    
    31   15   94 1    
    32   15   95 1    
    33   16   17 1    
    34   17   18 1    
    35   17   96 1    
    36   17   97 1    
    37   18   19 1    
    38   18   22 1    
    39   18   98 1    
    40   19   20 am   BACKBONE|DICT|INTERRES
    41   19   21 2    
    42   20   99 1    
    43   20  100 1    
    44   22   23 am   BACKBONE|DICT|INTERRES
    45   22  101 1    
    46   23   24 2    
    47   23   25 1    
    48   25   26 1    
    49   25   27 1    
    50   25  102 1    
    51   26  103 1    
    52   26  104 1    
    53   26  105 1    
    54   27   28 am   BACKBONE|DICT|INTERRES
    55   27  106 1    
    56   28   29 2    
    57   28   30 1    
    58   30   31 1    
    59   30   32 1    
    60   30  107 1    
    61   31  108 1    
    62   31  109 1    
    63   31  110 1    
    64   32   33 am   BACKBONE|DICT|INTERRES
    65   32  111 1    
    66   33   34 2    
    67   33   35 1    
    68   35   36 1    
    69   35   37 1    
    70   35  112 1    
    71   36  113 1    
    72   36  114 1    
    73   36  115 1    
    74   37   38 am   BACKBONE|DICT|INTERRES
    75   37  116 1    
    76   38   39 2    
    77   38   40 1    
    78   40   41 1    
    79   40   42 1    
    80   40  117 1    
    81   41  118 1    
    82   41  119 1    
    83   41  120 1    
    84   42   43 am   BACKBONE|DICT|INTERRES
    85   42  121 1    
    86   43   44 2    
    87   43   45 1    
    88   45   46 1    
    89   45   47 1    
    90   45  122 1    
    91   46  123 1    
    92   46  124 1    
    93   46  125 1    
    94   47   48 am   BACKBONE|DICT|INTERRES
    95   47  126 1    
    96   48   49 2    
    97   48   50 1    
    98   50   51 1    
    99   50   52 1    
   100   50  127 1    
   101   51  128 1    
   102   51  129 1    
   103   51  130 1    
   104   52   53 am   BACKBONE|DICT|INTERRES
   105   52  131 1    
   106   53   54 2    
   107   53   55 1    
   108   55   56 1    
   109   55   59 1    
   110   55  132 1    
   111   56   57 1    
   112   56  133 1    
   113   56  134 1    
   114   57   58 1    
   115   58  135 1    
   116   58  136 1    
   117   59   60 am   BACKBONE|DICT|INTERRES
   118   59  137 1    
   119   60   61 2    
   120   60   62 1    
   121   62   63 1    
   122   62   64 1    
   123   62  138 1    
   124   63  139 1    
   125   63  140 1    
   126   63  141 1    
   127   64   65 am   BACKBONE|DICT|INTERRES
   128   64  142 1    
   129   65   66 2    
   130   65   67 1    
   131   67   68 1    
   132   67   69 1    
   133   67  143 1    
   134   68  144 1    
   135   68  145 1    
   136   68  146 1    
   137   69   70 am   BACKBONE|DICT|INTERRES
   138   69  147 1    
   139   70   71 2    
   140   70   72 1    
   141   72   73 1    
   142   72   74 1    
   143   72  148 1    
   144   73  149 1    
   145   73  150 1    
   146   73  151 1    
   147   74   75 am   BACKBONE|DICT|INTERRES
   148   74  152 1    
   149   75   76 2    
   150   75   77 1    
   151   77   78 1    
   152   77   79 1    
   153   77  153 1    
   154   78  154 1    
   155   78  155 1    
   156   78  156 1    
   157   79   80 am   BACKBONE|DICT|INTERRES
   158   79  157 1    
   159   80   81 2    
@<TRIPOS>SUBSTRUCTURE
     1 UNK         1 GROUP             0       ****    0 ROOT    
