@<TRIPOS>MOLECULE
3R207
157   159    1
SMALL
USER_CHARGES


@<TRIPOS>ATOM
      1 CA        -49.7812  -31.1301    2.5750 C.3       0 UNK        -0.1975 
      2 C         -49.0202  -30.7994    3.8505 C.2       0 UNK         0.4852 
      3 O         -47.7902  -30.7493    3.8286 O.2       0 UNK        -0.5216 
      4 N         -49.7473  -30.5639    4.9533 N.am      1 UNK        -0.4461 
      5 CA        -49.2287  -30.2772    6.3027 C.3       1 UNK         0.0864 
      6 C6        -48.4535  -31.4708    6.9300 C.3       14 UNK        -0.0898 
      7 S7        -49.5683  -32.8914    7.2038 S.3       14 UNK        -0.2598 
      8 C8        -49.6515  -32.9925    9.0248 C.3       14 UNK         0.0286 
      9 C9        -50.0174  -31.6698    9.6907 C.ar      14 UNK        -0.0844 
     10 C10       -49.0974  -31.0361   10.5331 C.ar      14 UNK        -0.0881 
     11 C11       -49.4198  -29.8310   11.1623 C.ar      14 UNK        -0.0643 
     12 C12       -50.6695  -29.2502   10.9322 C.ar      14 UNK        -0.0930 
     13 C13       -51.6062  -29.8816   10.1089 C.ar      14 UNK        -0.0827 
     14 C14       -51.2762  -31.0925    9.4909 C.ar      14 UNK        -0.1249 
     15 C15       -52.9788  -29.2587    9.9136 C.3       14 UNK         0.0141 
     16 S16       -54.0148  -29.5178   11.3851 S.3       14 UNK        -0.2313 
     17 C17       -55.5708  -28.6885   10.9100 C.3       14 UNK        -0.0915 
     18 CA        -55.4660  -27.1536   10.6808 C.3       13 UNK         0.0968 
     19 C         -56.8798  -26.5366   10.4577 C.2       13 UNK         0.5732 
     20 N         -57.3714  -25.6438   11.3103 N.am      13 UNK        -0.7310 
     21 O         -57.5459  -26.8785    9.4835 O.2       13 UNK        -0.5035 
     22 N         -54.6532  -26.4946   11.7132 N.am      13 UNK        -0.4233 
     23 C         -54.1671  -25.2486   11.6438 C.2       13 UNK         0.4989 
     24 O         -54.3150  -24.5079   10.6711 O.2       13 UNK        -0.4996 
     25 CA        -53.4250  -24.7481   12.9001 C.3       12 UNK         0.0216 
     26 CB        -53.2157  -23.2199   12.9040 C.3       12 UNK        -0.1964 
     27 N         -54.0631  -25.1785   14.1543 N.am      12 UNK        -0.4276 
     28 C         -55.3455  -25.0133   14.5246 C.2       12 UNK         0.5020 
     29 O         -56.2007  -24.4728   13.8220 O.2       12 UNK        -0.5489 
     30 CA        -55.7640  -25.5907   15.8905 C.3       11 UNK         0.0294 
     31 CB        -56.6407  -26.8387   15.6927 C.3       11 UNK        -0.2019 
     32 N         -54.6220  -25.9463   16.7356 N.am      11 UNK        -0.4493 
     33 C         -53.8512  -25.0800   17.4029 C.2       11 UNK         0.4932 
     34 O         -54.0834  -23.8736   17.4746 O.2       11 UNK        -0.5029 
     35 CA        -52.5776  -25.6451   18.0539 C.3       10 UNK         0.0280 
     36 CB        -52.8782  -26.2996   19.4165 C.3       10 UNK        -0.1976 
     37 N         -51.8055  -26.5320   17.1679 N.am      10 UNK        -0.4242 
     38 C         -52.1100  -27.7653   16.7272 C.2       10 UNK         0.5072 
     39 O         -53.1565  -28.3462   17.0179 O.2       10 UNK        -0.5224 
     40 CA        -51.1300  -28.4600   15.7582 C.3       9 UNK         0.0343 
     41 CB        -51.7695  -28.6237   14.3689 C.3       9 UNK        -0.2003 
     42 N         -49.8475  -27.7694   15.6079 N.am      9 UNK        -0.4272 
     43 C         -48.8873  -27.7187   16.5428 C.2       9 UNK         0.4988 
     44 O         -48.9267  -28.3556   17.5956 O.2       9 UNK        -0.5108 
     45 CA        -47.6959  -26.7750   16.2830 C.3       8 UNK         0.0248 
     46 CB        -46.4739  -27.5819   15.8135 C.3       8 UNK        -0.2001 
     47 N         -47.9548  -25.7024   15.3141 N.am      8 UNK        -0.4140 
     48 C         -48.9306  -24.7819   15.3718 C.2       8 UNK         0.5028 
     49 O         -49.7428  -24.7096   16.2939 O.2       8 UNK        -0.5428 
     50 CA        -49.0532  -23.8060   14.1854 C.3       7 UNK         0.0264 
     51 CB        -48.5830  -22.4001   14.5892 C.3       7 UNK        -0.1988 
     52 N         -48.3142  -24.2348   12.9935 N.am      7 UNK        -0.4454 
     53 C         -48.6149  -25.2960   12.2326 C.2       7 UNK         0.5027 
     54 O         -49.6025  -26.0064   12.4329 O.2       7 UNK        -0.5083 
     55 CA        -47.6144  -25.6197   11.0981 C.3       6 UNK         0.0844 
     56 C56       -47.8675  -26.9863   10.4075 C.3       14 UNK        -0.0967 
     57 S57       -47.0500  -28.3685   11.2759 S.3       14 UNK        -0.2604 
     58 C58       -48.4361  -29.1836   12.1270 C.3       14 UNK         0.0134 
     59 N         -47.5324  -24.5363   10.1172 N.am      6 UNK        -0.4116 
     60 C         -46.9025  -23.3642   10.2768 C.2       5 UNK         0.5034 
     61 O         -46.3221  -23.0351   11.3127 O.2       5 UNK        -0.5045 
     62 CA        -46.9326  -22.3938    9.0874 C.3       5 UNK         0.0224 
     63 CB        -45.8243  -22.7421    8.0799 C.3       5 UNK        -0.1978 
     64 N         -48.2310  -22.4312    8.4132 N.am      5 UNK        -0.4737 
     65 C         -49.2497  -21.6042    8.6829 C.2       4 UNK         0.5027 
     66 O         -49.1711  -20.6512    9.4585 O.2       4 UNK        -0.5211 
     67 CA        -50.5872  -21.8840    7.9720 C.3       4 UNK         0.0297 
     68 CB        -50.6778  -21.0814    6.6642 C.3       4 UNK        -0.1993 
     69 N         -50.8139  -23.3040    7.6865 N.am      4 UNK        -0.4486 
     70 C         -50.9922  -24.2490    8.6206 C.2       3 UNK         0.4961 
     71 O         -51.0161  -24.0229    9.8292 O.2       3 UNK        -0.5105 
     72 CA        -51.1406  -25.6994    8.1255 C.3       3 UNK         0.0299 
     73 CB        -52.6151  -26.0068    7.8243 C.3       3 UNK        -0.1972 
     74 N         -50.3451  -26.0613    6.9461 N.am      3 UNK        -0.4305 
     75 C         -49.0325  -25.8627    6.7541 C.2       2 UNK         0.5006 
     76 O         -48.3189  -25.1959    7.5036 O.2       2 UNK        -0.5106 
     77 CA        -48.4308  -26.5634    5.5217 C.3       2 UNK         0.0296 
     78 CB        -46.9046  -26.3648    5.3948 C.3       2 UNK        -0.2002 
     79 N         -48.7996  -27.9870    5.4983 N.am      2 UNK        -0.4032 
     80 C         -48.4814  -28.9259    6.4080 C.2       1 UNK         0.5000 
     81 O         -47.6860  -28.7404    7.3296 O.2       1 UNK        -0.5238 
     82 H82       -50.8598  -31.1331    2.7310 H         1 UNK         0.0889 
     83 H83       -49.4896  -32.1147    2.2103 H         1 UNK         0.0889 
     84 H84       -49.5524  -30.3984    1.8005 H         1 UNK         0.0889 
     85 H85       -50.7541  -30.6324    4.8928 H         1 UNK         0.3028 
     86 H86       -50.1140  -30.1204    6.9213 H         1 UNK         0.0864 
     87 H87       -47.6302  -31.7848    6.2875 H         1 UNK         0.0720 
     88 H88       -47.9946  -31.1968    7.8805 H         1 UNK         0.0720 
     89 H89       -48.6930  -33.3591    9.3955 H         1 UNK         0.0814 
     90 H90       -50.3905  -33.7456    9.3015 H         1 UNK         0.0814 
     91 H91       -48.1275  -31.4815   10.7084 H         1 UNK         0.1469 
     92 H92       -50.9261  -28.3180   11.4178 H         1 UNK         0.1381 
     93 H93       -51.9965  -31.5888    8.8548 H         1 UNK         0.1206 
     94 H94       -52.8624  -28.1898    9.7374 H         1 UNK         0.0813 
     95 H95       -53.4750  -29.6746    9.0354 H         1 UNK         0.0813 
     96 H96       -55.9581  -29.1790   10.0150 H         1 UNK         0.0638 
     97 H97       -56.2912  -28.8986   11.7029 H         1 UNK         0.0638 
     98 H98       -54.9425  -27.0064    9.7362 H         1 UNK         0.0568 
     99 H99       -58.2868  -25.2600   11.1400 H         1 UNK         0.3450 
    100 H100      -56.8355  -25.3228   12.1097 H         1 UNK         0.3450 
    101 H101      -54.4991  -27.0305   12.5530 H         1 UNK         0.2987 
    102 H102      -52.4381  -25.2139   12.8724 H         1 UNK         0.0766 
    103 H103      -54.1654  -22.6840   12.8828 H         1 UNK         0.0798 
    104 H104      -52.6666  -22.8962   13.7881 H         1 UNK         0.0798 
    105 H105      -52.6405  -22.9035   12.0323 H         1 UNK         0.0798 
    106 H106      -53.4599  -25.6426   14.8167 H         1 UNK         0.3198 
    107 H107      -56.3553  -24.8281   16.4020 H         1 UNK         0.0843 
    108 H108      -57.5182  -26.6089   15.0862 H         1 UNK         0.0831 
    109 H109      -57.0012  -27.2250   16.6463 H         1 UNK         0.0831 
    110 H110      -56.0977  -27.6400   15.1897 H         1 UNK         0.0831 
    111 H111      -54.3466  -26.9265   16.7674 H         1 UNK         0.3133 
    112 H112      -51.9220  -24.7937   18.2441 H         1 UNK         0.0566 
    113 H113      -51.9653  -26.6555   19.8940 H         1 UNK         0.0814 
    114 H114      -53.3410  -25.5826   20.0957 H         1 UNK         0.0814 
    115 H115      -53.5615  -27.1445   19.3276 H         1 UNK         0.0814 
    116 H116      -50.9470  -26.1061   16.8244 H         1 UNK         0.3091 
    117 H117      -50.9389  -29.4559   16.1632 H         1 UNK         0.0702 
    118 H118      -51.1650  -29.2750   13.7392 H         1 UNK         0.0785 
    119 H119      -51.8845  -27.6687   13.8551 H         1 UNK         0.0785 
    120 H120      -52.7574  -29.0822   14.4354 H         1 UNK         0.0785 
    121 H121      -49.7272  -27.2155   14.7709 H         1 UNK         0.2998 
    122 H122      -47.4512  -26.2987   17.2344 H         1 UNK         0.0697 
    123 H123      -46.6484  -28.0526   14.8447 H         1 UNK         0.0825 
    124 H124      -46.2331  -28.3758   16.5222 H         1 UNK         0.0825 
    125 H125      -45.5888  -26.9513   15.7270 H         1 UNK         0.0825 
    126 H126      -47.3358  -25.6649   14.5182 H         1 UNK         0.3029 
    127 H127      -50.1118  -23.7524   13.9217 H         1 UNK         0.0897 
    128 H128      -48.7395  -21.6832   13.7827 H         1 UNK         0.0792 
    129 H129      -49.1371  -22.0365   15.4560 H         1 UNK         0.0792 
    130 H130      -47.5238  -22.3875   14.8496 H         1 UNK         0.0792 
    131 H131      -47.5070  -23.6798   12.7211 H         1 UNK         0.3086 
    132 H132      -46.6299  -25.6728   11.5685 H         1 UNK         0.0583 
    133 H133      -48.9283  -27.1816   10.2512 H         1 UNK         0.1020 
    134 H134      -47.4354  -26.9807    9.4054 H         1 UNK         0.1020 
    135 H135      -48.0322  -29.9500   12.7901 H         1 UNK         0.0694 
    136 H136      -48.9400  -28.4682   12.7756 H         1 UNK         0.0694 
    137 H137      -47.9549  -24.7278    9.2117 H         1 UNK         0.2989 
    138 H138      -46.7389  -21.3893    9.4711 H         1 UNK         0.1055 
    139 H139      -45.8056  -22.0324    7.2527 H         1 UNK         0.0806 
    140 H140      -45.9532  -23.7408    7.6604 H         1 UNK         0.0806 
    141 H141      -44.8426  -22.7118    8.5547 H         1 UNK         0.0806 
    142 H142      -48.3979  -23.2250    7.8033 H         1 UNK         0.3061 
    143 H143      -51.3865  -21.5469    8.6359 H         1 UNK         0.0734 
    144 H144      -50.5394  -20.0156    6.8516 H         1 UNK         0.0832 
    145 H145      -49.9141  -21.3871    5.9479 H         1 UNK         0.0832 
    146 H146      -51.6524  -21.2004    6.1905 H         1 UNK         0.0832 
    147 H147      -50.8056  -23.5855    6.7170 H         1 UNK         0.3156 
    148 H148      -50.8170  -26.3515    8.9390 H         1 UNK         0.0589 
    149 H149      -52.9899  -25.4109    6.9912 H         1 UNK         0.0808 
    150 H150      -52.7661  -27.0579    7.5791 H         1 UNK         0.0808 
    151 H151      -53.2405  -25.7819    8.6861 H         1 UNK         0.0808 
    152 H152      -50.8329  -26.6046    6.2493 H         1 UNK         0.3098 
    153 H153      -48.8942  -26.1053    4.6466 H         1 UNK         0.0720 
    154 H154      -46.5095  -26.8793    4.5190 H         1 UNK         0.0791 
    155 H155      -46.3687  -26.7329    6.2702 H         1 UNK         0.0791 
    156 H156      -46.6589  -25.3074    5.2900 H         1 UNK         0.0791 
    157 H157      -49.4428  -28.2603    4.7688 H         1 UNK         0.3028 
@<TRIPOS>BOND
     1    1    2 1    
     2    1   82 1    
     3    1   83 1    
     4    1   84 1    
     5    2    3 2    
     6    2    4 am   BACKBONE|DICT|INTERRES
     7    4    5 1    
     8    4   85 1    
     9    5    6 1    
    10    5   80 1    
    11    5   86 1    
    12    6    7 1    
    13    6   87 1    
    14    6   88 1    
    15    7    8 1    
    16    8    9 1    
    17    8   89 1    
    18    8   90 1    
    19    9   10 ar   
    20    9   14 ar   
    21   10   11 ar   
    22   10   91 1    
    23   11   12 ar   
    24   11   58 1    
    25   12   13 ar   
    26   12   92 1    
    27   13   14 ar   
    28   13   15 1    
    29   14   93 1    
    30   15   16 1    
    31   15   94 1    
    32   15   95 1    
    33   16   17 1    
    34   17   18 1    
    35   17   96 1    
    36   17   97 1    
    37   18   19 1    
    38   18   22 1    
    39   18   98 1    
    40   19   20 am   BACKBONE|DICT|INTERRES
    41   19   21 2    
    42   20   99 1    
    43   20  100 1    
    44   22   23 am   BACKBONE|DICT|INTERRES
    45   22  101 1    
    46   23   24 2    
    47   23   25 1    
    48   25   26 1    
    49   25   27 1    
    50   25  102 1    
    51   26  103 1    
    52   26  104 1    
    53   26  105 1    
    54   27   28 am   BACKBONE|DICT|INTERRES
    55   27  106 1    
    56   28   29 2    
    57   28   30 1    
    58   30   31 1    
    59   30   32 1    
    60   30  107 1    
    61   31  108 1    
    62   31  109 1    
    63   31  110 1    
    64   32   33 am   BACKBONE|DICT|INTERRES
    65   32  111 1    
    66   33   34 2    
    67   33   35 1    
    68   35   36 1    
    69   35   37 1    
    70   35  112 1    
    71   36  113 1    
    72   36  114 1    
    73   36  115 1    
    74   37   38 am   BACKBONE|DICT|INTERRES
    75   37  116 1    
    76   38   39 2    
    77   38   40 1    
    78   40   41 1    
    79   40   42 1    
    80   40  117 1    
    81   41  118 1    
    82   41  119 1    
    83   41  120 1    
    84   42   43 am   BACKBONE|DICT|INTERRES
    85   42  121 1    
    86   43   44 2    
    87   43   45 1    
    88   45   46 1    
    89   45   47 1    
    90   45  122 1    
    91   46  123 1    
    92   46  124 1    
    93   46  125 1    
    94   47   48 am   BACKBONE|DICT|INTERRES
    95   47  126 1    
    96   48   49 2    
    97   48   50 1    
    98   50   51 1    
    99   50   52 1    
   100   50  127 1    
   101   51  128 1    
   102   51  129 1    
   103   51  130 1    
   104   52   53 am   BACKBONE|DICT|INTERRES
   105   52  131 1    
   106   53   54 2    
   107   53   55 1    
   108   55   56 1    
   109   55   59 1    
   110   55  132 1    
   111   56   57 1    
   112   56  133 1    
   113   56  134 1    
   114   57   58 1    
   115   58  135 1    
   116   58  136 1    
   117   59   60 am   BACKBONE|DICT|INTERRES
   118   59  137 1    
   119   60   61 2    
   120   60   62 1    
   121   62   63 1    
   122   62   64 1    
   123   62  138 1    
   124   63  139 1    
   125   63  140 1    
   126   63  141 1    
   127   64   65 am   BACKBONE|DICT|INTERRES
   128   64  142 1    
   129   65   66 2    
   130   65   67 1    
   131   67   68 1    
   132   67   69 1    
   133   67  143 1    
   134   68  144 1    
   135   68  145 1    
   136   68  146 1    
   137   69   70 am   BACKBONE|DICT|INTERRES
   138   69  147 1    
   139   70   71 2    
   140   70   72 1    
   141   72   73 1    
   142   72   74 1    
   143   72  148 1    
   144   73  149 1    
   145   73  150 1    
   146   73  151 1    
   147   74   75 am   BACKBONE|DICT|INTERRES
   148   74  152 1    
   149   75   76 2    
   150   75   77 1    
   151   77   78 1    
   152   77   79 1    
   153   77  153 1    
   154   78  154 1    
   155   78  155 1    
   156   78  156 1    
   157   79   80 am   BACKBONE|DICT|INTERRES
   158   79  157 1    
   159   80   81 2    
@<TRIPOS>SUBSTRUCTURE
     1 UNK         1 GROUP             0       ****    0 ROOT    
