@<TRIPOS>MOLECULE
3R207
157   159    1
SMALL
USER_CHARGES


@<TRIPOS>ATOM
      1 CA        -48.2408  -31.4562    9.2457 C.3       0 UNK        -0.1975 
      2 C         -48.4724  -31.2762    7.7527 C.2       0 UNK         0.4852 
      3 O         -47.6479  -31.7092    6.9471 O.2       0 UNK        -0.5216 
      4 N         -49.5914  -30.6413    7.3823 N.am      1 UNK        -0.4461 
      5 CA        -49.9794  -30.3130    6.0033 C.3       1 UNK         0.0864 
      6 C6        -51.4562  -29.8429    5.9284 C.3       14 UNK        -0.0898 
      7 S7        -51.8253  -28.5112    7.1193 S.3       14 UNK        -0.2598 
      8 C8        -53.4060  -27.8639    6.5078 C.3       14 UNK         0.0286 
      9 C9        -53.8298  -26.7072    7.3943 C.ar      14 UNK        -0.0844 
     10 C10       -53.3010  -25.4345    7.1746 C.ar      14 UNK        -0.0881 
     11 C11       -53.5724  -24.3883    8.0607 C.ar      14 UNK        -0.0643 
     12 C12       -54.4128  -24.6135    9.1547 C.ar      14 UNK        -0.0930 
     13 C13       -54.9638  -25.8807    9.3720 C.ar      14 UNK        -0.0827 
     14 C14       -54.6768  -26.9217    8.4835 C.ar      14 UNK        -0.1249 
     15 C15       -55.8350  -26.1391   10.5910 C.3       14 UNK         0.0141 
     16 S16       -54.8646  -26.1753   12.1334 S.3       14 UNK        -0.2313 
     17 C17       -53.6219  -27.4754   11.8041 C.3       14 UNK        -0.0915 
     18 CA        -54.2030  -28.9109   11.6751 C.3       13 UNK         0.0968 
     19 C         -53.0760  -29.9552   11.4161 C.2       13 UNK         0.5732 
     20 N         -52.8575  -30.9459   12.2744 N.am      13 UNK        -0.7310 
     21 O         -52.3878  -29.8760   10.4033 O.2       13 UNK        -0.5035 
     22 N         -55.0882  -29.2561   12.7962 N.am      13 UNK        -0.4233 
     23 C         -56.0551  -30.1825   12.7380 C.2       13 UNK         0.4989 
     24 O         -56.3794  -30.7591   11.6980 O.2       13 UNK        -0.4996 
     25 CA        -56.7795  -30.5300   14.0581 C.3       12 UNK         0.0216 
     26 CB        -57.3892  -31.9486   14.0435 C.3       12 UNK        -0.1964 
     27 N         -55.9498  -30.3407   15.2565 N.am      12 UNK        -0.4276 
     28 C         -54.7627  -30.9088   15.5134 C.2       12 UNK         0.5020 
     29 O         -54.2041  -31.7239   14.7757 O.2       12 UNK        -0.5489 
     30 CA        -54.0389  -30.4195   16.7782 C.3       11 UNK         0.0294 
     31 CB        -53.6942  -31.5964   17.7062 C.3       11 UNK        -0.2019 
     32 N         -52.8142  -29.6837   16.4486 N.am      11 UNK        -0.4493 
     33 C         -52.7460  -28.5924   15.6727 C.2       11 UNK         0.4932 
     34 O         -53.7216  -28.0778   15.1206 O.2       11 UNK        -0.5029 
     35 CA        -51.3407  -27.9973   15.4721 C.3       10 UNK         0.0280 
     36 CB        -50.5893  -28.7216   14.3422 C.3       10 UNK        -0.1976 
     37 N         -51.3568  -26.5592   15.1933 N.am      10 UNK        -0.4242 
     38 C         -51.8097  -25.6136   16.0294 C.2       10 UNK         0.5072 
     39 O         -52.3055  -25.8419   17.1358 O.2       10 UNK        -0.5224 
     40 CA        -51.5869  -24.1635   15.5615 C.3       9 UNK         0.0343 
     41 CB        -52.1633  -23.1069   16.5276 C.3       9 UNK        -0.2003 
     42 N         -50.1645  -23.9186   15.2968 N.am      9 UNK        -0.4272 
     43 C         -49.1389  -24.0463   16.1558 C.2       9 UNK         0.4988 
     44 O         -49.2645  -24.2688   17.3605 O.2       9 UNK        -0.5108 
     45 CA        -47.7185  -23.9467   15.5734 C.3       8 UNK         0.0248 
     46 CB        -47.1230  -25.3547   15.4067 C.3       8 UNK        -0.2001 
     47 N         -47.6635  -23.2430   14.2897 N.am      8 UNK        -0.4140 
     48 C         -47.7976  -21.9161   14.1553 C.2       8 UNK         0.5028 
     49 O         -47.9257  -21.1397   15.1031 O.2       8 UNK        -0.5428 
     50 CA        -47.8108  -21.3601   12.7232 C.3       7 UNK         0.0264 
     51 CB        -46.3821  -21.2591   12.1652 C.3       7 UNK        -0.1988 
     52 N         -48.6403  -22.1409   11.8028 N.am      7 UNK        -0.4454 
     53 C         -49.9711  -22.2978   11.8962 C.2       7 UNK         0.5027 
     54 O         -50.6620  -21.8322   12.8020 O.2       7 UNK        -0.5083 
     55 CA        -50.6323  -23.1245   10.7766 C.3       6 UNK         0.0844 
     56 C56       -50.7107  -22.2630    9.4842 C.3       14 UNK        -0.0967 
     57 S57       -51.1074  -23.1730    7.9567 S.3       14 UNK        -0.2604 
     58 C58       -52.9198  -23.0336    7.8429 C.3       14 UNK         0.0134 
     59 N         -49.9305  -24.4000   10.6093 N.am      6 UNK        -0.4116 
     60 C         -49.8842  -25.3815   11.5247 C.2       5 UNK         0.5034 
     61 O         -50.5015  -25.3730   12.5914 O.2       5 UNK        -0.5045 
     62 CA        -48.9425  -26.5566   11.2246 C.3       5 UNK         0.0224 
     63 CB        -49.6707  -27.6436   10.4203 C.3       5 UNK        -0.1978 
     64 N         -47.7330  -26.1298   10.5150 N.am      5 UNK        -0.4737 
     65 C         -46.7541  -25.4042   11.0778 C.2       4 UNK         0.5027 
     66 O         -46.7660  -25.0450   12.2537 O.2       4 UNK        -0.5211 
     67 CA        -45.5867  -24.9623   10.1776 C.3       4 UNK         0.0297 
     68 CB        -44.4935  -26.0416   10.1513 C.3       4 UNK        -0.1993 
     69 N         -45.9978  -24.6508    8.8083 N.am      4 UNK        -0.4486 
     70 C         -46.8841  -23.7045    8.4689 C.2       3 UNK         0.4961 
     71 O         -47.3876  -22.9216    9.2755 O.2       3 UNK        -0.5105 
     72 CA        -47.3187  -23.6525    6.9914 C.3       3 UNK         0.0299 
     73 CB        -46.5114  -22.5837    6.2386 C.3       3 UNK        -0.1972 
     74 N         -47.2303  -24.9308    6.2675 N.am      3 UNK        -0.4305 
     75 C         -47.8105  -26.0833    6.6346 C.2       2 UNK         0.5006 
     76 O         -48.4463  -26.2315    7.6813 O.2       2 UNK        -0.5106 
     77 CA        -47.5987  -27.2832    5.7040 C.3       2 UNK         0.0296 
     78 CB        -46.1455  -27.7900    5.7685 C.3       2 UNK        -0.2002 
     79 N         -48.5038  -28.3503    6.1162 N.am      2 UNK        -0.4032 
     80 C         -49.0255  -29.2988    5.3301 C.2       1 UNK         0.5000 
     81 O         -48.7793  -29.4034    4.1265 O.2       1 UNK        -0.5238 
     82 H82       -49.0873  -31.1023    9.8347 H         1 UNK         0.0889 
     83 H83       -47.3547  -30.9033    9.5569 H         1 UNK         0.0889 
     84 H84       -48.0853  -32.5095    9.4775 H         1 UNK         0.0889 
     85 H85       -50.2368  -30.3128    8.0890 H         1 UNK         0.3028 
     86 H86       -49.9007  -31.2354    5.4237 H         1 UNK         0.0864 
     87 H87       -51.7134  -29.5163    4.9187 H         1 UNK         0.0720 
     88 H88       -52.1185  -30.6814    6.1496 H         1 UNK         0.0720 
     89 H89       -53.2991  -27.5322    5.4739 H         1 UNK         0.0814 
     90 H90       -54.1577  -28.6547    6.5144 H         1 UNK         0.0814 
     91 H91       -52.6271  -25.2705    6.3446 H         1 UNK         0.1469 
     92 H92       -54.6174  -23.8143    9.8539 H         1 UNK         0.1381 
     93 H93       -55.0760  -27.9105    8.6609 H         1 UNK         0.1206 
     94 H94       -56.5901  -25.3557   10.6680 H         1 UNK         0.0813 
     95 H95       -56.3820  -27.0773   10.4880 H         1 UNK         0.0813 
     96 H96       -52.9018  -27.4320   12.6204 H         1 UNK         0.0638 
     97 H97       -53.0623  -27.2036   10.9072 H         1 UNK         0.0638 
     98 H98       -54.8110  -28.9247   10.7705 H         1 UNK         0.0568 
     99 H99       -53.4252  -31.0689   13.1073 H         1 UNK         0.3450 
    100 H100      -52.1289  -31.6096   12.0702 H         1 UNK         0.3450 
    101 H101      -54.8472  -28.8304   13.6863 H         1 UNK         0.2987 
    102 H102      -57.6022  -29.8183   14.1413 H         1 UNK         0.0766 
    103 H103      -58.1150  -32.0571   13.2365 H         1 UNK         0.0798 
    104 H104      -57.9106  -32.1665   14.9755 H         1 UNK         0.0798 
    105 H105      -56.6259  -32.7141   13.8993 H         1 UNK         0.0798 
    106 H106      -56.2892  -29.6463   15.9089 H         1 UNK         0.3198 
    107 H107      -54.6951  -29.7385   17.3244 H         1 UNK         0.0843 
    108 H108      -54.5911  -32.1570   17.9731 H         1 UNK         0.0831 
    109 H109      -53.2406  -31.2520   18.6359 H         1 UNK         0.0831 
    110 H110      -53.0035  -32.2958   17.2330 H         1 UNK         0.0831 
    111 H111      -51.9563  -30.0543   16.8310 H         1 UNK         0.3133 
    112 H112      -50.7810  -28.1372   16.3992 H         1 UNK         0.0566 
    113 H113      -49.5602  -28.3708   14.2634 H         1 UNK         0.0814 
    114 H114      -50.5501  -29.7971   14.5202 H         1 UNK         0.0814 
    115 H115      -51.0662  -28.5733   13.3746 H         1 UNK         0.0814 
    116 H116      -51.0020  -26.2578   14.2901 H         1 UNK         0.3091 
    117 H117      -52.1047  -24.0573   14.6065 H         1 UNK         0.0702 
    118 H118      -51.7100  -23.1664   17.5174 H         1 UNK         0.0785 
    119 H119      -53.2378  -23.2433   16.6540 H         1 UNK         0.0785 
    120 H120      -52.0056  -22.0979   16.1465 H         1 UNK         0.0785 
    121 H121      -49.9391  -23.7473   14.3259 H         1 UNK         0.2998 
    122 H122      -47.1040  -23.3998   16.2917 H         1 UNK         0.0697 
    123 H123      -47.7045  -25.9571   14.7071 H         1 UNK         0.0825 
    124 H124      -47.1044  -25.8876   16.3583 H         1 UNK         0.0825 
    125 H125      -46.0976  -25.3117   15.0391 H         1 UNK         0.0825 
    126 H126      -47.4906  -23.8144   13.4642 H         1 UNK         0.3029 
    127 H127      -48.2307  -20.3529   12.7661 H         1 UNK         0.0897 
    128 H128      -46.3737  -20.8027   11.1750 H         1 UNK         0.0792 
    129 H129      -45.7529  -20.6454   12.8112 H         1 UNK         0.0792 
    130 H130      -45.9104  -22.2389   12.0849 H         1 UNK         0.0792 
    131 H131      -48.1661  -22.5369   10.9936 H         1 UNK         0.3086 
    132 H132      -51.6533  -23.3595   11.0855 H         1 UNK         0.0583 
    133 H133      -51.4271  -21.4508    9.6195 H         1 UNK         0.1020 
    134 H134      -49.7577  -21.7678    9.2884 H         1 UNK         0.1020 
    135 H135      -53.2979  -22.2969    8.5528 H         1 UNK         0.0694 
    136 H136      -53.1835  -22.6676    6.8497 H         1 UNK         0.0694 
    137 H137      -49.3942  -24.5058    9.7596 H         1 UNK         0.2989 
    138 H138      -48.6374  -26.9874   12.1809 H         1 UNK         0.1055 
    139 H139      -50.5133  -28.0394   10.9867 H         1 UNK         0.0806 
    140 H140      -49.0124  -28.4808   10.1901 H         1 UNK         0.0806 
    141 H141      -50.0707  -27.2588    9.4815 H         1 UNK         0.0806 
    142 H142      -47.7071  -26.3091    9.5155 H         1 UNK         0.3061 
    143 H143      -45.1614  -24.0543   10.6093 H         1 UNK         0.0734 
    144 H144      -44.1555  -26.2768   11.1617 H         1 UNK         0.0832 
    145 H145      -44.8511  -26.9699    9.7036 H         1 UNK         0.0832 
    146 H146      -43.6202  -25.7103    9.5892 H         1 UNK         0.0832 
    147 H147      -45.6359  -25.2433    8.0761 H         1 UNK         0.3156 
    148 H148      -48.3666  -23.3519    6.9783 H         1 UNK         0.0589 
    149 H149      -45.4539  -22.8440    6.1777 H         1 UNK         0.0808 
    150 H150      -46.8841  -22.4444    5.2236 H         1 UNK         0.0808 
    151 H151      -46.5806  -21.6173    6.7406 H         1 UNK         0.0808 
    152 H152      -46.7152  -24.9128    5.3986 H         1 UNK         0.3098 
    153 H153      -47.8411  -26.9722    4.6856 H         1 UNK         0.0720 
    154 H154      -45.9987  -28.6513    5.1163 H         1 UNK         0.0791 
    155 H155      -45.8693  -28.0901    6.7803 H         1 UNK         0.0791 
    156 H156      -45.4402  -27.0224    5.4484 H         1 UNK         0.0791 
    157 H157      -48.8290  -28.2711    7.0721 H         1 UNK         0.3028 
@<TRIPOS>BOND
     1    1    2 1    
     2    1   82 1    
     3    1   83 1    
     4    1   84 1    
     5    2    3 2    
     6    2    4 am   BACKBONE|DICT|INTERRES
     7    4    5 1    
     8    4   85 1    
     9    5    6 1    
    10    5   80 1    
    11    5   86 1    
    12    6    7 1    
    13    6   87 1    
    14    6   88 1    
    15    7    8 1    
    16    8    9 1    
    17    8   89 1    
    18    8   90 1    
    19    9   10 ar   
    20    9   14 ar   
    21   10   11 ar   
    22   10   91 1    
    23   11   12 ar   
    24   11   58 1    
    25   12   13 ar   
    26   12   92 1    
    27   13   14 ar   
    28   13   15 1    
    29   14   93 1    
    30   15   16 1    
    31   15   94 1    
    32   15   95 1    
    33   16   17 1    
    34   17   18 1    
    35   17   96 1    
    36   17   97 1    
    37   18   19 1    
    38   18   22 1    
    39   18   98 1    
    40   19   20 am   BACKBONE|DICT|INTERRES
    41   19   21 2    
    42   20   99 1    
    43   20  100 1    
    44   22   23 am   BACKBONE|DICT|INTERRES
    45   22  101 1    
    46   23   24 2    
    47   23   25 1    
    48   25   26 1    
    49   25   27 1    
    50   25  102 1    
    51   26  103 1    
    52   26  104 1    
    53   26  105 1    
    54   27   28 am   BACKBONE|DICT|INTERRES
    55   27  106 1    
    56   28   29 2    
    57   28   30 1    
    58   30   31 1    
    59   30   32 1    
    60   30  107 1    
    61   31  108 1    
    62   31  109 1    
    63   31  110 1    
    64   32   33 am   BACKBONE|DICT|INTERRES
    65   32  111 1    
    66   33   34 2    
    67   33   35 1    
    68   35   36 1    
    69   35   37 1    
    70   35  112 1    
    71   36  113 1    
    72   36  114 1    
    73   36  115 1    
    74   37   38 am   BACKBONE|DICT|INTERRES
    75   37  116 1    
    76   38   39 2    
    77   38   40 1    
    78   40   41 1    
    79   40   42 1    
    80   40  117 1    
    81   41  118 1    
    82   41  119 1    
    83   41  120 1    
    84   42   43 am   BACKBONE|DICT|INTERRES
    85   42  121 1    
    86   43   44 2    
    87   43   45 1    
    88   45   46 1    
    89   45   47 1    
    90   45  122 1    
    91   46  123 1    
    92   46  124 1    
    93   46  125 1    
    94   47   48 am   BACKBONE|DICT|INTERRES
    95   47  126 1    
    96   48   49 2    
    97   48   50 1    
    98   50   51 1    
    99   50   52 1    
   100   50  127 1    
   101   51  128 1    
   102   51  129 1    
   103   51  130 1    
   104   52   53 am   BACKBONE|DICT|INTERRES
   105   52  131 1    
   106   53   54 2    
   107   53   55 1    
   108   55   56 1    
   109   55   59 1    
   110   55  132 1    
   111   56   57 1    
   112   56  133 1    
   113   56  134 1    
   114   57   58 1    
   115   58  135 1    
   116   58  136 1    
   117   59   60 am   BACKBONE|DICT|INTERRES
   118   59  137 1    
   119   60   61 2    
   120   60   62 1    
   121   62   63 1    
   122   62   64 1    
   123   62  138 1    
   124   63  139 1    
   125   63  140 1    
   126   63  141 1    
   127   64   65 am   BACKBONE|DICT|INTERRES
   128   64  142 1    
   129   65   66 2    
   130   65   67 1    
   131   67   68 1    
   132   67   69 1    
   133   67  143 1    
   134   68  144 1    
   135   68  145 1    
   136   68  146 1    
   137   69   70 am   BACKBONE|DICT|INTERRES
   138   69  147 1    
   139   70   71 2    
   140   70   72 1    
   141   72   73 1    
   142   72   74 1    
   143   72  148 1    
   144   73  149 1    
   145   73  150 1    
   146   73  151 1    
   147   74   75 am   BACKBONE|DICT|INTERRES
   148   74  152 1    
   149   75   76 2    
   150   75   77 1    
   151   77   78 1    
   152   77   79 1    
   153   77  153 1    
   154   78  154 1    
   155   78  155 1    
   156   78  156 1    
   157   79   80 am   BACKBONE|DICT|INTERRES
   158   79  157 1    
   159   80   81 2    
@<TRIPOS>SUBSTRUCTURE
     1 UNK         1 GROUP             0       ****    0 ROOT    
