@<TRIPOS>MOLECULE
3R207
157   159    1
SMALL
USER_CHARGES


@<TRIPOS>ATOM
      1 CA        -48.8525  -28.0818   -0.8769 C.3       0 UNK        -0.1975 
      2 C         -48.7184  -28.0807    0.6389 C.2       0 UNK         0.4852 
      3 O         -47.7242  -28.5858    1.1616 O.2       0 UNK        -0.5216 
      4 N         -49.7132  -27.5197    1.3415 N.am      1 UNK        -0.4461 
      5 CA        -49.7784  -27.3718    2.7989 C.3       1 UNK         0.0864 
      6 C6        -49.8702  -28.7346    3.5464 C.3       14 UNK        -0.0898 
      7 S7        -50.2699  -28.5658    5.3210 S.3       14 UNK        -0.2598 
      8 C8        -52.0864  -28.5798    5.2759 C.3       14 UNK         0.0286 
      9 C9        -52.6696  -28.4715    6.6762 C.ar      14 UNK        -0.0844 
     10 C10       -53.0270  -27.2253    7.2047 C.ar      14 UNK        -0.0881 
     11 C11       -53.5896  -27.1286    8.4830 C.ar      14 UNK        -0.0643 
     12 C12       -53.8003  -28.2965    9.2222 C.ar      14 UNK        -0.0930 
     13 C13       -53.4175  -29.5417    8.7193 C.ar      14 UNK        -0.0827 
     14 C14       -52.8583  -29.6255    7.4423 C.ar      14 UNK        -0.1249 
     15 C15       -53.5945  -30.7855    9.5723 C.3       14 UNK         0.0141 
     16 S16       -52.2260  -30.9323   10.7634 S.3       14 UNK        -0.2313 
     17 C17       -53.0329  -31.8414   12.1273 C.3       14 UNK        -0.0915 
     18 CA        -53.4478  -30.9325   13.3183 C.3       13 UNK         0.0968 
     19 C         -52.2219  -30.3991   14.1203 C.2       13 UNK         0.5732 
     20 N         -52.1054  -29.1036   14.3850 N.am      13 UNK        -0.7310 
     21 O         -51.3590  -31.1797   14.5147 O.2       13 UNK        -0.5035 
     22 N         -54.3741  -29.8791   12.8802 N.am      13 UNK        -0.4233 
     23 C         -55.3561  -29.3570   13.6193 C.2       13 UNK         0.4989 
     24 O         -55.7094  -29.7908   14.7181 O.2       13 UNK        -0.4996 
     25 CA        -56.0623  -28.1273   13.0213 C.3       12 UNK         0.0216 
     26 CB        -57.4672  -28.4945   12.5173 C.3       12 UNK        -0.1964 
     27 N         -56.1550  -27.0246   13.9815 N.am      12 UNK        -0.4276 
     28 C         -55.1022  -26.4310   14.5588 C.2       12 UNK         0.5020 
     29 O         -53.9286  -26.7422   14.3354 O.2       12 UNK        -0.5489 
     30 CA        -55.4119  -25.3239   15.5726 C.3       11 UNK         0.0294 
     31 CB        -55.8665  -25.9341   16.9139 C.3       11 UNK        -0.2019 
     32 N         -54.1989  -24.5364   15.7614 N.am      11 UNK        -0.4493 
     33 C         -54.0889  -23.3631   16.3952 C.2       11 UNK         0.4932 
     34 O         -55.0489  -22.7404   16.8532 O.2       11 UNK        -0.5029 
     35 CA        -52.6582  -22.8058   16.5486 C.3       10 UNK         0.0280 
     36 CB        -52.5357  -21.7153   17.6340 C.3       10 UNK        -0.1976 
     37 N         -51.6740  -23.8770   16.7462 N.am      10 UNK        -0.4242 
     38 C         -51.6029  -24.7419   17.7705 C.2       10 UNK         0.5072 
     39 O         -52.2810  -24.6631   18.7958 O.2       10 UNK        -0.5224 
     40 CA        -50.6400  -25.9302   17.6092 C.3       9 UNK         0.0343 
     41 CB        -51.4023  -27.1439   17.0588 C.3       9 UNK        -0.2003 
     42 N         -49.5027  -25.6385   16.7331 N.am      9 UNK        -0.4272 
     43 C         -48.4476  -24.9002   17.1054 C.2       9 UNK         0.4988 
     44 O         -48.3067  -24.4243   18.2329 O.2       9 UNK        -0.5108 
     45 CA        -47.3672  -24.6423   16.0429 C.3       8 UNK         0.0248 
     46 CB        -46.4663  -25.8764   15.8756 C.3       8 UNK        -0.2001 
     47 N         -47.9198  -24.2444   14.7452 N.am      8 UNK        -0.4140 
     48 C         -48.6027  -23.1101   14.5267 C.2       8 UNK         0.5028 
     49 O         -48.8217  -22.2621   15.3922 O.2       8 UNK        -0.5428 
     50 CA        -49.1475  -22.8799   13.1078 C.3       7 UNK         0.0264 
     51 CB        -48.0536  -22.3104   12.1904 C.3       7 UNK        -0.1988 
     52 N         -49.7081  -24.0868   12.5014 N.am      7 UNK        -0.4454 
     53 C         -50.7857  -24.7483   12.9490 C.2       7 UNK         0.5027 
     54 O         -51.4419  -24.4074   13.9331 O.2       7 UNK        -0.5083 
     55 CA        -51.1479  -26.0399   12.1907 C.3       6 UNK         0.0844 
     56 C56       -51.7552  -25.7384   10.7941 C.3       14 UNK        -0.0967 
     57 S57       -53.5661  -25.5516   10.8248 S.3       14 UNK        -0.2604 
     58 C58       -53.9716  -25.7625    9.0527 C.3       14 UNK         0.0134 
     59 N         -49.9900  -26.9283   12.0891 N.am      6 UNK        -0.4116 
     60 C         -49.3064  -27.4602   13.1121 C.2       5 UNK         0.5034 
     61 O         -49.5883  -27.3050   14.3009 O.2       5 UNK        -0.5045 
     62 CA        -48.0610  -28.2747   12.7285 C.3       5 UNK         0.0224 
     63 CB        -48.4482  -29.7276   12.4090 C.3       5 UNK        -0.1978 
     64 N         -47.3398  -27.6922   11.5903 N.am      5 UNK        -0.4737 
     65 C         -46.7294  -26.4982   11.6188 C.2       4 UNK         0.5027 
     66 O         -46.6757  -25.7799   12.6159 O.2       4 UNK        -0.5211 
     67 CA        -46.1327  -25.9989   10.2943 C.3       4 UNK         0.0297 
     68 CB        -44.8081  -26.7137    9.9826 C.3       4 UNK        -0.1993 
     69 N         -47.0528  -26.1407    9.1614 N.am      4 UNK        -0.4486 
     70 C         -48.2357  -25.5177    9.0519 C.2       3 UNK         0.4961 
     71 O         -48.7076  -24.8064    9.9391 O.2       3 UNK        -0.5105 
     72 CA        -49.0449  -25.7468    7.7585 C.3       3 UNK         0.0299 
     73 CB        -49.9220  -24.5328    7.3868 C.3       3 UNK        -0.1972 
     74 N         -48.2458  -26.1696    6.6009 N.am      3 UNK        -0.4305 
     75 C         -47.2493  -25.5021    5.9932 C.2       2 UNK         0.5006 
     76 O         -46.7941  -24.4268    6.3824 O.2       2 UNK        -0.5106 
     77 CA        -46.6613  -26.1519    4.7266 C.3       2 UNK         0.0296 
     78 CB        -45.4671  -27.0505    5.0877 C.3       2 UNK        -0.2002 
     79 N         -47.6579  -26.9365    3.9925 N.am      2 UNK        -0.4032 
     80 C         -48.6786  -26.4090    3.3006 C.2       1 UNK         0.5000 
     81 O         -48.7953  -25.2031    3.0706 O.2       1 UNK        -0.5238 
     82 H82       -48.0203  -27.5413   -1.3271 H         1 UNK         0.0889 
     83 H83       -49.7794  -27.6122   -1.2058 H         1 UNK         0.0889 
     84 H84       -48.8387  -29.1042   -1.2535 H         1 UNK         0.0889 
     85 H85       -50.4834  -27.0999    0.8389 H         1 UNK         0.3028 
     86 H86       -50.7188  -26.8504    2.9847 H         1 UNK         0.0864 
     87 H87       -50.6360  -29.3566    3.0803 H         1 UNK         0.0720 
     88 H88       -48.9440  -29.3033    3.4523 H         1 UNK         0.0720 
     89 H89       -52.4325  -29.4993    4.8009 H         1 UNK         0.0814 
     90 H90       -52.4435  -27.7577    4.6539 H         1 UNK         0.0814 
     91 H91       -52.8686  -26.3308    6.6179 H         1 UNK         0.1469 
     92 H92       -54.2395  -28.2319   10.2056 H         1 UNK         0.1381 
     93 H93       -52.5634  -30.5876    7.0456 H         1 UNK         0.1206 
     94 H94       -54.5519  -30.7332   10.0927 H         1 UNK         0.0813 
     95 H95       -53.6307  -31.6822    8.9518 H         1 UNK         0.0813 
     96 H96       -53.9086  -32.3661   11.7427 H         1 UNK         0.0638 
     97 H97       -52.3536  -32.6272   12.4624 H         1 UNK         0.0638 
     98 H98       -53.9811  -31.5735   14.0223 H         1 UNK         0.0568 
     99 H99       -52.8314  -28.4387   14.1425 H         1 UNK         0.3450 
    100 H100      -51.2784  -28.7732   14.8578 H         1 UNK         0.3450 
    101 H101      -54.1248  -29.4365   12.0100 H         1 UNK         0.2987 
    102 H102      -55.4810  -27.7613   12.1731 H         1 UNK         0.0766 
    103 H103      -57.9525  -27.6449   12.0365 H         1 UNK         0.0798 
    104 H104      -58.1109  -28.8357   13.3293 H         1 UNK         0.0798 
    105 H105      -57.4195  -29.2976   11.7804 H         1 UNK         0.0798 
    106 H106      -57.0843  -26.7350   14.2493 H         1 UNK         0.3198 
    107 H107      -56.1940  -24.6793   15.1664 H         1 UNK         0.0843 
    108 H108      -55.0868  -26.5594   17.3514 H         1 UNK         0.0831 
    109 H109      -56.7516  -26.5581   16.7859 H         1 UNK         0.0831 
    110 H110      -56.1219  -25.1633   17.6409 H         1 UNK         0.0831 
    111 H111      -53.3753  -24.9578   15.3410 H         1 UNK         0.3133 
    112 H112      -52.4088  -22.3439   15.5924 H         1 UNK         0.0566 
    113 H113      -51.5103  -21.3550   17.7179 H         1 UNK         0.0814 
    114 H114      -53.1627  -20.8558   17.3941 H         1 UNK         0.0814 
    115 H115      -52.8466  -22.0782   18.6139 H         1 UNK         0.0814 
    116 H116      -51.1163  -24.0822   15.9236 H         1 UNK         0.3091 
    117 H117      -50.2596  -26.1889   18.5997 H         1 UNK         0.0702 
    118 H118      -52.2350  -27.4143   17.7094 H         1 UNK         0.0785 
    119 H119      -50.7554  -28.0173   16.9763 H         1 UNK         0.0785 
    120 H120      -51.8164  -26.9333   16.0724 H         1 UNK         0.0785 
    121 H121      -49.5259  -26.0418   15.7997 H         1 UNK         0.2998 
    122 H122      -46.7448  -23.8188   16.3994 H         1 UNK         0.0697 
    123 H123      -47.0201  -26.7304   15.4851 H         1 UNK         0.0825 
    124 H124      -46.0330  -26.1768   16.8305 H         1 UNK         0.0825 
    125 H125      -45.6394  -25.6741   15.1947 H         1 UNK         0.0825 
    126 H126      -47.7185  -24.8547   13.9568 H         1 UNK         0.3029 
    127 H127      -49.9513  -22.1441   13.1796 H         1 UNK         0.0897 
    128 H128      -48.4519  -22.0635   11.2059 H         1 UNK         0.0792 
    129 H129      -47.2363  -23.0192   12.0496 H         1 UNK         0.0792 
    130 H130      -47.6283  -21.3969   12.6080 H         1 UNK         0.0792 
    131 H131      -49.2449  -24.4266   11.6595 H         1 UNK         0.3086 
    132 H132      -51.8837  -26.5810   12.7861 H         1 UNK         0.0583 
    133 H133      -51.3222  -24.8461   10.3407 H         1 UNK         0.1020 
    134 H134      -51.5223  -26.5543   10.1090 H         1 UNK         0.1020 
    135 H135      -55.0449  -25.6200    8.9216 H         1 UNK         0.0694 
    136 H136      -53.4820  -24.9649    8.4916 H         1 UNK         0.0694 
    137 H137      -49.6352  -27.0946   11.1609 H         1 UNK         0.2989 
    138 H138      -47.3899  -28.2780   13.5900 H         1 UNK         0.1055 
    139 H139      -48.9660  -30.1857   13.2532 H         1 UNK         0.0806 
    140 H140      -47.5688  -30.3376   12.2018 H         1 UNK         0.0806 
    141 H141      -49.1149  -29.7930   11.5480 H         1 UNK         0.0806 
    142 H142      -47.3313  -28.2186   10.7285 H         1 UNK         0.3061 
    143 H143      -45.9220  -24.9337   10.4130 H         1 UNK         0.0734 
    144 H144      -44.3287  -26.2919    9.0989 H         1 UNK         0.0832 
    145 H145      -44.1055  -26.6081   10.8105 H         1 UNK         0.0832 
    146 H146      -44.9501  -27.7812    9.8106 H         1 UNK         0.0832 
    147 H147      -46.7430  -26.7083    8.3868 H         1 UNK         0.3156 
    148 H148      -49.7179  -26.5779    7.9747 H         1 UNK         0.0589 
    149 H149      -49.3209  -23.6392    7.2162 H         1 UNK         0.0808 
    150 H150      -50.5005  -24.7254    6.4832 H         1 UNK         0.0808 
    151 H151      -50.6338  -24.2972    8.1773 H         1 UNK         0.0808 
    152 H152      -48.5352  -27.0469    6.1878 H         1 UNK         0.3098 
    153 H153      -46.3040  -25.3511    4.0755 H         1 UNK         0.0720 
    154 H154      -44.9986  -27.4631    4.1939 H         1 UNK         0.0791 
    155 H155      -45.7624  -27.8836    5.7267 H         1 UNK         0.0791 
    156 H156      -44.7012  -26.4852    5.6210 H         1 UNK         0.0791 
    157 H157      -47.6153  -27.9411    4.0878 H         1 UNK         0.3028 
@<TRIPOS>BOND
     1    1    2 1    
     2    1   82 1    
     3    1   83 1    
     4    1   84 1    
     5    2    3 2    
     6    2    4 am   BACKBONE|DICT|INTERRES
     7    4    5 1    
     8    4   85 1    
     9    5    6 1    
    10    5   80 1    
    11    5   86 1    
    12    6    7 1    
    13    6   87 1    
    14    6   88 1    
    15    7    8 1    
    16    8    9 1    
    17    8   89 1    
    18    8   90 1    
    19    9   10 ar   
    20    9   14 ar   
    21   10   11 ar   
    22   10   91 1    
    23   11   12 ar   
    24   11   58 1    
    25   12   13 ar   
    26   12   92 1    
    27   13   14 ar   
    28   13   15 1    
    29   14   93 1    
    30   15   16 1    
    31   15   94 1    
    32   15   95 1    
    33   16   17 1    
    34   17   18 1    
    35   17   96 1    
    36   17   97 1    
    37   18   19 1    
    38   18   22 1    
    39   18   98 1    
    40   19   20 am   BACKBONE|DICT|INTERRES
    41   19   21 2    
    42   20   99 1    
    43   20  100 1    
    44   22   23 am   BACKBONE|DICT|INTERRES
    45   22  101 1    
    46   23   24 2    
    47   23   25 1    
    48   25   26 1    
    49   25   27 1    
    50   25  102 1    
    51   26  103 1    
    52   26  104 1    
    53   26  105 1    
    54   27   28 am   BACKBONE|DICT|INTERRES
    55   27  106 1    
    56   28   29 2    
    57   28   30 1    
    58   30   31 1    
    59   30   32 1    
    60   30  107 1    
    61   31  108 1    
    62   31  109 1    
    63   31  110 1    
    64   32   33 am   BACKBONE|DICT|INTERRES
    65   32  111 1    
    66   33   34 2    
    67   33   35 1    
    68   35   36 1    
    69   35   37 1    
    70   35  112 1    
    71   36  113 1    
    72   36  114 1    
    73   36  115 1    
    74   37   38 am   BACKBONE|DICT|INTERRES
    75   37  116 1    
    76   38   39 2    
    77   38   40 1    
    78   40   41 1    
    79   40   42 1    
    80   40  117 1    
    81   41  118 1    
    82   41  119 1    
    83   41  120 1    
    84   42   43 am   BACKBONE|DICT|INTERRES
    85   42  121 1    
    86   43   44 2    
    87   43   45 1    
    88   45   46 1    
    89   45   47 1    
    90   45  122 1    
    91   46  123 1    
    92   46  124 1    
    93   46  125 1    
    94   47   48 am   BACKBONE|DICT|INTERRES
    95   47  126 1    
    96   48   49 2    
    97   48   50 1    
    98   50   51 1    
    99   50   52 1    
   100   50  127 1    
   101   51  128 1    
   102   51  129 1    
   103   51  130 1    
   104   52   53 am   BACKBONE|DICT|INTERRES
   105   52  131 1    
   106   53   54 2    
   107   53   55 1    
   108   55   56 1    
   109   55   59 1    
   110   55  132 1    
   111   56   57 1    
   112   56  133 1    
   113   56  134 1    
   114   57   58 1    
   115   58  135 1    
   116   58  136 1    
   117   59   60 am   BACKBONE|DICT|INTERRES
   118   59  137 1    
   119   60   61 2    
   120   60   62 1    
   121   62   63 1    
   122   62   64 1    
   123   62  138 1    
   124   63  139 1    
   125   63  140 1    
   126   63  141 1    
   127   64   65 am   BACKBONE|DICT|INTERRES
   128   64  142 1    
   129   65   66 2    
   130   65   67 1    
   131   67   68 1    
   132   67   69 1    
   133   67  143 1    
   134   68  144 1    
   135   68  145 1    
   136   68  146 1    
   137   69   70 am   BACKBONE|DICT|INTERRES
   138   69  147 1    
   139   70   71 2    
   140   70   72 1    
   141   72   73 1    
   142   72   74 1    
   143   72  148 1    
   144   73  149 1    
   145   73  150 1    
   146   73  151 1    
   147   74   75 am   BACKBONE|DICT|INTERRES
   148   74  152 1    
   149   75   76 2    
   150   75   77 1    
   151   77   78 1    
   152   77   79 1    
   153   77  153 1    
   154   78  154 1    
   155   78  155 1    
   156   78  156 1    
   157   79   80 am   BACKBONE|DICT|INTERRES
   158   79  157 1    
   159   80   81 2    
@<TRIPOS>SUBSTRUCTURE
     1 UNK         1 GROUP             0       ****    0 ROOT    
