@<TRIPOS>MOLECULE
3R207
157   159    1
SMALL
USER_CHARGES


@<TRIPOS>ATOM
      1 CA        -46.2451  -30.0798   10.5490 C.3       0 UNK        -0.1975 
      2 C         -46.4791  -30.3022    9.0625 C.2       0 UNK         0.4852 
      3 O         -46.4158  -31.4394    8.5936 O.2       0 UNK        -0.5216 
      4 N         -46.7402  -29.2218    8.3225 N.am      1 UNK        -0.4461 
      5 CA        -47.0384  -29.2209    6.8904 C.3       1 UNK         0.0864 
      6 C6        -48.5556  -29.3895    6.5889 C.3       14 UNK        -0.0898 
      7 S7        -49.6720  -28.3460    7.5936 S.3       14 UNK        -0.2598 
      8 C8        -51.1808  -28.4125    6.5853 C.3       14 UNK         0.0286 
      9 C9        -52.3842  -27.8922    7.3562 C.ar      14 UNK        -0.0844 
     10 C10       -52.7703  -26.5515    7.2530 C.ar      14 UNK        -0.0881 
     11 C11       -53.9031  -26.0858    7.9292 C.ar      14 UNK        -0.0643 
     12 C12       -54.6333  -26.9690    8.7306 C.ar      14 UNK        -0.0930 
     13 C13       -54.2484  -28.3068    8.8561 C.ar      14 UNK        -0.0827 
     14 C14       -53.1283  -28.7648    8.1565 C.ar      14 UNK        -0.1249 
     15 C15       -55.0304  -29.2426    9.7688 C.3       14 UNK         0.0141 
     16 S16       -56.7291  -29.4966    9.1660 S.3       14 UNK        -0.2313 
     17 C17       -57.5469  -30.2529   10.6131 C.3       14 UNK        -0.0915 
     18 CA        -58.3402  -29.1971   11.4416 C.3       13 UNK         0.0968 
     19 C         -59.4851  -29.8022   12.3142 C.2       13 UNK         0.5732 
     20 N         -59.9124  -29.1369   13.3809 N.am      13 UNK        -0.7310 
     21 O         -60.0232  -30.8637   12.0070 O.2       13 UNK        -0.5035 
     22 N         -57.4345  -28.2630   12.1383 N.am      13 UNK        -0.4233 
     23 C         -56.6897  -28.5372   13.2198 C.2       13 UNK         0.4989 
     24 O         -56.7792  -29.5741   13.8816 O.2       13 UNK        -0.4996 
     25 CA        -55.6846  -27.4411   13.6258 C.3       12 UNK         0.0216 
     26 CB        -56.4055  -26.2546   14.2889 C.3       12 UNK        -0.1964 
     27 N         -54.6203  -27.9049   14.5231 N.am      12 UNK        -0.4276 
     28 C         -53.7209  -28.8608   14.2493 C.2       12 UNK         0.5020 
     29 O         -53.6902  -29.4983   13.1957 O.2       12 UNK        -0.5489 
     30 CA        -52.6357  -29.0767   15.3148 C.3       11 UNK         0.0294 
     31 CB        -51.7136  -30.2788   15.0235 C.3       11 UNK        -0.2019 
     32 N         -51.8507  -27.8484   15.4295 N.am      11 UNK        -0.4493 
     33 C         -51.1678  -27.4546   16.5073 C.2       11 UNK         0.4932 
     34 O         -51.0954  -28.1162   17.5453 O.2       11 UNK        -0.5029 
     35 CA        -50.4692  -26.0802   16.4086 C.3       10 UNK         0.0280 
     36 CB        -49.8271  -25.6495   17.7437 C.3       10 UNK        -0.1976 
     37 N         -49.4773  -25.9567   15.3292 N.am      10 UNK        -0.4242 
     38 C         -48.4453  -26.7760   15.0626 C.2       10 UNK         0.5072 
     39 O         -48.2680  -27.8611   15.6173 O.2       10 UNK        -0.5224 
     40 CA        -47.3821  -26.2979   14.0503 C.3       9 UNK         0.0343 
     41 CB        -47.2504  -27.2158   12.8221 C.3       9 UNK        -0.2003 
     42 N         -47.5350  -24.8992   13.6285 N.am      9 UNK        -0.4272 
     43 C         -47.0101  -23.8704   14.3104 C.2       9 UNK         0.4988 
     44 O         -46.3492  -24.0022   15.3418 O.2       9 UNK        -0.5108 
     45 CA        -47.2367  -22.4485   13.7660 C.3       8 UNK         0.0248 
     46 CB        -46.1400  -22.0897   12.7492 C.3       8 UNK        -0.2001 
     47 N         -48.5455  -22.1741   13.1661 N.am      8 UNK        -0.4140 
     48 C         -49.7525  -22.4279   13.6897 C.2       8 UNK         0.5028 
     49 O         -49.9383  -23.0765   14.7199 O.2       8 UNK        -0.5428 
     50 CA        -50.9658  -21.8545   12.9437 C.3       7 UNK         0.0264 
     51 CB        -50.6238  -20.8082   11.8613 C.3       7 UNK        -0.1988 
     52 N         -51.7044  -22.9541   12.3348 N.am      7 UNK        -0.4454 
     53 C         -53.0359  -23.1021   12.3785 C.2       7 UNK         0.5027 
     54 O         -53.7847  -22.3061   12.9487 O.2       7 UNK        -0.5083 
     55 CA        -53.6663  -24.3255   11.6687 C.3       6 UNK         0.0844 
     56 C56       -54.5604  -23.8877   10.4796 C.3       14 UNK        -0.0967 
     57 S57       -53.6271  -23.5012    8.9537 S.3       14 UNK        -0.2604 
     58 C58       -54.3690  -24.6464    7.7470 C.3       14 UNK         0.0134 
     59 N         -52.6946  -25.3495   11.2743 N.am      6 UNK        -0.4116 
     60 C         -51.9911  -26.1101   12.1192 C.2       5 UNK         0.5034 
     61 O         -52.1606  -26.1086   13.3356 O.2       5 UNK        -0.5045 
     62 CA        -50.8467  -26.9438   11.5257 C.3       5 UNK         0.0224 
     63 CB        -51.2697  -28.3872   11.2382 C.3       5 UNK        -0.1978 
     64 N         -50.2678  -26.3521   10.3157 N.am      5 UNK        -0.4737 
     65 C         -49.5493  -25.2244   10.3125 C.2       4 UNK         0.5027 
     66 O         -49.3427  -24.5472   11.3214 O.2       4 UNK        -0.5211 
     67 CA        -48.9726  -24.7666    8.9670 C.3       4 UNK         0.0297 
     68 CB        -49.6883  -23.5017    8.4715 C.3       4 UNK        -0.1993 
     69 N         -47.5359  -24.5086    9.0641 N.am      4 UNK        -0.4486 
     70 C         -46.6200  -25.4556    9.2948 C.2       3 UNK         0.4961 
     71 O         -46.8811  -26.6483    9.4717 O.2       3 UNK        -0.5105 
     72 CA        -45.1495  -25.0238    9.2698 C.3       3 UNK         0.0299 
     73 CB        -44.4810  -25.2613   10.6343 C.3       3 UNK        -0.1972 
     74 N         -44.4939  -25.8418    8.2549 N.am      3 UNK        -0.4305 
     75 C         -44.4866  -25.5552    6.9461 C.2       2 UNK         0.5006 
     76 O         -44.7338  -24.4433    6.4780 O.2       2 UNK        -0.5106 
     77 CA        -44.2322  -26.7427    6.0033 C.3       2 UNK         0.0296 
     78 CB        -42.7425  -27.1234    5.9763 C.3       2 UNK        -0.2002 
     79 N         -45.0416  -27.9057    6.3877 N.am      2 UNK        -0.4032 
     80 C         -46.3769  -27.9831    6.2573 C.2       1 UNK         0.5000 
     81 O         -47.0588  -27.1227    5.6970 O.2       1 UNK        -0.5238 
     82 H82       -46.1224  -29.0225   10.7806 H         1 UNK         0.0889 
     83 H83       -45.3458  -30.6022   10.8733 H         1 UNK         0.0889 
     84 H84       -47.0896  -30.4597   11.1231 H         1 UNK         0.0889 
     85 H85       -46.8071  -28.3059    8.7698 H         1 UNK         0.3028 
     86 H86       -46.5318  -30.0706    6.4270 H         1 UNK         0.0864 
     87 H87       -48.7555  -29.2211    5.5290 H         1 UNK         0.0720 
     88 H88       -48.8372  -30.4266    6.7769 H         1 UNK         0.0720 
     89 H89       -51.3635  -29.4415    6.2715 H         1 UNK         0.0814 
     90 H90       -51.0313  -27.8339    5.6724 H         1 UNK         0.0814 
     91 H91       -52.2032  -25.8755    6.6273 H         1 UNK         0.1469 
     92 H92       -55.5185  -26.6274    9.2468 H         1 UNK         0.1381 
     93 H93       -52.8252  -29.7994    8.2437 H         1 UNK         0.1206 
     94 H94       -54.5340  -30.2102    9.8573 H         1 UNK         0.0813 
     95 H95       -55.0467  -28.8164   10.7710 H         1 UNK         0.0813 
     96 H96       -56.8166  -30.7762   11.2324 H         1 UNK         0.0638 
     97 H97       -58.2113  -31.0217   10.2157 H         1 UNK         0.0638 
     98 H98       -58.8861  -28.5810   10.7262 H         1 UNK         0.0568 
     99 H99       -59.4847  -28.2642   13.6446 H         1 UNK         0.3450 
    100 H100      -60.6590  -29.5234   13.9364 H         1 UNK         0.3450 
    101 H101      -57.3337  -27.3614   11.6967 H         1 UNK         0.2987 
    102 H102      -55.1970  -27.0887   12.7145 H         1 UNK         0.0766 
    103 H103      -55.7094  -25.4500   14.5283 H         1 UNK         0.0798 
    104 H104      -56.9035  -26.5528   15.2126 H         1 UNK         0.0798 
    105 H105      -57.1660  -25.8315   13.6315 H         1 UNK         0.0798 
    106 H106      -54.5574  -27.4414   15.4175 H         1 UNK         0.3198 
    107 H107      -53.1513  -29.2638   16.2593 H         1 UNK         0.0843 
    108 H108      -52.2944  -31.1901   14.8762 H         1 UNK         0.0831 
    109 H109      -51.0291  -30.4618   15.8518 H         1 UNK         0.0831 
    110 H110      -51.1134  -30.1230   14.1278 H         1 UNK         0.0831 
    111 H111      -51.9098  -27.2106   14.6317 H         1 UNK         0.3133 
    112 H112      -51.2531  -25.3574   16.1768 H         1 UNK         0.0566 
    113 H113      -49.4176  -24.6413   17.6772 H         1 UNK         0.0814 
    114 H114      -50.5609  -25.6478   18.5506 H         1 UNK         0.0814 
    115 H115      -49.0190  -26.3208   18.0369 H         1 UNK         0.0814 
    116 H116      -49.5193  -25.0724   14.8308 H         1 UNK         0.3091 
    117 H117      -46.4355  -26.3962   14.5864 H         1 UNK         0.0702 
    118 H118      -47.9368  -26.9556   12.0223 H         1 UNK         0.0785 
    119 H119      -47.4157  -28.2636   13.0765 H         1 UNK         0.0785 
    120 H120      -46.2466  -27.1454   12.4051 H         1 UNK         0.0785 
    121 H121      -48.0995  -24.7132   12.8022 H         1 UNK         0.2998 
    122 H122      -47.1405  -21.7703   14.6162 H         1 UNK         0.0697 
    123 H123      -46.2481  -22.6588   11.8253 H         1 UNK         0.0825 
    124 H124      -45.1466  -22.2995   13.1492 H         1 UNK         0.0825 
    125 H125      -46.1650  -21.0300   12.4948 H         1 UNK         0.0825 
    126 H126      -48.5269  -21.6709   12.2917 H         1 UNK         0.3029 
    127 H127      -51.5761  -21.3642   13.7053 H         1 UNK         0.0897 
    128 H128      -51.5326  -20.3838   11.4338 H         1 UNK         0.0792 
    129 H129      -50.0527  -19.9774   12.2783 H         1 UNK         0.0792 
    130 H130      -50.0489  -21.2366   11.0402 H         1 UNK         0.0792 
    131 H131      -51.1323  -23.6722   11.9033 H         1 UNK         0.3086 
    132 H132      -54.3230  -24.7816   12.4119 H         1 UNK         0.0583 
    133 H133      -55.1675  -23.0184   10.7413 H         1 UNK         0.1020 
    134 H134      -55.2881  -24.6704   10.2753 H         1 UNK         0.1020 
    135 H135      -55.4570  -24.5876    7.8071 H         1 UNK         0.0694 
    136 H136      -54.1086  -24.3048    6.7441 H         1 UNK         0.0694 
    137 H137      -52.4887  -25.4025   10.2865 H         1 UNK         0.2989 
    138 H138      -50.0742  -26.9784   12.2922 H         1 UNK         0.1055 
    139 H139      -51.4040  -28.9348   12.1680 H         1 UNK         0.0806 
    140 H140      -50.5187  -28.9251   10.6592 H         1 UNK         0.0806 
    141 H141      -52.2130  -28.4325   10.6994 H         1 UNK         0.0806 
    142 H142      -50.3693  -26.8759    9.4546 H         1 UNK         0.3061 
    143 H143      -49.1202  -25.5529    8.2249 H         1 UNK         0.0734 
    144 H144      -50.7552  -23.6849    8.3463 H         1 UNK         0.0832 
    145 H145      -49.5781  -22.6724    9.1702 H         1 UNK         0.0832 
    146 H146      -49.3036  -23.1802    7.5035 H         1 UNK         0.0832 
    147 H147      -47.2349  -23.5541    8.9338 H         1 UNK         0.3156 
    148 H148      -45.0715  -23.9640    9.0174 H         1 UNK         0.0589 
    149 H149      -44.4845  -26.3164   10.9102 H         1 UNK         0.0808 
    150 H150      -43.4452  -24.9219   10.6300 H         1 UNK         0.0808 
    151 H151      -44.9986  -24.7186   11.4257 H         1 UNK         0.0808 
    152 H152      -44.3009  -26.7943    8.5261 H         1 UNK         0.3098 
    153 H153      -44.5246  -26.4400    4.9954 H         1 UNK         0.0720 
    154 H154      -42.5511  -27.9191    5.2560 H         1 UNK         0.0791 
    155 H155      -42.3876  -27.4611    6.9507 H         1 UNK         0.0791 
    156 H156      -42.1289  -26.2701    5.6840 H         1 UNK         0.0791 
    157 H157      -44.5622  -28.6646    6.8508 H         1 UNK         0.3028 
@<TRIPOS>BOND
     1    1    2 1    
     2    1   82 1    
     3    1   83 1    
     4    1   84 1    
     5    2    3 2    
     6    2    4 am   BACKBONE|DICT|INTERRES
     7    4    5 1    
     8    4   85 1    
     9    5    6 1    
    10    5   80 1    
    11    5   86 1    
    12    6    7 1    
    13    6   87 1    
    14    6   88 1    
    15    7    8 1    
    16    8    9 1    
    17    8   89 1    
    18    8   90 1    
    19    9   10 ar   
    20    9   14 ar   
    21   10   11 ar   
    22   10   91 1    
    23   11   12 ar   
    24   11   58 1    
    25   12   13 ar   
    26   12   92 1    
    27   13   14 ar   
    28   13   15 1    
    29   14   93 1    
    30   15   16 1    
    31   15   94 1    
    32   15   95 1    
    33   16   17 1    
    34   17   18 1    
    35   17   96 1    
    36   17   97 1    
    37   18   19 1    
    38   18   22 1    
    39   18   98 1    
    40   19   20 am   BACKBONE|DICT|INTERRES
    41   19   21 2    
    42   20   99 1    
    43   20  100 1    
    44   22   23 am   BACKBONE|DICT|INTERRES
    45   22  101 1    
    46   23   24 2    
    47   23   25 1    
    48   25   26 1    
    49   25   27 1    
    50   25  102 1    
    51   26  103 1    
    52   26  104 1    
    53   26  105 1    
    54   27   28 am   BACKBONE|DICT|INTERRES
    55   27  106 1    
    56   28   29 2    
    57   28   30 1    
    58   30   31 1    
    59   30   32 1    
    60   30  107 1    
    61   31  108 1    
    62   31  109 1    
    63   31  110 1    
    64   32   33 am   BACKBONE|DICT|INTERRES
    65   32  111 1    
    66   33   34 2    
    67   33   35 1    
    68   35   36 1    
    69   35   37 1    
    70   35  112 1    
    71   36  113 1    
    72   36  114 1    
    73   36  115 1    
    74   37   38 am   BACKBONE|DICT|INTERRES
    75   37  116 1    
    76   38   39 2    
    77   38   40 1    
    78   40   41 1    
    79   40   42 1    
    80   40  117 1    
    81   41  118 1    
    82   41  119 1    
    83   41  120 1    
    84   42   43 am   BACKBONE|DICT|INTERRES
    85   42  121 1    
    86   43   44 2    
    87   43   45 1    
    88   45   46 1    
    89   45   47 1    
    90   45  122 1    
    91   46  123 1    
    92   46  124 1    
    93   46  125 1    
    94   47   48 am   BACKBONE|DICT|INTERRES
    95   47  126 1    
    96   48   49 2    
    97   48   50 1    
    98   50   51 1    
    99   50   52 1    
   100   50  127 1    
   101   51  128 1    
   102   51  129 1    
   103   51  130 1    
   104   52   53 am   BACKBONE|DICT|INTERRES
   105   52  131 1    
   106   53   54 2    
   107   53   55 1    
   108   55   56 1    
   109   55   59 1    
   110   55  132 1    
   111   56   57 1    
   112   56  133 1    
   113   56  134 1    
   114   57   58 1    
   115   58  135 1    
   116   58  136 1    
   117   59   60 am   BACKBONE|DICT|INTERRES
   118   59  137 1    
   119   60   61 2    
   120   60   62 1    
   121   62   63 1    
   122   62   64 1    
   123   62  138 1    
   124   63  139 1    
   125   63  140 1    
   126   63  141 1    
   127   64   65 am   BACKBONE|DICT|INTERRES
   128   64  142 1    
   129   65   66 2    
   130   65   67 1    
   131   67   68 1    
   132   67   69 1    
   133   67  143 1    
   134   68  144 1    
   135   68  145 1    
   136   68  146 1    
   137   69   70 am   BACKBONE|DICT|INTERRES
   138   69  147 1    
   139   70   71 2    
   140   70   72 1    
   141   72   73 1    
   142   72   74 1    
   143   72  148 1    
   144   73  149 1    
   145   73  150 1    
   146   73  151 1    
   147   74   75 am   BACKBONE|DICT|INTERRES
   148   74  152 1    
   149   75   76 2    
   150   75   77 1    
   151   77   78 1    
   152   77   79 1    
   153   77  153 1    
   154   78  154 1    
   155   78  155 1    
   156   78  156 1    
   157   79   80 am   BACKBONE|DICT|INTERRES
   158   79  157 1    
   159   80   81 2    
@<TRIPOS>SUBSTRUCTURE
     1 UNK         1 GROUP             0       ****    0 ROOT    
