@<TRIPOS>MOLECULE
3R207
157   159    1
SMALL
USER_CHARGES


@<TRIPOS>ATOM
      1 CA        -49.8583  -28.0715    9.3983 C.3       0 UNK        -0.1975 
      2 C         -49.5580  -28.0792    7.9075 C.2       0 UNK         0.4852 
      3 O         -48.3928  -28.1714    7.5202 O.2       0 UNK        -0.5216 
      4 N         -50.5991  -27.9752    7.0672 N.am      1 UNK        -0.4461 
      5 CA        -50.5419  -28.0673    5.5979 C.3       1 UNK         0.0864 
      6 C6        -51.9415  -27.9745    4.9378 C.3       14 UNK        -0.0898 
      7 S7        -53.1557  -29.1544    5.6210 S.3       14 UNK        -0.2598 
      8 C8        -54.3896  -28.0365    6.3634 C.3       14 UNK         0.0286 
      9 C9        -53.8770  -27.4082    7.6506 C.ar      14 UNK        -0.0844 
     10 C10       -53.2743  -26.1463    7.6354 C.ar      14 UNK        -0.0881 
     11 C11       -52.7777  -25.5866    8.8152 C.ar      14 UNK        -0.0643 
     12 C12       -52.9053  -26.2851   10.0188 C.ar      14 UNK        -0.0930 
     13 C13       -53.5254  -27.5372   10.0505 C.ar      14 UNK        -0.0827 
     14 C14       -54.0103  -28.0925    8.8623 C.ar      14 UNK        -0.1249 
     15 C15       -53.6925  -28.2711   11.3727 C.3       14 UNK         0.0141 
     16 S16       -52.9087  -29.9172   11.3605 S.3       14 UNK        -0.2313 
     17 C17       -53.0745  -30.4197   13.1082 C.3       14 UNK        -0.0915 
     18 CA        -54.3863  -31.1949   13.4108 C.3       13 UNK         0.0968 
     19 C         -54.3763  -31.7899   14.8502 C.2       13 UNK         0.5732 
     20 N         -55.3174  -31.4579   15.7286 N.am      13 UNK        -0.7310 
     21 O         -53.4986  -32.5860   15.1749 O.2       13 UNK        -0.5035 
     22 N         -55.5766  -30.3822   13.1259 N.am      13 UNK        -0.4233 
     23 C         -56.7725  -30.8739   12.7752 C.2       13 UNK         0.4989 
     24 O         -56.9765  -32.0696   12.5573 O.2       13 UNK        -0.4996 
     25 CA        -57.9385  -29.8678   12.6385 C.3       12 UNK         0.0216 
     26 CB        -59.3060  -30.5067   12.9643 C.3       12 UNK        -0.1964 
     27 N         -57.7578  -28.6233   13.4021 N.am      12 UNK        -0.4276 
     28 C         -57.5753  -28.5096   14.7254 C.2       12 UNK         0.5020 
     29 O         -57.5580  -29.4619   15.5099 O.2       12 UNK        -0.5489 
     30 CA        -57.3060  -27.0897   15.2543 C.3       11 UNK         0.0294 
     31 CB        -58.4934  -26.5881   16.0917 C.3       11 UNK        -0.2019 
     32 N         -56.0825  -27.0393   16.0606 N.am      11 UNK        -0.4493 
     33 C         -54.8652  -27.3949   15.6270 C.2       11 UNK         0.4932 
     34 O         -54.6325  -27.7512   14.4696 O.2       11 UNK        -0.5029 
     35 CA        -53.7447  -27.3870   16.6817 C.3       10 UNK         0.0280 
     36 CB        -53.9413  -28.5326   17.6900 C.3       10 UNK        -0.1976 
     37 N         -52.4149  -27.5233   16.0853 N.am      10 UNK        -0.4242 
     38 C         -51.7386  -26.5478   15.4676 C.2       10 UNK         0.5072 
     39 O         -52.1514  -25.3933   15.3296 O.2       10 UNK        -0.5224 
     40 CA        -50.3624  -26.9437   14.9015 C.3       9 UNK         0.0343 
     41 CB        -50.4455  -27.1915   13.3858 C.3       9 UNK        -0.2003 
     42 N         -49.3323  -25.9371   15.1671 N.am      9 UNK        -0.4272 
     43 C         -48.9013  -25.5690   16.3837 C.2       9 UNK         0.4988 
     44 O         -49.3251  -26.0494   17.4359 O.2       9 UNK        -0.5108 
     45 CA        -47.7864  -24.5108   16.4470 C.3       8 UNK         0.0248 
     46 CB        -46.4081  -25.1907   16.3907 C.3       8 UNK        -0.2001 
     47 N         -47.8780  -23.5298   15.3648 N.am      8 UNK        -0.4140 
     48 C         -48.6017  -22.4006   15.4078 C.2       8 UNK         0.5028 
     49 O         -49.2509  -22.0330   16.3872 O.2       8 UNK        -0.5428 
     50 CA        -48.6186  -21.5526   14.1279 C.3       7 UNK         0.0264 
     51 CB        -47.3203  -20.7292   14.0058 C.3       7 UNK        -0.1988 
     52 N         -48.8047  -22.4426   12.9856 N.am      7 UNK        -0.4454 
     53 C         -48.9690  -22.1410   11.6964 C.2       7 UNK         0.5027 
     54 O         -48.9619  -20.9941   11.2459 O.2       7 UNK        -0.5083 
     55 CA        -49.1864  -23.3570   10.7654 C.3       6 UNK         0.0844 
     56 C56       -49.6806  -22.9469    9.3555 C.3       14 UNK        -0.0967 
     57 S57       -50.3262  -24.3911    8.4529 S.3       14 UNK        -0.2604 
     58 C58       -52.1039  -24.2267    8.7971 C.3       14 UNK         0.0134 
     59 N         -47.9986  -24.2205   10.6925 N.am      6 UNK        -0.4116 
     60 C         -47.5031  -24.9899   11.6722 C.2       5 UNK         0.5034 
     61 O         -48.0169  -25.0837   12.7889 O.2       5 UNK        -0.5045 
     62 CA        -46.2232  -25.7944   11.3866 C.3       5 UNK         0.0224 
     63 CB        -46.5374  -27.2977   11.3330 C.3       5 UNK        -0.1978 
     64 N         -45.5128  -25.4208   10.1605 N.am      5 UNK        -0.4737 
     65 C         -44.8547  -24.2769    9.9409 C.2       4 UNK         0.5027 
     66 O         -44.8222  -23.3532   10.7531 O.2       4 UNK        -0.5211 
     67 CA        -44.1197  -24.1134    8.5930 C.3       4 UNK         0.0297 
     68 CB        -42.6023  -24.3121    8.7751 C.3       4 UNK        -0.1993 
     69 N         -44.6278  -24.9332    7.4780 N.am      4 UNK        -0.4486 
     70 C         -44.6357  -26.2670    7.3356 C.2       3 UNK         0.4961 
     71 O         -44.2187  -27.0482    8.1913 O.2       3 UNK        -0.5105 
     72 CA        -45.2703  -26.8085    6.0422 C.3       3 UNK         0.0299 
     73 CB        -45.2721  -28.3473    5.9789 C.3       3 UNK        -0.1972 
     74 N         -46.6446  -26.3250    5.8889 N.am      3 UNK        -0.4305 
     75 C         -46.9899  -25.1501    5.3409 C.2       2 UNK         0.5006 
     76 O         -46.1558  -24.3278    4.9576 O.2       2 UNK        -0.5106 
     77 CA        -48.4876  -24.7907    5.2424 C.3       2 UNK         0.0296 
     78 CB        -48.8482  -24.1689    3.8767 C.3       2 UNK        -0.2002 
     79 N         -49.4042  -25.8850    5.5868 N.am      2 UNK        -0.4032 
     80 C         -49.5915  -27.0449    4.9363 C.2       1 UNK         0.5000 
     81 O         -49.0378  -27.3402    3.8762 O.2       1 UNK        -0.5238 
     82 H82       -49.2289  -28.7952    9.9149 H         1 UNK         0.0889 
     83 H83       -50.8946  -28.3386    9.5953 H         1 UNK         0.0889 
     84 H84       -49.6686  -27.0854    9.8213 H         1 UNK         0.0889 
     85 H85       -51.5327  -27.8940    7.4512 H         1 UNK         0.3028 
     86 H86       -50.1343  -29.0552    5.3736 H         1 UNK         0.0864 
     87 H87       -51.8617  -28.1828    3.8689 H         1 UNK         0.0720 
     88 H88       -52.3355  -26.9601    5.0080 H         1 UNK         0.0720 
     89 H89       -55.2967  -28.6058    6.5717 H         1 UNK         0.0814 
     90 H90       -54.6765  -27.2681    5.6436 H         1 UNK         0.0814 
     91 H91       -53.1794  -25.6007    6.7067 H         1 UNK         0.1469 
     92 H92       -52.5240  -25.8489   10.9319 H         1 UNK         0.1381 
     93 H93       -54.4857  -29.0640    8.8813 H         1 UNK         0.1206 
     94 H94       -54.7582  -28.3697   11.5748 H         1 UNK         0.0813 
     95 H95       -53.2773  -27.6811   12.1899 H         1 UNK         0.0813 
     96 H96       -52.9760  -29.5474   13.7532 H         1 UNK         0.0638 
     97 H97       -52.2097  -31.0473   13.3309 H         1 UNK         0.0638 
     98 H98       -54.4038  -32.0581   12.7429 H         1 UNK         0.0568 
     99 H99       -55.2935  -31.8709   16.6466 H         1 UNK         0.3450 
    100 H100      -56.0572  -30.8045   15.4929 H         1 UNK         0.3450 
    101 H101      -55.4902  -29.3986   13.3498 H         1 UNK         0.2987 
    102 H102      -57.9542  -29.5773   11.5869 H         1 UNK         0.0766 
    103 H103      -59.5170  -31.3464   12.3009 H         1 UNK         0.0798 
    104 H104      -60.1183  -29.7902   12.8427 H         1 UNK         0.0798 
    105 H105      -59.3419  -30.8840   13.9870 H         1 UNK         0.0798 
    106 H106      -57.7300  -27.7783   12.8470 H         1 UNK         0.3198 
    107 H107      -57.1694  -26.4117   14.4090 H         1 UNK         0.0843 
    108 H108      -58.6610  -27.2144   16.9692 H         1 UNK         0.0831 
    109 H109      -59.4140  -26.5964   15.5065 H         1 UNK         0.0831 
    110 H110      -58.3372  -25.5645   16.4328 H         1 UNK         0.0831 
    111 H111      -56.1953  -26.7926   17.0330 H         1 UNK         0.3133 
    112 H112      -53.7899  -26.4367   17.2180 H         1 UNK         0.0566 
    113 H113      -53.1823  -28.5058   18.4723 H         1 UNK         0.0814 
    114 H114      -53.8877  -29.5083   17.2064 H         1 UNK         0.0814 
    115 H115      -54.9112  -28.4694   18.1848 H         1 UNK         0.0814 
    116 H116      -52.0064  -28.4453   16.1182 H         1 UNK         0.3091 
    117 H117      -50.0375  -27.8698   15.3803 H         1 UNK         0.0702 
    118 H118      -49.4815  -27.4947   12.9778 H         1 UNK         0.0785 
    119 H119      -50.7710  -26.3002   12.8478 H         1 UNK         0.0785 
    120 H120      -51.1507  -27.9902   13.1601 H         1 UNK         0.0785 
    121 H121      -48.8930  -25.5283   14.3480 H         1 UNK         0.2998 
    122 H122      -47.8700  -23.9953   17.4063 H         1 UNK         0.0697 
    123 H123      -46.2562  -25.7224   15.4502 H         1 UNK         0.0825 
    124 H124      -46.2985  -25.9171   17.1972 H         1 UNK         0.0825 
    125 H125      -45.6028  -24.4640   16.4998 H         1 UNK         0.0825 
    126 H126      -47.3744  -23.7535   14.5172 H         1 UNK         0.3029 
    127 H127      -49.4721  -20.8734   14.1782 H         1 UNK         0.0897 
    128 H128      -46.4478  -21.3672   13.8607 H         1 UNK         0.0792 
    129 H129      -47.1480  -20.1378   14.9062 H         1 UNK         0.0792 
    130 H130      -47.3644  -20.0303   13.1708 H         1 UNK         0.0792 
    131 H131      -48.8102  -23.4345   13.2054 H         1 UNK         0.3086 
    132 H132      -49.9836  -23.9437   11.2285 H         1 UNK         0.0583 
    133 H133      -50.4638  -22.1880    9.4123 H         1 UNK         0.1020 
    134 H134      -48.8721  -22.4955    8.7777 H         1 UNK         0.1020 
    135 H135      -52.2567  -23.7347    9.7590 H         1 UNK         0.0694 
    136 H136      -52.5607  -23.5816    8.0450 H         1 UNK         0.0694 
    137 H137      -47.4958  -24.2059    9.8188 H         1 UNK         0.2989 
    138 H138      -45.5507  -25.6157   12.2283 H         1 UNK         0.1055 
    139 H139      -47.1597  -27.5468   10.4734 H         1 UNK         0.0806 
    140 H140      -47.0654  -27.6255   12.2297 H         1 UNK         0.0806 
    141 H141      -45.6243  -27.8896   11.2643 H         1 UNK         0.0806 
    142 H142      -45.3953  -26.1483    9.4619 H         1 UNK         0.3061 
    143 H143      -44.2792  -23.0779    8.2878 H         1 UNK         0.0734 
    144 H144      -42.3600  -25.3238    9.1020 H         1 UNK         0.0832 
    145 H145      -42.0622  -24.1200    7.8481 H         1 UNK         0.0832 
    146 H146      -42.2075  -23.6275    9.5271 H         1 UNK         0.0832 
    147 H147      -45.0333  -24.4092    6.7081 H         1 UNK         0.3156 
    148 H148      -44.6646  -26.4479    5.2081 H         1 UNK         0.0589 
    149 H149      -45.7075  -28.7050    5.0457 H         1 UNK         0.0808 
    150 H150      -44.2569  -28.7421    6.0354 H         1 UNK         0.0808 
    151 H151      -45.8387  -28.7854    6.8016 H         1 UNK         0.0808 
    152 H152      -47.3703  -26.9270    6.2673 H         1 UNK         0.3098 
    153 H153      -48.6498  -24.0207    5.9972 H         1 UNK         0.0720 
    154 H154      -48.6375  -24.8487    3.0508 H         1 UNK         0.0791 
    155 H155      -48.2756  -23.2580    3.6978 H         1 UNK         0.0791 
    156 H156      -49.9034  -23.8994    3.8300 H         1 UNK         0.0791 
    157 H157      -49.8984  -25.7641    6.4624 H         1 UNK         0.3028 
@<TRIPOS>BOND
     1    1    2 1    
     2    1   82 1    
     3    1   83 1    
     4    1   84 1    
     5    2    3 2    
     6    2    4 am   BACKBONE|DICT|INTERRES
     7    4    5 1    
     8    4   85 1    
     9    5    6 1    
    10    5   80 1    
    11    5   86 1    
    12    6    7 1    
    13    6   87 1    
    14    6   88 1    
    15    7    8 1    
    16    8    9 1    
    17    8   89 1    
    18    8   90 1    
    19    9   10 ar   
    20    9   14 ar   
    21   10   11 ar   
    22   10   91 1    
    23   11   12 ar   
    24   11   58 1    
    25   12   13 ar   
    26   12   92 1    
    27   13   14 ar   
    28   13   15 1    
    29   14   93 1    
    30   15   16 1    
    31   15   94 1    
    32   15   95 1    
    33   16   17 1    
    34   17   18 1    
    35   17   96 1    
    36   17   97 1    
    37   18   19 1    
    38   18   22 1    
    39   18   98 1    
    40   19   20 am   BACKBONE|DICT|INTERRES
    41   19   21 2    
    42   20   99 1    
    43   20  100 1    
    44   22   23 am   BACKBONE|DICT|INTERRES
    45   22  101 1    
    46   23   24 2    
    47   23   25 1    
    48   25   26 1    
    49   25   27 1    
    50   25  102 1    
    51   26  103 1    
    52   26  104 1    
    53   26  105 1    
    54   27   28 am   BACKBONE|DICT|INTERRES
    55   27  106 1    
    56   28   29 2    
    57   28   30 1    
    58   30   31 1    
    59   30   32 1    
    60   30  107 1    
    61   31  108 1    
    62   31  109 1    
    63   31  110 1    
    64   32   33 am   BACKBONE|DICT|INTERRES
    65   32  111 1    
    66   33   34 2    
    67   33   35 1    
    68   35   36 1    
    69   35   37 1    
    70   35  112 1    
    71   36  113 1    
    72   36  114 1    
    73   36  115 1    
    74   37   38 am   BACKBONE|DICT|INTERRES
    75   37  116 1    
    76   38   39 2    
    77   38   40 1    
    78   40   41 1    
    79   40   42 1    
    80   40  117 1    
    81   41  118 1    
    82   41  119 1    
    83   41  120 1    
    84   42   43 am   BACKBONE|DICT|INTERRES
    85   42  121 1    
    86   43   44 2    
    87   43   45 1    
    88   45   46 1    
    89   45   47 1    
    90   45  122 1    
    91   46  123 1    
    92   46  124 1    
    93   46  125 1    
    94   47   48 am   BACKBONE|DICT|INTERRES
    95   47  126 1    
    96   48   49 2    
    97   48   50 1    
    98   50   51 1    
    99   50   52 1    
   100   50  127 1    
   101   51  128 1    
   102   51  129 1    
   103   51  130 1    
   104   52   53 am   BACKBONE|DICT|INTERRES
   105   52  131 1    
   106   53   54 2    
   107   53   55 1    
   108   55   56 1    
   109   55   59 1    
   110   55  132 1    
   111   56   57 1    
   112   56  133 1    
   113   56  134 1    
   114   57   58 1    
   115   58  135 1    
   116   58  136 1    
   117   59   60 am   BACKBONE|DICT|INTERRES
   118   59  137 1    
   119   60   61 2    
   120   60   62 1    
   121   62   63 1    
   122   62   64 1    
   123   62  138 1    
   124   63  139 1    
   125   63  140 1    
   126   63  141 1    
   127   64   65 am   BACKBONE|DICT|INTERRES
   128   64  142 1    
   129   65   66 2    
   130   65   67 1    
   131   67   68 1    
   132   67   69 1    
   133   67  143 1    
   134   68  144 1    
   135   68  145 1    
   136   68  146 1    
   137   69   70 am   BACKBONE|DICT|INTERRES
   138   69  147 1    
   139   70   71 2    
   140   70   72 1    
   141   72   73 1    
   142   72   74 1    
   143   72  148 1    
   144   73  149 1    
   145   73  150 1    
   146   73  151 1    
   147   74   75 am   BACKBONE|DICT|INTERRES
   148   74  152 1    
   149   75   76 2    
   150   75   77 1    
   151   77   78 1    
   152   77   79 1    
   153   77  153 1    
   154   78  154 1    
   155   78  155 1    
   156   78  156 1    
   157   79   80 am   BACKBONE|DICT|INTERRES
   158   79  157 1    
   159   80   81 2    
@<TRIPOS>SUBSTRUCTURE
     1 UNK         1 GROUP             0       ****    0 ROOT    
