@<TRIPOS>MOLECULE
3R207
157   159    1
SMALL
USER_CHARGES


@<TRIPOS>ATOM
      1 CA        -44.1028  -30.5846    8.1993 C.3       0 UNK        -0.1975 
      2 C         -45.3793  -30.1547    7.4927 C.2       0 UNK         0.4852 
      3 O         -45.5093  -30.3544    6.2841 O.2       0 UNK        -0.5216 
      4 N         -46.3189  -29.5493    8.2298 N.am      1 UNK        -0.4461 
      5 CA        -47.6347  -29.0864    7.7627 C.3       1 UNK         0.0864 
      6 C6        -48.6320  -28.9916    8.9475 C.3       14 UNK        -0.0898 
      7 S7        -49.0107  -30.6235    9.6772 S.3       14 UNK        -0.2598 
      8 C8        -50.2833  -31.2872    8.5496 C.3       14 UNK         0.0286 
      9 C9        -51.5579  -30.4570    8.5663 C.ar      14 UNK        -0.0844 
     10 C10       -51.7394  -29.4388    7.6272 C.ar      14 UNK        -0.0881 
     11 C11       -52.8663  -28.6167    7.6775 C.ar      14 UNK        -0.0643 
     12 C12       -53.8503  -28.8570    8.6401 C.ar      14 UNK        -0.0930 
     13 C13       -53.7035  -29.9047    9.5551 C.ar      14 UNK        -0.0827 
     14 C14       -52.5503  -30.6953    9.5217 C.ar      14 UNK        -0.1249 
     15 C15       -54.7944  -30.1804   10.5758 C.3       14 UNK         0.0141 
     16 S16       -54.4141  -29.3935   12.1694 S.3       14 UNK        -0.2313 
     17 C17       -56.0744  -28.8632   12.7087 C.3       14 UNK        -0.0915 
     18 CA        -56.3154  -27.3552   12.4052 C.3       13 UNK         0.0968 
     19 C         -57.8179  -26.9408   12.4796 C.2       13 UNK         0.5732 
     20 N         -58.1422  -25.6958   12.8086 N.am      13 UNK        -0.7310 
     21 O         -58.7064  -27.7414   12.1964 O.2       13 UNK        -0.5035 
     22 N         -55.3871  -26.4785   13.1433 N.am      13 UNK        -0.4233 
     23 C         -55.3801  -26.2669   14.4662 C.2       13 UNK         0.4989 
     24 O         -56.1955  -26.7518   15.2534 O.2       13 UNK        -0.4996 
     25 CA        -54.2935  -25.3125   14.9764 C.3       12 UNK         0.0216 
     26 CB        -54.8297  -23.8791   15.1710 C.3       12 UNK        -0.1964 
     27 N         -53.6136  -25.8594   16.1535 N.am      12 UNK        -0.4276 
     28 C         -53.9239  -25.7849   17.4562 C.2       12 UNK         0.5020 
     29 O         -54.8519  -25.1225   17.9246 O.2       12 UNK        -0.5489 
     30 CA        -52.9997  -26.5826   18.4035 C.3       11 UNK         0.0294 
     31 CB        -53.5707  -26.7406   19.8298 C.3       11 UNK        -0.2019 
     32 N         -52.5952  -27.8779   17.8397 N.am      11 UNK        -0.4493 
     33 C         -53.3964  -28.9091   17.5224 C.2       11 UNK         0.4932 
     34 O         -54.5922  -28.9616   17.8124 O.2       11 UNK        -0.5029 
     35 CA        -52.7550  -30.0794   16.7402 C.3       10 UNK         0.0280 
     36 CB        -53.7842  -30.8201   15.8600 C.3       10 UNK        -0.1976 
     37 N         -51.5809  -29.7054   15.9348 N.am      10 UNK        -0.4242 
     38 C         -51.5232  -28.7576   14.9872 C.2       10 UNK         0.5072 
     39 O         -52.4664  -28.0333   14.6711 O.2       10 UNK        -0.5224 
     40 CA        -50.1625  -28.5478   14.3081 C.3       9 UNK         0.0343 
     41 CB        -50.1737  -29.1526   12.8946 C.3       9 UNK        -0.2003 
     42 N         -49.8147  -27.1286   14.2139 N.am      9 UNK        -0.4272 
     43 C         -49.7260  -26.2665   15.2383 C.2       9 UNK         0.4988 
     44 O         -49.9039  -26.5768   16.4179 O.2       9 UNK        -0.5108 
     45 CA        -49.3940  -24.8102   14.8872 C.3       8 UNK         0.0248 
     46 CB        -47.9005  -24.6602   14.5495 C.3       8 UNK        -0.2001 
     47 N         -50.2006  -24.3473   13.7552 N.am      8 UNK        -0.4140 
     48 C         -51.1859  -23.4426   13.8347 C.2       8 UNK         0.5028 
     49 O         -51.4998  -22.8746   14.8808 O.2       8 UNK        -0.5428 
     50 CA        -51.9498  -23.0794   12.5446 C.3       7 UNK         0.0264 
     51 CB        -51.7308  -21.5992   12.1879 C.3       7 UNK        -0.1988 
     52 N         -51.5699  -23.8965   11.3905 N.am      7 UNK        -0.4454 
     53 C         -52.1221  -25.0766   11.0625 C.2       7 UNK         0.5027 
     54 O         -53.0718  -25.5728   11.6693 O.2       7 UNK        -0.5083 
     55 CA        -51.5264  -25.8193    9.8396 C.3       6 UNK         0.0844 
     56 C56       -52.3727  -25.4503    8.5910 C.3       14 UNK        -0.0967 
     57 S57       -51.7654  -26.1643    7.0254 S.3       14 UNK        -0.2604 
     58 C58       -53.0000  -27.4631    6.6968 C.3       14 UNK         0.0134 
     59 N         -50.0950  -25.5430    9.6384 N.am      6 UNK        -0.4116 
     60 C         -49.1215  -25.6340   10.5575 C.2       5 UNK         0.5034 
     61 O         -49.2813  -26.1454   11.6641 O.2       5 UNK        -0.5045 
     62 CA        -47.7797  -24.9354   10.2613 C.3       5 UNK         0.0224 
     63 CB        -46.6077  -25.9253   10.1868 C.3       5 UNK        -0.1978 
     64 N         -47.7985  -24.0694    9.0759 N.am      5 UNK        -0.4737 
     65 C         -48.5131  -22.9368    8.9832 C.2       4 UNK         0.5027 
     66 O         -49.2358  -22.5309    9.8958 O.2       4 UNK        -0.5211 
     67 CA        -48.4885  -22.1678    7.6477 C.3       4 UNK         0.0297 
     68 CB        -48.4959  -20.6386    7.8576 C.3       4 UNK        -0.1993 
     69 N         -47.4235  -22.5755    6.7210 N.am      4 UNK        -0.4486 
     70 C         -46.0985  -22.4200    6.8664 C.2       3 UNK         0.4961 
     71 O         -45.5648  -21.9034    7.8491 O.2       3 UNK        -0.5105 
     72 CA        -45.2387  -22.9434    5.6983 C.3       3 UNK         0.0299 
     73 CB        -43.7280  -22.9708    6.0184 C.3       3 UNK        -0.1972 
     74 N         -45.7018  -24.2460    5.1963 N.am      3 UNK        -0.4305 
     75 C         -45.7343  -25.4044    5.8725 C.2       2 UNK         0.5006 
     76 O         -45.3266  -25.5402    7.0281 O.2       2 UNK        -0.5106 
     77 CA        -46.3053  -26.6098    5.0996 C.3       2 UNK         0.0296 
     78 CB        -45.3091  -27.0849    4.0273 C.3       2 UNK        -0.2002 
     79 N         -46.6318  -27.7489    5.9598 N.am      2 UNK        -0.4032 
     80 C         -47.5481  -27.7768    6.9361 C.2       1 UNK         0.5000 
     81 O         -48.2911  -26.8264    7.1903 O.2       1 UNK        -0.5238 
     82 H82       -43.2422  -30.0845    7.7559 H         1 UNK         0.0889 
     83 H83       -43.9624  -31.6603    8.0971 H         1 UNK         0.0889 
     84 H84       -44.1243  -30.3449    9.2623 H         1 UNK         0.0889 
     85 H85       -46.1446  -29.4070    9.2142 H         1 UNK         0.3028 
     86 H86       -48.0231  -29.8336    7.0679 H         1 UNK         0.0864 
     87 H87       -49.5592  -28.4965    8.6655 H         1 UNK         0.0720 
     88 H88       -48.2143  -28.3707    9.7400 H         1 UNK         0.0720 
     89 H89       -50.5114  -32.3123    8.8451 H         1 UNK         0.0814 
     90 H90       -49.8806  -31.3496    7.5379 H         1 UNK         0.0814 
     91 H91       -50.9783  -29.2489    6.8826 H         1 UNK         0.1469 
     92 H92       -54.7296  -28.2288    8.6792 H         1 UNK         0.1381 
     93 H93       -52.4210  -31.4879   10.2462 H         1 UNK         0.1206 
     94 H94       -54.9109  -31.2549   10.7245 H         1 UNK         0.0813 
     95 H95       -55.7499  -29.8194   10.1926 H         1 UNK         0.0813 
     96 H96       -56.1729  -29.0614   13.7767 H         1 UNK         0.0638 
     97 H97       -56.8175  -29.4959   12.2212 H         1 UNK         0.0638 
     98 H98       -56.0655  -27.2022   11.3548 H         1 UNK         0.0568 
     99 H99       -57.4268  -25.0246   13.0347 H         1 UNK         0.3450 
    100 H100      -59.1141  -25.4320   12.8423 H         1 UNK         0.3450 
    101 H101      -54.6388  -26.0748   12.5839 H         1 UNK         0.2987 
    102 H102      -53.5106  -25.2680   14.2202 H         1 UNK         0.0766 
    103 H103      -55.1285  -23.4459   14.2162 H         1 UNK         0.0798 
    104 H104      -54.0751  -23.2237   15.6050 H         1 UNK         0.0798 
    105 H105      -55.7061  -23.8579   15.8193 H         1 UNK         0.0798 
    106 H106      -52.9064  -26.5442   15.9001 H         1 UNK         0.3198 
    107 H107      -52.0836  -25.9949   18.4852 H         1 UNK         0.0843 
    108 H108      -54.5345  -27.2502   19.8285 H         1 UNK         0.0831 
    109 H109      -53.7225  -25.7670   20.2972 H         1 UNK         0.0831 
    110 H110      -52.8922  -27.3041   20.4701 H         1 UNK         0.0831 
    111 H111      -51.6269  -27.9331   17.5487 H         1 UNK         0.3133 
    112 H112      -52.3957  -30.7830   17.4924 H         1 UNK         0.0566 
    113 H113      -53.3235  -31.6403   15.3097 H         1 UNK         0.0814 
    114 H114      -54.2453  -30.1479   15.1357 H         1 UNK         0.0814 
    115 H115      -54.5862  -31.2464   16.4637 H         1 UNK         0.0814 
    116 H116      -50.7369  -30.2242   16.1370 H         1 UNK         0.3091 
    117 H117      -49.3852  -29.0396   14.8959 H         1 UNK         0.0702 
    118 H118      -49.2055  -29.0406   12.4062 H         1 UNK         0.0785 
    119 H119      -50.9228  -28.6762   12.2592 H         1 UNK         0.0785 
    120 H120      -50.4030  -30.2185   12.9224 H         1 UNK         0.0785 
    121 H121      -49.6434  -26.7832   13.2718 H         1 UNK         0.2998 
    122 H122      -49.5965  -24.2058   15.7738 H         1 UNK         0.0697 
    123 H123      -47.6139  -25.2541   13.6810 H         1 UNK         0.0825 
    124 H124      -47.2787  -24.9848   15.3850 H         1 UNK         0.0825 
    125 H125      -47.6460  -23.6209   14.3416 H         1 UNK         0.0825 
    126 H126      -50.0285  -24.8054   12.8673 H         1 UNK         0.3029 
    127 H127      -53.0129  -23.2209   12.7482 H         1 UNK         0.0897 
    128 H128      -50.6790  -21.3819   11.9974 H         1 UNK         0.0792 
    129 H129      -52.0567  -20.9473   12.9996 H         1 UNK         0.0792 
    130 H130      -52.2972  -21.3164   11.3004 H         1 UNK         0.0792 
    131 H131      -50.8064  -23.5360   10.8247 H         1 UNK         0.3086 
    132 H132      -51.6224  -26.8913   10.0252 H         1 UNK         0.0583 
    133 H133      -53.4120  -25.7508    8.7398 H         1 UNK         0.1020 
    134 H134      -52.3969  -24.3669    8.4550 H         1 UNK         0.1020 
    135 H135      -54.0026  -27.0335    6.7242 H         1 UNK         0.0694 
    136 H136      -52.8549  -27.8381    5.6827 H         1 UNK         0.0694 
    137 H137      -49.8433  -25.1852    8.7280 H         1 UNK         0.2989 
    138 H138      -47.5928  -24.2895   11.1223 H         1 UNK         0.1055 
    139 H139      -46.6550  -26.5487    9.2981 H         1 UNK         0.0806 
    140 H140      -46.5940  -26.5876   11.0536 H         1 UNK         0.0806 
    141 H141      -45.6525  -25.4003   10.1661 H         1 UNK         0.0806 
    142 H142      -47.2421  -24.3668    8.2845 H         1 UNK         0.3061 
    143 H143      -49.4239  -22.4277    7.1496 H         1 UNK         0.0734 
    144 H144      -47.6270  -20.3020    8.4236 H         1 UNK         0.0832 
    145 H145      -48.5056  -20.1060    6.9067 H         1 UNK         0.0832 
    146 H146      -49.3813  -20.3236    8.4113 H         1 UNK         0.0832 
    147 H147      -47.7421  -23.0324    5.8774 H         1 UNK         0.3156 
    148 H148      -45.3818  -22.2351    4.8808 H         1 UNK         0.0589 
    149 H149      -43.1485  -23.3327    5.1693 H         1 UNK         0.0808 
    150 H150      -43.3624  -21.9712    6.2567 H         1 UNK         0.0808 
    151 H151      -43.5037  -23.6083    6.8741 H         1 UNK         0.0808 
    152 H152      -46.0463  -24.2447    4.2455 H         1 UNK         0.3098 
    153 H153      -47.2284  -26.2915    4.6110 H         1 UNK         0.0720 
    154 H154      -44.3706  -27.4189    4.4723 H         1 UNK         0.0791 
    155 H155      -45.0696  -26.2881    3.3221 H         1 UNK         0.0791 
    156 H156      -45.7164  -27.9131    3.4468 H         1 UNK         0.0791 
    157 H157      -46.0658  -28.5853    5.8472 H         1 UNK         0.3028 
@<TRIPOS>BOND
     1    1    2 1    
     2    1   82 1    
     3    1   83 1    
     4    1   84 1    
     5    2    3 2    
     6    2    4 am   BACKBONE|DICT|INTERRES
     7    4    5 1    
     8    4   85 1    
     9    5    6 1    
    10    5   80 1    
    11    5   86 1    
    12    6    7 1    
    13    6   87 1    
    14    6   88 1    
    15    7    8 1    
    16    8    9 1    
    17    8   89 1    
    18    8   90 1    
    19    9   10 ar   
    20    9   14 ar   
    21   10   11 ar   
    22   10   91 1    
    23   11   12 ar   
    24   11   58 1    
    25   12   13 ar   
    26   12   92 1    
    27   13   14 ar   
    28   13   15 1    
    29   14   93 1    
    30   15   16 1    
    31   15   94 1    
    32   15   95 1    
    33   16   17 1    
    34   17   18 1    
    35   17   96 1    
    36   17   97 1    
    37   18   19 1    
    38   18   22 1    
    39   18   98 1    
    40   19   20 am   BACKBONE|DICT|INTERRES
    41   19   21 2    
    42   20   99 1    
    43   20  100 1    
    44   22   23 am   BACKBONE|DICT|INTERRES
    45   22  101 1    
    46   23   24 2    
    47   23   25 1    
    48   25   26 1    
    49   25   27 1    
    50   25  102 1    
    51   26  103 1    
    52   26  104 1    
    53   26  105 1    
    54   27   28 am   BACKBONE|DICT|INTERRES
    55   27  106 1    
    56   28   29 2    
    57   28   30 1    
    58   30   31 1    
    59   30   32 1    
    60   30  107 1    
    61   31  108 1    
    62   31  109 1    
    63   31  110 1    
    64   32   33 am   BACKBONE|DICT|INTERRES
    65   32  111 1    
    66   33   34 2    
    67   33   35 1    
    68   35   36 1    
    69   35   37 1    
    70   35  112 1    
    71   36  113 1    
    72   36  114 1    
    73   36  115 1    
    74   37   38 am   BACKBONE|DICT|INTERRES
    75   37  116 1    
    76   38   39 2    
    77   38   40 1    
    78   40   41 1    
    79   40   42 1    
    80   40  117 1    
    81   41  118 1    
    82   41  119 1    
    83   41  120 1    
    84   42   43 am   BACKBONE|DICT|INTERRES
    85   42  121 1    
    86   43   44 2    
    87   43   45 1    
    88   45   46 1    
    89   45   47 1    
    90   45  122 1    
    91   46  123 1    
    92   46  124 1    
    93   46  125 1    
    94   47   48 am   BACKBONE|DICT|INTERRES
    95   47  126 1    
    96   48   49 2    
    97   48   50 1    
    98   50   51 1    
    99   50   52 1    
   100   50  127 1    
   101   51  128 1    
   102   51  129 1    
   103   51  130 1    
   104   52   53 am   BACKBONE|DICT|INTERRES
   105   52  131 1    
   106   53   54 2    
   107   53   55 1    
   108   55   56 1    
   109   55   59 1    
   110   55  132 1    
   111   56   57 1    
   112   56  133 1    
   113   56  134 1    
   114   57   58 1    
   115   58  135 1    
   116   58  136 1    
   117   59   60 am   BACKBONE|DICT|INTERRES
   118   59  137 1    
   119   60   61 2    
   120   60   62 1    
   121   62   63 1    
   122   62   64 1    
   123   62  138 1    
   124   63  139 1    
   125   63  140 1    
   126   63  141 1    
   127   64   65 am   BACKBONE|DICT|INTERRES
   128   64  142 1    
   129   65   66 2    
   130   65   67 1    
   131   67   68 1    
   132   67   69 1    
   133   67  143 1    
   134   68  144 1    
   135   68  145 1    
   136   68  146 1    
   137   69   70 am   BACKBONE|DICT|INTERRES
   138   69  147 1    
   139   70   71 2    
   140   70   72 1    
   141   72   73 1    
   142   72   74 1    
   143   72  148 1    
   144   73  149 1    
   145   73  150 1    
   146   73  151 1    
   147   74   75 am   BACKBONE|DICT|INTERRES
   148   74  152 1    
   149   75   76 2    
   150   75   77 1    
   151   77   78 1    
   152   77   79 1    
   153   77  153 1    
   154   78  154 1    
   155   78  155 1    
   156   78  156 1    
   157   79   80 am   BACKBONE|DICT|INTERRES
   158   79  157 1    
   159   80   81 2    
@<TRIPOS>SUBSTRUCTURE
     1 UNK         1 GROUP             0       ****    0 ROOT    
