@<TRIPOS>MOLECULE
3R207
157   159    1
SMALL
USER_CHARGES


@<TRIPOS>ATOM
      1 CA        -45.8391  -31.9374    9.3921 C.3       0 UNK        -0.1975 
      2 C         -46.6869  -31.0742    8.4697 C.2       0 UNK         0.4852 
      3 O         -46.7350  -31.3288    7.2660 O.2       0 UNK        -0.5216 
      4 N         -47.3540  -30.0541    9.0268 N.am      1 UNK        -0.4461 
      5 CA        -48.2342  -29.1248    8.3053 C.3       1 UNK         0.0864 
      6 C6        -49.1134  -28.3106    9.2832 C.3       14 UNK        -0.0898 
      7 S7        -50.3085  -29.3291   10.2184 S.3       14 UNK        -0.2598 
      8 C8        -51.5447  -29.8213    8.9643 C.3       14 UNK         0.0286 
      9 C9        -52.4091  -28.6569    8.5010 C.ar      14 UNK        -0.0844 
     10 C10       -51.9352  -27.7867    7.5174 C.ar      14 UNK        -0.0881 
     11 C11       -52.6805  -26.6716    7.1335 C.ar      14 UNK        -0.0643 
     12 C12       -53.9509  -26.4727    7.6804 C.ar      14 UNK        -0.0930 
     13 C13       -54.4721  -27.3767    8.6119 C.ar      14 UNK        -0.0827 
     14 C14       -53.6875  -28.4570    9.0337 C.ar      14 UNK        -0.1249 
     15 C15       -55.8969  -27.1996    9.1220 C.3       14 UNK         0.0141 
     16 S16       -55.9533  -26.5934   10.8358 S.3       14 UNK        -0.2313 
     17 C17       -55.8645  -28.1518   11.7795 C.3       14 UNK        -0.0915 
     18 CA        -56.7201  -28.1118   13.0732 C.3       13 UNK         0.0968 
     19 C         -56.8361  -29.5210   13.7266 C.2       13 UNK         0.5732 
     20 N         -56.4968  -29.7146   14.9968 N.am      13 UNK        -0.7310 
     21 O         -57.2634  -30.4657   13.0675 O.2       13 UNK        -0.5035 
     22 N         -56.2375  -27.0785   13.9988 N.am      13 UNK        -0.4233 
     23 C         -57.0109  -26.3623   14.8238 C.2       13 UNK         0.4989 
     24 O         -58.2422  -26.4174   14.8226 O.2       13 UNK        -0.4996 
     25 CA        -56.2889  -25.4298   15.8212 C.3       12 UNK         0.0216 
     26 CB        -57.1372  -25.1258   17.0746 C.3       12 UNK        -0.1964 
     27 N         -54.9510  -25.9004   16.2038 N.am      12 UNK        -0.4276 
     28 C         -54.6409  -27.0659   16.7889 C.2       12 UNK         0.5020 
     29 O         -55.4657  -27.9204   17.1209 O.2       12 UNK        -0.5489 
     30 CA        -53.1423  -27.3534   16.9759 C.3       11 UNK         0.0294 
     31 CB        -52.8120  -27.6196   18.4533 C.3       11 UNK        -0.2019 
     32 N         -52.6782  -28.4830   16.1643 N.am      11 UNK        -0.4493 
     33 C         -52.8314  -28.6100   14.8394 C.2       11 UNK         0.4932 
     34 O         -53.4354  -27.8041   14.1328 O.2       11 UNK        -0.5029 
     35 CA        -52.0815  -29.7724   14.1782 C.3       10 UNK         0.0280 
     36 CB        -52.7406  -30.2294   12.8647 C.3       10 UNK        -0.1976 
     37 N         -50.7380  -29.2798   13.8978 N.am      10 UNK        -0.4242 
     38 C         -49.7178  -29.3383   14.7613 C.2       10 UNK         0.5072 
     39 O         -49.7065  -30.0398   15.7739 O.2       10 UNK        -0.5224 
     40 CA        -48.5531  -28.3777   14.4823 C.3       9 UNK         0.0343 
     41 CB        -47.7314  -28.8272   13.2641 C.3       9 UNK        -0.2003 
     42 N         -49.0306  -26.9987   14.3073 N.am      9 UNK        -0.4272 
     43 C         -49.5264  -26.2503   15.3078 C.2       9 UNK         0.4988 
     44 O         -49.5669  -26.6190   16.4817 O.2       9 UNK        -0.5108 
     45 CA        -50.0817  -24.8649   14.9542 C.3       8 UNK         0.0248 
     46 CB        -48.9434  -23.8751   14.6561 C.3       8 UNK        -0.2001 
     47 N         -50.9948  -24.9347   13.8118 N.am      8 UNK        -0.4140 
     48 C         -52.3177  -24.7208   13.8747 C.2       8 UNK         0.5028 
     49 O         -52.9107  -24.4531   14.9227 O.2       8 UNK        -0.5428 
     50 CA        -53.1456  -24.8425   12.5761 C.3       7 UNK         0.0264 
     51 CB        -54.1502  -23.6809   12.4216 C.3       7 UNK        -0.1988 
     52 N         -52.3560  -25.0345   11.3526 N.am      7 UNK        -0.4454 
     53 C         -51.5275  -24.1588   10.7669 C.2       7 UNK         0.5027 
     54 O         -51.3432  -23.0024   11.1510 O.2       7 UNK        -0.5083 
     55 CA        -50.7316  -24.6947    9.5621 C.3       6 UNK         0.0844 
     56 C56       -51.2025  -24.0209    8.2498 C.3       14 UNK        -0.0967 
     57 S57       -50.5827  -24.8945    6.7721 S.3       14 UNK        -0.2604 
     58 C58       -52.0990  -25.6818    6.1356 C.3       14 UNK         0.0134 
     59 N         -49.2866  -24.5451    9.7814 N.am      6 UNK        -0.4116 
     60 C         -48.6002  -25.0356   10.8268 C.2       5 UNK         0.5034 
     61 O         -49.1077  -25.7379   11.7060 O.2       5 UNK        -0.5045 
     62 CA        -47.0933  -24.7267   10.9206 C.3       5 UNK         0.0224 
     63 CB        -46.2640  -26.0183   10.8821 C.3       5 UNK        -0.1978 
     64 N         -46.6009  -23.8374    9.8707 N.am      5 UNK        -0.4737 
     65 C         -46.6605  -22.4999    9.8936 C.2       4 UNK         0.5027 
     66 O         -47.1458  -21.8497   10.8182 O.2       4 UNK        -0.5211 
     67 CA        -46.0836  -21.7723    8.6667 C.3       4 UNK         0.0297 
     68 CB        -44.6413  -21.3170    8.9391 C.3       4 UNK        -0.1993 
     69 N         -46.1046  -22.6164    7.4686 N.am      4 UNK        -0.4486 
     70 C         -47.2083  -22.9331    6.7837 C.2       3 UNK         0.4961 
     71 O         -48.3145  -22.4584    7.0355 O.2       3 UNK        -0.5105 
     72 CA        -47.0589  -23.9555    5.6422 C.3       3 UNK         0.0299 
     73 CB        -46.1499  -23.4134    4.5210 C.3       3 UNK        -0.1972 
     74 N         -46.6396  -25.3049    6.0585 N.am      3 UNK        -0.4305 
     75 C         -45.4931  -25.6972    6.6319 C.2       2 UNK         0.5006 
     76 O         -44.6356  -24.9166    7.0496 O.2       2 UNK        -0.5106 
     77 CA        -45.2502  -27.2194    6.7286 C.3       2 UNK         0.0296 
     78 CB        -43.8185  -27.5538    7.1898 C.3       2 UNK        -0.2002 
     79 N         -46.1904  -27.9334    7.5967 N.am      2 UNK        -0.4032 
     80 C         -47.4791  -28.1910    7.3309 C.2       1 UNK         0.5000 
     81 O         -48.0699  -27.7454    6.3453 O.2       1 UNK        -0.5238 
     82 H82       -46.1800  -32.9717    9.3550 H         1 UNK         0.0889 
     83 H83       -45.8898  -31.6012   10.4276 H         1 UNK         0.0889 
     84 H84       -44.7963  -31.9106    9.0774 H         1 UNK         0.0889 
     85 H85       -47.3056  -29.9209   10.0266 H         1 UNK         0.3028 
     86 H86       -48.8895  -29.7273    7.6748 H         1 UNK         0.0864 
     87 H87       -48.4770  -27.8146   10.0143 H         1 UNK         0.0720 
     88 H88       -49.6402  -27.5051    8.7778 H         1 UNK         0.0720 
     89 H89       -52.1768  -30.5972    9.3986 H         1 UNK         0.0814 
     90 H90       -51.0536  -30.2875    8.1103 H         1 UNK         0.0814 
     91 H91       -50.9645  -27.9498    7.0698 H         1 UNK         0.1469 
     92 H92       -54.5417  -25.6227    7.3675 H         1 UNK         0.1381 
     93 H93       -54.0766  -29.1496    9.7665 H         1 UNK         0.1206 
     94 H94       -56.4451  -28.1377    9.0278 H         1 UNK         0.0813 
     95 H95       -56.4321  -26.4844    8.4956 H         1 UNK         0.0813 
     96 H96       -56.1938  -28.9693   11.1366 H         1 UNK         0.0638 
     97 H97       -54.8198  -28.3501   12.0111 H         1 UNK         0.0638 
     98 H98       -57.7374  -27.8553   12.7727 H         1 UNK         0.0568 
     99 H99       -56.1659  -28.9558   15.5839 H         1 UNK         0.3450 
    100 H100      -56.5961  -30.6365   15.3895 H         1 UNK         0.3450 
    101 H101      -55.2281  -27.0376   14.1007 H         1 UNK         0.2987 
    102 H102      -56.1354  -24.4887   15.2916 H         1 UNK         0.0766 
    103 H103      -57.3850  -26.0341   17.6249 H         1 UNK         0.0798 
    104 H104      -56.6134  -24.4540   17.7546 H         1 UNK         0.0798 
    105 H105      -58.0771  -24.6423   16.8054 H         1 UNK         0.0798 
    106 H106      -54.1807  -25.3102   15.8828 H         1 UNK         0.3198 
    107 H107      -52.5724  -26.4772   16.6613 H         1 UNK         0.0843 
    108 H108      -53.3037  -28.5212   18.8209 H         1 UNK         0.0831 
    109 H109      -53.1402  -26.7902   19.0813 H         1 UNK         0.0831 
    110 H110      -51.7382  -27.7338   18.6049 H         1 UNK         0.0831 
    111 H111      -52.1286  -29.1816   16.6448 H         1 UNK         0.3133 
    112 H112      -52.0539  -30.6216   14.8642 H         1 UNK         0.0566 
    113 H113      -52.2120  -31.0803   12.4350 H         1 UNK         0.0814 
    114 H114      -53.7735  -30.5371   13.0325 H         1 UNK         0.0814 
    115 H115      -52.7497  -29.4366   12.1162 H         1 UNK         0.0814 
    116 H116      -50.6516  -28.6646   13.1015 H         1 UNK         0.3091 
    117 H117      -47.8945  -28.4045   15.3534 H         1 UNK         0.0702 
    118 H118      -46.7689  -28.3184   13.2392 H         1 UNK         0.0785 
    119 H119      -48.2491  -28.6280   12.3267 H         1 UNK         0.0785 
    120 H120      -47.5217  -29.8972   13.3033 H         1 UNK         0.0785 
    121 H121      -49.0165  -26.6168   13.3651 H         1 UNK         0.2998 
    122 H122      -50.6096  -24.4944   15.8355 H         1 UNK         0.0697 
    123 H123      -48.3308  -24.1955   13.8152 H         1 UNK         0.0825 
    124 H124      -48.2828  -23.7723   15.5180 H         1 UNK         0.0825 
    125 H125      -49.3331  -22.8833   14.4258 H         1 UNK         0.0825 
    126 H126      -50.5791  -25.1721   12.9176 H         1 UNK         0.3029 
    127 H127      -53.7321  -25.7535   12.6833 H         1 UNK         0.0897 
    128 H128      -54.7278  -23.7746   11.5021 H         1 UNK         0.0792 
    129 H129      -54.8620  -23.6687   13.2474 H         1 UNK         0.0792 
    130 H130      -53.6532  -22.7107   12.4105 H         1 UNK         0.0792 
    131 H131      -52.4255  -25.9591   10.9477 H         1 UNK         0.3086 
    132 H132      -50.9345  -25.7638    9.4847 H         1 UNK         0.0583 
    133 H133      -52.2925  -23.9790    8.2011 H         1 UNK         0.1020 
    134 H134      -50.8646  -22.9834    8.2091 H         1 UNK         0.1020 
    135 H135      -52.8245  -24.9084    5.8786 H         1 UNK         0.0694 
    136 H136      -51.8630  -26.2056    5.2084 H         1 UNK         0.0694 
    137 H137      -48.7985  -23.9654    9.1140 H         1 UNK         0.2989 
    138 H138      -46.9275  -24.2487   11.8881 H         1 UNK         0.1055 
    139 H139      -45.2037  -25.8139   11.0327 H         1 UNK         0.0806 
    140 H140      -46.3727  -26.5380    9.9326 H         1 UNK         0.0806 
    141 H141      -46.5717  -26.7030   11.6694 H         1 UNK         0.0806 
    142 H142      -46.1643  -24.2723    9.0700 H         1 UNK         0.3061 
    143 H143      -46.6970  -20.8874    8.4830 H         1 UNK         0.0734 
    144 H144      -44.5957  -20.6711    9.8171 H         1 UNK         0.0832 
    145 H145      -43.9777  -22.1634    9.1216 H         1 UNK         0.0832 
    146 H146      -44.2393  -20.7498    8.0996 H         1 UNK         0.0832 
    147 H147      -45.2574  -23.1318    7.2411 H         1 UNK         0.3156 
    148 H148      -48.0530  -24.0821    5.2108 H         1 UNK         0.0589 
    149 H149      -45.1153  -23.2994    4.8459 H         1 UNK         0.0808 
    150 H150      -46.1551  -24.0758    3.6553 H         1 UNK         0.0808 
    151 H151      -46.4924  -22.4353    4.1804 H         1 UNK         0.0808 
    152 H152      -47.3089  -26.0458    5.8586 H         1 UNK         0.3098 
    153 H153      -45.3649  -27.6163    5.7176 H         1 UNK         0.0720 
    154 H154      -43.6302  -28.6272    7.1563 H         1 UNK         0.0791 
    155 H155      -43.6311  -27.2106    8.2082 H         1 UNK         0.0791 
    156 H156      -43.0778  -27.0790    6.5446 H         1 UNK         0.0791 
    157 H157      -45.7969  -28.3470    8.4287 H         1 UNK         0.3028 
@<TRIPOS>BOND
     1    1    2 1    
     2    1   82 1    
     3    1   83 1    
     4    1   84 1    
     5    2    3 2    
     6    2    4 am   BACKBONE|DICT|INTERRES
     7    4    5 1    
     8    4   85 1    
     9    5    6 1    
    10    5   80 1    
    11    5   86 1    
    12    6    7 1    
    13    6   87 1    
    14    6   88 1    
    15    7    8 1    
    16    8    9 1    
    17    8   89 1    
    18    8   90 1    
    19    9   10 ar   
    20    9   14 ar   
    21   10   11 ar   
    22   10   91 1    
    23   11   12 ar   
    24   11   58 1    
    25   12   13 ar   
    26   12   92 1    
    27   13   14 ar   
    28   13   15 1    
    29   14   93 1    
    30   15   16 1    
    31   15   94 1    
    32   15   95 1    
    33   16   17 1    
    34   17   18 1    
    35   17   96 1    
    36   17   97 1    
    37   18   19 1    
    38   18   22 1    
    39   18   98 1    
    40   19   20 am   BACKBONE|DICT|INTERRES
    41   19   21 2    
    42   20   99 1    
    43   20  100 1    
    44   22   23 am   BACKBONE|DICT|INTERRES
    45   22  101 1    
    46   23   24 2    
    47   23   25 1    
    48   25   26 1    
    49   25   27 1    
    50   25  102 1    
    51   26  103 1    
    52   26  104 1    
    53   26  105 1    
    54   27   28 am   BACKBONE|DICT|INTERRES
    55   27  106 1    
    56   28   29 2    
    57   28   30 1    
    58   30   31 1    
    59   30   32 1    
    60   30  107 1    
    61   31  108 1    
    62   31  109 1    
    63   31  110 1    
    64   32   33 am   BACKBONE|DICT|INTERRES
    65   32  111 1    
    66   33   34 2    
    67   33   35 1    
    68   35   36 1    
    69   35   37 1    
    70   35  112 1    
    71   36  113 1    
    72   36  114 1    
    73   36  115 1    
    74   37   38 am   BACKBONE|DICT|INTERRES
    75   37  116 1    
    76   38   39 2    
    77   38   40 1    
    78   40   41 1    
    79   40   42 1    
    80   40  117 1    
    81   41  118 1    
    82   41  119 1    
    83   41  120 1    
    84   42   43 am   BACKBONE|DICT|INTERRES
    85   42  121 1    
    86   43   44 2    
    87   43   45 1    
    88   45   46 1    
    89   45   47 1    
    90   45  122 1    
    91   46  123 1    
    92   46  124 1    
    93   46  125 1    
    94   47   48 am   BACKBONE|DICT|INTERRES
    95   47  126 1    
    96   48   49 2    
    97   48   50 1    
    98   50   51 1    
    99   50   52 1    
   100   50  127 1    
   101   51  128 1    
   102   51  129 1    
   103   51  130 1    
   104   52   53 am   BACKBONE|DICT|INTERRES
   105   52  131 1    
   106   53   54 2    
   107   53   55 1    
   108   55   56 1    
   109   55   59 1    
   110   55  132 1    
   111   56   57 1    
   112   56  133 1    
   113   56  134 1    
   114   57   58 1    
   115   58  135 1    
   116   58  136 1    
   117   59   60 am   BACKBONE|DICT|INTERRES
   118   59  137 1    
   119   60   61 2    
   120   60   62 1    
   121   62   63 1    
   122   62   64 1    
   123   62  138 1    
   124   63  139 1    
   125   63  140 1    
   126   63  141 1    
   127   64   65 am   BACKBONE|DICT|INTERRES
   128   64  142 1    
   129   65   66 2    
   130   65   67 1    
   131   67   68 1    
   132   67   69 1    
   133   67  143 1    
   134   68  144 1    
   135   68  145 1    
   136   68  146 1    
   137   69   70 am   BACKBONE|DICT|INTERRES
   138   69  147 1    
   139   70   71 2    
   140   70   72 1    
   141   72   73 1    
   142   72   74 1    
   143   72  148 1    
   144   73  149 1    
   145   73  150 1    
   146   73  151 1    
   147   74   75 am   BACKBONE|DICT|INTERRES
   148   74  152 1    
   149   75   76 2    
   150   75   77 1    
   151   77   78 1    
   152   77   79 1    
   153   77  153 1    
   154   78  154 1    
   155   78  155 1    
   156   78  156 1    
   157   79   80 am   BACKBONE|DICT|INTERRES
   158   79  157 1    
   159   80   81 2    
@<TRIPOS>SUBSTRUCTURE
     1 UNK         1 GROUP             0       ****    0 ROOT    
