@<TRIPOS>MOLECULE
3R207
157   159    1
SMALL
USER_CHARGES


@<TRIPOS>ATOM
      1 CA        -45.0746  -31.2709    3.2567 C.3       0 UNK        -0.1975 
      2 C         -46.2229  -30.3057    3.0017 C.2       0 UNK         0.4852 
      3 O         -46.1739  -29.5384    2.0396 O.2       0 UNK        -0.5216 
      4 N         -47.2556  -30.3386    3.8560 N.am      1 UNK        -0.4461 
      5 CA        -48.4411  -29.4748    3.7736 C.3       1 UNK         0.0864 
      6 C6        -49.5861  -30.0158    4.6710 C.3       14 UNK        -0.0898 
      7 S7        -51.2342  -29.4631    4.1196 S.3       14 UNK        -0.2598 
      8 C8        -52.3239  -30.4306    5.2102 C.3       14 UNK         0.0286 
      9 C9        -52.3450  -29.8810    6.6294 C.ar      14 UNK        -0.0844 
     10 C10       -51.5737  -30.4773    7.6325 C.ar      14 UNK        -0.0881 
     11 C11       -51.6071  -29.9838    8.9405 C.ar      14 UNK        -0.0643 
     12 C12       -52.4231  -28.8898    9.2425 C.ar      14 UNK        -0.0930 
     13 C13       -53.2075  -28.2945    8.2513 C.ar      14 UNK        -0.0827 
     14 C14       -53.1613  -28.7902    6.9453 C.ar      14 UNK        -0.1249 
     15 C15       -54.1222  -27.1351    8.6076 C.3       14 UNK         0.0141 
     16 S16       -55.6578  -27.7583    9.3531 S.3       14 UNK        -0.2313 
     17 C17       -56.4150  -26.2213    9.9792 C.3       14 UNK        -0.0915 
     18 CA        -55.8103  -25.7301   11.3230 C.3       13 UNK         0.0968 
     19 C         -56.6010  -24.5087   11.8662 C.2       13 UNK         0.5732 
     20 N         -56.2305  -23.3003   11.4650 N.am      13 UNK        -0.7310 
     21 O         -57.5720  -24.6512   12.6077 O.2       13 UNK        -0.5035 
     22 N         -55.6831  -26.8216   12.2998 N.am      13 UNK        -0.4233 
     23 C         -55.0007  -26.7422   13.4458 C.2       13 UNK         0.4989 
     24 O         -54.4536  -25.7139   13.8514 O.2       13 UNK        -0.4996 
     25 CA        -54.8761  -28.0395   14.2570 C.3       12 UNK         0.0216 
     26 CB        -54.1893  -29.1635   13.4540 C.3       12 UNK        -0.1964 
     27 N         -54.0953  -27.7487   15.4530 N.am      12 UNK        -0.4276 
     28 C         -54.1993  -28.3455   16.6436 C.2       12 UNK         0.5020 
     29 O         -54.9418  -29.3013   16.8728 O.2       12 UNK        -0.5489 
     30 CA        -53.3313  -27.7701   17.7756 C.3       11 UNK         0.0294 
     31 CB        -52.0272  -28.5724   17.9101 C.3       11 UNK        -0.2019 
     32 N         -53.0039  -26.3612   17.5449 N.am      11 UNK        -0.4493 
     33 C         -53.8123  -25.3325   17.8311 C.2       11 UNK         0.4932 
     34 O         -54.8989  -25.4566   18.3994 O.2       11 UNK        -0.5029 
     35 CA        -53.3120  -23.9366   17.4043 C.3       10 UNK         0.0280 
     36 CB        -54.1599  -22.7857   17.9862 C.3       10 UNK        -0.1976 
     37 N         -51.8865  -23.7307   17.6911 N.am      10 UNK        -0.4242 
     38 C         -51.2694  -23.8000   18.8808 C.2       10 UNK         0.5072 
     39 O         -51.8521  -23.9980   19.9487 O.2       10 UNK        -0.5224 
     40 CA        -49.7327  -23.6517   18.8603 C.3       9 UNK         0.0343 
     41 CB        -49.0976  -23.8299   20.2526 C.3       9 UNK        -0.2003 
     42 N         -49.1148  -24.6057   17.9342 N.am      9 UNK        -0.4272 
     43 C         -49.0428  -24.4550   16.6055 C.2       9 UNK         0.4988 
     44 O         -49.4337  -23.4395   16.0248 O.2       9 UNK        -0.5108 
     45 CA        -48.4764  -25.6304   15.7822 C.3       8 UNK         0.0248 
     46 CB        -48.3938  -26.9643   16.5589 C.3       8 UNK        -0.2001 
     47 N         -49.2098  -25.8208   14.5260 N.am      8 UNK        -0.4140 
     48 C         -50.5271  -26.0406   14.3796 C.2       8 UNK         0.5028 
     49 O         -51.3166  -26.1455   15.3210 O.2       8 UNK        -0.5428 
     50 CA        -51.0715  -26.1581   12.9425 C.3       7 UNK         0.0264 
     51 CB        -51.6422  -24.8036   12.4904 C.3       7 UNK        -0.1988 
     52 N         -50.0947  -26.6086   11.9469 N.am      7 UNK        -0.4454 
     53 C         -49.4094  -27.7619   11.9766 C.2       7 UNK         0.5027 
     54 O         -49.5957  -28.6433   12.8161 O.2       7 UNK        -0.5083 
     55 CA        -48.2887  -27.9355   10.9251 C.3       6 UNK         0.0844 
     56 C56       -48.8035  -28.6205    9.6371 C.3       14 UNK        -0.0967 
     57 S57       -48.9794  -30.4306    9.7730 S.3       14 UNK        -0.2604 
     58 C58       -50.7718  -30.6343   10.0352 C.3       14 UNK         0.0134 
     59 N         -47.6144  -26.6758   10.5942 N.am      6 UNK        -0.4116 
     60 C         -46.9736  -25.8590   11.4420 C.2       5 UNK         0.5034 
     61 O         -46.8718  -26.0571   12.6523 O.2       5 UNK        -0.5045 
     62 CA        -46.3796  -24.5825   10.8313 C.3       5 UNK         0.0224 
     63 CB        -45.0517  -24.8835   10.1165 C.3       5 UNK        -0.1978 
     64 N         -47.3200  -23.9731    9.8886 N.am      5 UNK        -0.4737 
     65 C         -48.2900  -23.1193   10.2419 C.2       4 UNK         0.5027 
     66 O         -48.4328  -22.6835   11.3839 O.2       4 UNK        -0.5211 
     67 CA        -49.2752  -22.6786    9.1434 C.3       4 UNK         0.0297 
     68 CB        -48.7808  -21.3908    8.4657 C.3       4 UNK        -0.1993 
     69 N         -49.5219  -23.7010    8.1218 N.am      4 UNK        -0.4486 
     70 C         -50.1307  -24.8729    8.3496 C.2       3 UNK         0.4961 
     71 O         -50.5422  -25.2306    9.4517 O.2       3 UNK        -0.5105 
     72 CA        -50.2644  -25.8306    7.1546 C.3       3 UNK         0.0299 
     73 CB        -51.4872  -25.4609    6.3013 C.3       3 UNK        -0.1972 
     74 N         -49.0829  -25.9280    6.2897 N.am      3 UNK        -0.4305 
     75 C         -47.8129  -26.1224    6.6729 C.2       2 UNK         0.5006 
     76 O         -47.4352  -26.1004    7.8450 O.2       2 UNK        -0.5106 
     77 CA        -46.8120  -26.4577    5.5525 C.3       2 UNK         0.0296 
     78 CB        -45.3541  -26.4721    6.0497 C.3       2 UNK        -0.2002 
     79 N         -47.1331  -27.7647    4.9751 N.am      2 UNK        -0.4032 
     80 C         -48.1279  -27.9984    4.1058 C.2       1 UNK         0.5000 
     81 O         -48.8036  -27.0986    3.6006 O.2       1 UNK        -0.5238 
     82 H82       -45.2500  -31.8921    4.1349 H         1 UNK         0.0889 
     83 H83       -44.1480  -30.7188    3.4115 H         1 UNK         0.0889 
     84 H84       -44.9402  -31.9285    2.3983 H         1 UNK         0.0889 
     85 H85       -47.2440  -31.0022    4.6180 H         1 UNK         0.3028 
     86 H86       -48.7777  -29.5027    2.7345 H         1 UNK         0.0864 
     87 H87       -49.5945  -31.1067    4.6445 H         1 UNK         0.0720 
     88 H88       -49.4391  -29.7405    5.7177 H         1 UNK         0.0720 
     89 H89       -52.0180  -31.4779    5.2034 H         1 UNK         0.0814 
     90 H90       -53.3350  -30.4103    4.8007 H         1 UNK         0.0814 
     91 H91       -50.9435  -31.3244    7.3983 H         1 UNK         0.1469 
     92 H92       -52.4609  -28.5064   10.2533 H         1 UNK         0.1381 
     93 H93       -53.7683  -28.3345    6.1749 H         1 UNK         0.1206 
     94 H94       -53.6098  -26.4670    9.3016 H         1 UNK         0.0813 
     95 H95       -54.3640  -26.5447    7.7228 H         1 UNK         0.0813 
     96 H96       -57.4835  -26.4139   10.0938 H         1 UNK         0.0638 
     97 H97       -56.3267  -25.4485    9.2133 H         1 UNK         0.0638 
     98 H98       -54.7936  -25.3888   11.1194 H         1 UNK         0.0568 
     99 H99       -56.7436  -22.4982   11.7953 H         1 UNK         0.3450 
    100 H100      -55.4449  -23.1713   10.8472 H         1 UNK         0.3450 
    101 H101      -56.1174  -27.6936   12.0382 H         1 UNK         0.2987 
    102 H102      -55.8819  -28.3519   14.5456 H         1 UNK         0.0766 
    103 H103      -54.0944  -30.0712   14.0504 H         1 UNK         0.0798 
    104 H104      -53.1888  -28.8768   13.1290 H         1 UNK         0.0798 
    105 H105      -54.7595  -29.4276   12.5628 H         1 UNK         0.0798 
    106 H106      -53.4904  -26.9375   15.3664 H         1 UNK         0.3198 
    107 H107      -53.8901  -27.8598   18.7098 H         1 UNK         0.0843 
    108 H108      -51.4455  -28.5515   16.9875 H         1 UNK         0.0831 
    109 H109      -52.2366  -29.6183   18.1386 H         1 UNK         0.0831 
    110 H110      -51.4012  -28.1833   18.7132 H         1 UNK         0.0831 
    111 H111      -52.1796  -26.1780   16.9743 H         1 UNK         0.3133 
    112 H112      -53.4101  -23.9020   16.3180 H         1 UNK         0.0566 
    113 H113      -53.7998  -21.8155   17.6444 H         1 UNK         0.0814 
    114 H114      -55.2014  -22.8717   17.6738 H         1 UNK         0.0814 
    115 H115      -54.1468  -22.7840   19.0766 H         1 UNK         0.0814 
    116 H116      -51.2901  -23.5873   16.8815 H         1 UNK         0.3091 
    117 H117      -49.5128  -22.6356   18.5254 H         1 UNK         0.0702 
    118 H118      -48.0182  -23.6809   20.2182 H         1 UNK         0.0785 
    119 H119      -49.2869  -24.8241   20.6595 H         1 UNK         0.0785 
    120 H120      -49.4995  -23.1046   20.9615 H         1 UNK         0.0785 
    121 H121      -48.8039  -25.4796   18.3330 H         1 UNK         0.2998 
    122 H122      -47.4624  -25.3448   15.4993 H         1 UNK         0.0697 
    123 H123      -49.3643  -27.2692   16.9508 H         1 UNK         0.0825 
    124 H124      -47.6983  -26.8981   17.3962 H         1 UNK         0.0825 
    125 H125      -48.0348  -27.7676   15.9150 H         1 UNK         0.0825 
    126 H126      -48.6406  -25.7598   13.6892 H         1 UNK         0.3029 
    127 H127      -51.8825  -26.8866   12.9657 H         1 UNK         0.0897 
    128 H128      -52.2276  -24.9070   11.5769 H         1 UNK         0.0792 
    129 H129      -52.2998  -24.3752   13.2477 H         1 UNK         0.0792 
    130 H130      -50.8514  -24.0760   12.3035 H         1 UNK         0.0792 
    131 H131      -49.9532  -25.9868   11.1550 H         1 UNK         0.3086 
    132 H132      -47.5243  -28.5738   11.3731 H         1 UNK         0.0583 
    133 H133      -49.7242  -28.1540    9.2901 H         1 UNK         0.1020 
    134 H134      -48.0873  -28.4685    8.8288 H         1 UNK         0.1020 
    135 H135      -51.0019  -31.6998   10.0727 H         1 UNK         0.0694 
    136 H136      -51.0354  -30.2332   11.0149 H         1 UNK         0.0694 
    137 H137      -47.6146  -26.4202    9.6087 H         1 UNK         0.2989 
    138 H138      -46.1744  -23.8844   11.6464 H         1 UNK         0.1055 
    139 H139      -44.3301  -25.3237   10.8061 H         1 UNK         0.0806 
    140 H140      -44.6034  -23.9737    9.7170 H         1 UNK         0.0806 
    141 H141      -45.1800  -25.5830    9.2896 H         1 UNK         0.0806 
    142 H142      -47.3131  -24.3360    8.9422 H         1 UNK         0.3061 
    143 H143      -50.2285  -22.4629    9.6311 H         1 UNK         0.0734 
    144 H144      -49.5104  -21.0123    7.7495 H         1 UNK         0.0832 
    145 H145      -48.6144  -20.6028    9.2018 H         1 UNK         0.0832 
    146 H146      -47.8390  -21.5469    7.9382 H         1 UNK         0.0832 
    147 H147      -49.2024  -23.5029    7.1846 H         1 UNK         0.3156 
    148 H148      -50.4396  -26.8285    7.5584 H         1 UNK         0.0589 
    149 H149      -51.3410  -24.5203    5.7692 H         1 UNK         0.0808 
    150 H150      -51.7022  -26.2357    5.5645 H         1 UNK         0.0808 
    151 H151      -52.3779  -25.3496    6.9200 H         1 UNK         0.0808 
    152 H152      -49.2681  -26.0201    5.2958 H         1 UNK         0.3098 
    153 H153      -46.8983  -25.6882    4.7824 H         1 UNK         0.0720 
    154 H154      -44.6594  -26.6719    5.2337 H         1 UNK         0.0791 
    155 H155      -45.1939  -27.2285    6.8194 H         1 UNK         0.0791 
    156 H156      -45.0795  -25.5077    6.4794 H         1 UNK         0.0791 
    157 H157      -46.6357  -28.5585    5.3510 H         1 UNK         0.3028 
@<TRIPOS>BOND
     1    1    2 1    
     2    1   82 1    
     3    1   83 1    
     4    1   84 1    
     5    2    3 2    
     6    2    4 am   BACKBONE|DICT|INTERRES
     7    4    5 1    
     8    4   85 1    
     9    5    6 1    
    10    5   80 1    
    11    5   86 1    
    12    6    7 1    
    13    6   87 1    
    14    6   88 1    
    15    7    8 1    
    16    8    9 1    
    17    8   89 1    
    18    8   90 1    
    19    9   10 ar   
    20    9   14 ar   
    21   10   11 ar   
    22   10   91 1    
    23   11   12 ar   
    24   11   58 1    
    25   12   13 ar   
    26   12   92 1    
    27   13   14 ar   
    28   13   15 1    
    29   14   93 1    
    30   15   16 1    
    31   15   94 1    
    32   15   95 1    
    33   16   17 1    
    34   17   18 1    
    35   17   96 1    
    36   17   97 1    
    37   18   19 1    
    38   18   22 1    
    39   18   98 1    
    40   19   20 am   BACKBONE|DICT|INTERRES
    41   19   21 2    
    42   20   99 1    
    43   20  100 1    
    44   22   23 am   BACKBONE|DICT|INTERRES
    45   22  101 1    
    46   23   24 2    
    47   23   25 1    
    48   25   26 1    
    49   25   27 1    
    50   25  102 1    
    51   26  103 1    
    52   26  104 1    
    53   26  105 1    
    54   27   28 am   BACKBONE|DICT|INTERRES
    55   27  106 1    
    56   28   29 2    
    57   28   30 1    
    58   30   31 1    
    59   30   32 1    
    60   30  107 1    
    61   31  108 1    
    62   31  109 1    
    63   31  110 1    
    64   32   33 am   BACKBONE|DICT|INTERRES
    65   32  111 1    
    66   33   34 2    
    67   33   35 1    
    68   35   36 1    
    69   35   37 1    
    70   35  112 1    
    71   36  113 1    
    72   36  114 1    
    73   36  115 1    
    74   37   38 am   BACKBONE|DICT|INTERRES
    75   37  116 1    
    76   38   39 2    
    77   38   40 1    
    78   40   41 1    
    79   40   42 1    
    80   40  117 1    
    81   41  118 1    
    82   41  119 1    
    83   41  120 1    
    84   42   43 am   BACKBONE|DICT|INTERRES
    85   42  121 1    
    86   43   44 2    
    87   43   45 1    
    88   45   46 1    
    89   45   47 1    
    90   45  122 1    
    91   46  123 1    
    92   46  124 1    
    93   46  125 1    
    94   47   48 am   BACKBONE|DICT|INTERRES
    95   47  126 1    
    96   48   49 2    
    97   48   50 1    
    98   50   51 1    
    99   50   52 1    
   100   50  127 1    
   101   51  128 1    
   102   51  129 1    
   103   51  130 1    
   104   52   53 am   BACKBONE|DICT|INTERRES
   105   52  131 1    
   106   53   54 2    
   107   53   55 1    
   108   55   56 1    
   109   55   59 1    
   110   55  132 1    
   111   56   57 1    
   112   56  133 1    
   113   56  134 1    
   114   57   58 1    
   115   58  135 1    
   116   58  136 1    
   117   59   60 am   BACKBONE|DICT|INTERRES
   118   59  137 1    
   119   60   61 2    
   120   60   62 1    
   121   62   63 1    
   122   62   64 1    
   123   62  138 1    
   124   63  139 1    
   125   63  140 1    
   126   63  141 1    
   127   64   65 am   BACKBONE|DICT|INTERRES
   128   64  142 1    
   129   65   66 2    
   130   65   67 1    
   131   67   68 1    
   132   67   69 1    
   133   67  143 1    
   134   68  144 1    
   135   68  145 1    
   136   68  146 1    
   137   69   70 am   BACKBONE|DICT|INTERRES
   138   69  147 1    
   139   70   71 2    
   140   70   72 1    
   141   72   73 1    
   142   72   74 1    
   143   72  148 1    
   144   73  149 1    
   145   73  150 1    
   146   73  151 1    
   147   74   75 am   BACKBONE|DICT|INTERRES
   148   74  152 1    
   149   75   76 2    
   150   75   77 1    
   151   77   78 1    
   152   77   79 1    
   153   77  153 1    
   154   78  154 1    
   155   78  155 1    
   156   78  156 1    
   157   79   80 am   BACKBONE|DICT|INTERRES
   158   79  157 1    
   159   80   81 2    
@<TRIPOS>SUBSTRUCTURE
     1 UNK         1 GROUP             0       ****    0 ROOT    
