@<TRIPOS>MOLECULE
3R207
157   159    1
SMALL
USER_CHARGES


@<TRIPOS>ATOM
      1 CA        -44.9195  -30.2911    5.6771 C.3       0 UNK        -0.1975 
      2 C         -45.9709  -29.8603    4.6652 C.2       0 UNK         0.4852 
      3 O         -45.6240  -29.4874    3.5440 O.2       0 UNK        -0.5216 
      4 N         -47.2519  -29.9128    5.0534 N.am      1 UNK        -0.4461 
      5 CA        -48.4045  -29.4907    4.2464 C.3       1 UNK         0.0864 
      6 C6        -49.7422  -29.9972    4.8462 C.3       14 UNK        -0.0898 
      7 S7        -49.9610  -29.5364    6.5987 S.3       14 UNK        -0.2598 
      8 C8        -51.7551  -29.7156    6.8151 C.3       14 UNK         0.0286 
      9 C9        -52.1921  -29.0700    8.1200 C.ar      14 UNK        -0.0844 
     10 C10       -52.6950  -27.7664    8.1216 C.ar      14 UNK        -0.0881 
     11 C11       -53.0579  -27.1460    9.3200 C.ar      14 UNK        -0.0643 
     12 C12       -52.9269  -27.8467   10.5206 C.ar      14 UNK        -0.0930 
     13 C13       -52.4410  -29.1564   10.5350 C.ar      14 UNK        -0.0827 
     14 C14       -52.0681  -29.7610    9.3289 C.ar      14 UNK        -0.1249 
     15 C15       -52.2819  -29.8769   11.8689 C.3       14 UNK         0.0141 
     16 S16       -52.8350  -31.6149   11.8543 S.3       14 UNK        -0.2313 
     17 C17       -54.5875  -31.5063   11.3334 C.3       14 UNK        -0.0915 
     18 CA        -55.5833  -30.7536   12.2660 C.3       13 UNK         0.0968 
     19 C         -55.3899  -31.0547   13.7823 C.2       13 UNK         0.5732 
     20 N         -55.7723  -32.2446   14.2268 N.am      13 UNK        -0.7310 
     21 O         -54.8762  -30.2411   14.5480 O.2       13 UNK        -0.5035 
     22 N         -55.6428  -29.3226   11.9339 N.am      13 UNK        -0.4233 
     23 C         -56.5793  -28.4747   12.3763 C.2       13 UNK         0.4989 
     24 O         -57.5317  -28.8021   13.0884 O.2       13 UNK        -0.4996 
     25 CA        -56.4567  -27.0111   11.9277 C.3       12 UNK         0.0216 
     26 CB        -57.6355  -26.6040   11.0281 C.3       12 UNK        -0.1964 
     27 N         -56.4152  -26.1458   13.1054 N.am      12 UNK        -0.4276 
     28 C         -55.3051  -25.9184   13.8153 C.2       12 UNK         0.5020 
     29 O         -54.1808  -26.2835   13.4617 O.2       12 UNK        -0.5489 
     30 CA        -55.4773  -25.1847   15.1517 C.3       11 UNK         0.0294 
     31 CB        -56.1869  -26.0956   16.1761 C.3       11 UNK        -0.2019 
     32 N         -54.1436  -24.8280   15.6229 N.am      11 UNK        -0.4493 
     33 C         -53.8146  -24.0851   16.6850 C.2       11 UNK         0.4932 
     34 O         -54.6386  -23.5152   17.4024 O.2       11 UNK        -0.5029 
     35 CA        -52.3069  -23.9535   16.9877 C.3       10 UNK         0.0280 
     36 CB        -52.0091  -23.6594   18.4732 C.3       10 UNK        -0.1976 
     37 N         -51.5252  -25.0979   16.5004 N.am      10 UNK        -0.4242 
     38 C         -51.5973  -26.3761   16.9042 C.2       10 UNK         0.5072 
     39 O         -52.2953  -26.7690   17.8398 O.2       10 UNK        -0.5224 
     40 CA        -50.7643  -27.4030   16.1164 C.3       9 UNK         0.0343 
     41 CB        -51.6133  -28.0507   15.0121 C.3       9 UNK        -0.2003 
     42 N         -49.5511  -26.8377   15.5203 N.am      9 UNK        -0.4272 
     43 C         -48.4602  -26.4953   16.2205 C.2       9 UNK         0.4988 
     44 O         -48.3493  -26.6506   17.4374 O.2       9 UNK        -0.5108 
     45 CA        -47.2947  -25.8723   15.4349 C.3       8 UNK         0.0248 
     46 CB        -46.4969  -26.9587   14.6956 C.3       8 UNK        -0.2001 
     47 N         -47.7276  -24.8398   14.4897 N.am      8 UNK        -0.4140 
     48 C         -48.2723  -23.6660   14.8444 C.2       8 UNK         0.5028 
     49 O         -48.4354  -23.3089   16.0114 O.2       8 UNK        -0.5428 
     50 CA        -48.7340  -22.7357   13.7098 C.3       7 UNK         0.0264 
     51 CB        -47.5470  -21.9549   13.1239 C.3       7 UNK        -0.1988 
     52 N         -49.4340  -23.4430   12.6366 N.am      7 UNK        -0.4454 
     53 C         -50.5951  -24.0997   12.7810 C.2       7 UNK         0.5027 
     54 O         -51.2277  -24.1536   13.8346 O.2       7 UNK        -0.5083 
     55 CA        -51.1143  -24.8529   11.5432 C.3       6 UNK         0.0844 
     56 C56       -51.8356  -23.8705   10.5830 C.3       14 UNK        -0.0967 
     57 S57       -52.2461  -24.5401    8.9360 S.3       14 UNK        -0.2604 
     58 C58       -53.5801  -25.7176    9.3059 C.3       14 UNK         0.0134 
     59 N         -50.0400  -25.6204   10.9091 N.am      6 UNK        -0.4116 
     60 C         -49.3704  -26.6280   11.4886 C.2       5 UNK         0.5034 
     61 O         -49.6049  -27.0579   12.6180 O.2       5 UNK        -0.5045 
     62 CA        -48.1960  -27.2150   10.6940 C.3       5 UNK         0.0224 
     63 CB        -48.7003  -28.2397    9.6696 C.3       5 UNK        -0.1978 
     64 N         -47.4189  -26.1718   10.0192 N.am      5 UNK        -0.4737 
     65 C         -46.6560  -25.2760   10.6654 C.2       4 UNK         0.5027 
     66 O         -46.4898  -25.2799   11.8841 O.2       4 UNK        -0.5211 
     67 CA        -46.0083  -24.1575    9.8283 C.3       4 UNK         0.0297 
     68 CB        -44.6344  -24.6052    9.3063 C.3       4 UNK        -0.1993 
     69 N         -46.8394  -23.7231    8.7040 N.am      4 UNK        -0.4486 
     70 C         -48.0771  -23.2212    8.8140 C.2       3 UNK         0.4961 
     71 O         -48.6101  -22.9603    9.8930 O.2       3 UNK        -0.5105 
     72 CA        -48.8766  -23.0127    7.5135 C.3       3 UNK         0.0299 
     73 CB        -48.8848  -21.5244    7.1308 C.3       3 UNK        -0.1972 
     74 N         -48.4391  -23.8073    6.3553 N.am      3 UNK        -0.4305 
     75 C         -48.3093  -25.1417    6.3029 C.2       2 UNK         0.5006 
     76 O         -48.4539  -25.8900    7.2732 O.2       2 UNK        -0.5106 
     77 CA        -47.9009  -25.7238    4.9437 C.3       2 UNK         0.0296 
     78 CB        -46.4511  -25.3450    4.5872 C.3       2 UNK        -0.2002 
     79 N         -48.0133  -27.1786    4.9857 N.am      2 UNK        -0.4032 
     80 C         -48.4225  -27.9670    3.9841 C.2       1 UNK         0.5000 
     81 O         -48.7778  -27.5465    2.8807 O.2       1 UNK        -0.5238 
     82 H82       -45.3650  -30.5963    6.6239 H         1 UNK         0.0889 
     83 H83       -44.2318  -29.4694    5.8756 H         1 UNK         0.0889 
     84 H84       -44.3447  -31.1305    5.2867 H         1 UNK         0.0889 
     85 H85       -47.4796  -30.2319    5.9850 H         1 UNK         0.3028 
     86 H86       -48.2939  -29.9640    3.2681 H         1 UNK         0.0864 
     87 H87       -50.5874  -29.6307    4.2603 H         1 UNK         0.0720 
     88 H88       -49.7841  -31.0855    4.7795 H         1 UNK         0.0720 
     89 H89       -52.0207  -30.7737    6.8086 H         1 UNK         0.0814 
     90 H90       -52.2774  -29.2565    5.9744 H         1 UNK         0.0814 
     91 H91       -52.7807  -27.2206    7.1919 H         1 UNK         0.1469 
     92 H92       -53.1863  -27.3652   11.4512 H         1 UNK         0.1381 
     93 H93       -51.6649  -30.7644    9.3306 H         1 UNK         0.1206 
     94 H94       -51.2283  -29.8481   12.1497 H         1 UNK         0.0813 
     95 H95       -52.8211  -29.3516   12.6587 H         1 UNK         0.0813 
     96 H96       -54.9291  -32.5373   11.2299 H         1 UNK         0.0638 
     97 H97       -54.6271  -31.0993   10.3217 H         1 UNK         0.0638 
     98 H98       -56.5771  -31.1326   12.0187 H         1 UNK         0.0568 
     99 H99       -55.6445  -32.4645   15.2020 H         1 UNK         0.3450 
    100 H100      -56.1790  -32.9283   13.6080 H         1 UNK         0.3450 
    101 H101      -54.8837  -28.9732   11.3682 H         1 UNK         0.2987 
    102 H102      -55.5406  -26.8857   11.3509 H         1 UNK         0.0766 
    103 H103      -57.5384  -25.5716   10.6916 H         1 UNK         0.0798 
    104 H104      -58.5928  -26.7009   11.5422 H         1 UNK         0.0798 
    105 H105      -57.6791  -27.2319   10.1371 H         1 UNK         0.0798 
    106 H106      -57.3062  -25.8540   13.4814 H         1 UNK         0.3198 
    107 H107      -56.0543  -24.2726   14.9875 H         1 UNK         0.0843 
    108 H108      -55.6116  -27.0027   16.3677 H         1 UNK         0.0831 
    109 H109      -57.1710  -26.4039   15.8212 H         1 UNK         0.0831 
    110 H110      -56.3393  -25.5905   17.1296 H         1 UNK         0.0831 
    111 H111      -53.4067  -25.2210   15.0451 H         1 UNK         0.3133 
    112 H112      -51.9604  -23.0952   16.4105 H         1 UNK         0.0566 
    113 H113      -50.9370  -23.5755   18.6521 H         1 UNK         0.0814 
    114 H114      -52.4634  -22.7177   18.7834 H         1 UNK         0.0814 
    115 H115      -52.4002  -24.4382   19.1283 H         1 UNK         0.0814 
    116 H116      -50.9816  -24.9017   15.6653 H         1 UNK         0.3091 
    117 H117      -50.4682  -28.1874   16.8161 H         1 UNK         0.0702 
    118 H118      -51.0795  -28.8756   14.5410 H         1 UNK         0.0785 
    119 H119      -51.8719  -27.3334   14.2324 H         1 UNK         0.0785 
    120 H120      -52.5470  -28.4516   15.4100 H         1 UNK         0.0785 
    121 H121      -49.5454  -26.7332   14.5081 H         1 UNK         0.2998 
    122 H122      -46.6265  -25.3983   16.1570 H         1 UNK         0.0697 
    123 H123      -47.0945  -27.4443   13.9235 H         1 UNK         0.0825 
    124 H124      -46.1595  -27.7340   15.3847 H         1 UNK         0.0825 
    125 H125      -45.6099  -26.5421   14.2179 H         1 UNK         0.0825 
    126 H126      -47.5584  -25.0252   13.5045 H         1 UNK         0.3029 
    127 H127      -49.4354  -22.0167   14.1390 H         1 UNK         0.0897 
    128 H128      -47.8731  -21.2544   12.3547 H         1 UNK         0.0792 
    129 H129      -47.0413  -21.3761   13.8980 H         1 UNK         0.0792 
    130 H130      -46.8068  -22.6195   12.6780 H         1 UNK         0.0792 
    131 H131      -49.0120  -23.4083   11.7109 H         1 UNK         0.3086 
    132 H132      -51.8514  -25.5729   11.8996 H         1 UNK         0.0583 
    133 H133      -52.7528  -23.5024   11.0472 H         1 UNK         0.1020 
    134 H134      -51.2228  -22.9841   10.4079 H         1 UNK         0.1020 
    135 H135      -54.0530  -25.4575   10.2535 H         1 UNK         0.0694 
    136 H136      -54.3534  -25.6266    8.5418 H         1 UNK         0.0694 
    137 H137      -49.7751  -25.3325    9.9784 H         1 UNK         0.2989 
    138 H138      -47.5383  -27.7292   11.3981 H         1 UNK         0.1055 
    139 H139      -49.2187  -29.0623   10.1639 H         1 UNK         0.0806 
    140 H140      -47.8810  -28.6696    9.0937 H         1 UNK         0.0806 
    141 H141      -49.4059  -27.7917    8.9686 H         1 UNK         0.0806 
    142 H142      -47.5654  -26.0704    9.0182 H         1 UNK         0.3061 
    143 H143      -45.8630  -23.2962   10.4833 H         1 UNK         0.0734 
    144 H144      -44.1240  -23.7962    8.7835 H         1 UNK         0.0832 
    145 H145      -43.9883  -24.9148   10.1292 H         1 UNK         0.0832 
    146 H146      -44.7171  -25.4506    8.6219 H         1 UNK         0.0832 
    147 H147      -46.4851  -23.9042    7.7768 H         1 UNK         0.3156 
    148 H148      -49.9037  -23.3090    7.7266 H         1 UNK         0.0589 
    149 H149      -47.8885  -21.1712    6.8618 H         1 UNK         0.0808 
    150 H150      -49.5501  -21.3330    6.2886 H         1 UNK         0.0808 
    151 H151      -49.2352  -20.9093    7.9612 H         1 UNK         0.0808 
    152 H152      -48.2755  -23.2860    5.5056 H         1 UNK         0.3098 
    153 H153      -48.5820  -25.3210    4.1911 H         1 UNK         0.0720 
    154 H154      -46.1583  -25.7707    3.6271 H         1 UNK         0.0791 
    155 H155      -45.7454  -25.7044    5.3375 H         1 UNK         0.0791 
    156 H156      -46.3264  -24.2645    4.5090 H         1 UNK         0.0791 
    157 H157      -47.8477  -27.5909    5.8949 H         1 UNK         0.3028 
@<TRIPOS>BOND
     1    1    2 1    
     2    1   82 1    
     3    1   83 1    
     4    1   84 1    
     5    2    3 2    
     6    2    4 am   BACKBONE|DICT|INTERRES
     7    4    5 1    
     8    4   85 1    
     9    5    6 1    
    10    5   80 1    
    11    5   86 1    
    12    6    7 1    
    13    6   87 1    
    14    6   88 1    
    15    7    8 1    
    16    8    9 1    
    17    8   89 1    
    18    8   90 1    
    19    9   10 ar   
    20    9   14 ar   
    21   10   11 ar   
    22   10   91 1    
    23   11   12 ar   
    24   11   58 1    
    25   12   13 ar   
    26   12   92 1    
    27   13   14 ar   
    28   13   15 1    
    29   14   93 1    
    30   15   16 1    
    31   15   94 1    
    32   15   95 1    
    33   16   17 1    
    34   17   18 1    
    35   17   96 1    
    36   17   97 1    
    37   18   19 1    
    38   18   22 1    
    39   18   98 1    
    40   19   20 am   BACKBONE|DICT|INTERRES
    41   19   21 2    
    42   20   99 1    
    43   20  100 1    
    44   22   23 am   BACKBONE|DICT|INTERRES
    45   22  101 1    
    46   23   24 2    
    47   23   25 1    
    48   25   26 1    
    49   25   27 1    
    50   25  102 1    
    51   26  103 1    
    52   26  104 1    
    53   26  105 1    
    54   27   28 am   BACKBONE|DICT|INTERRES
    55   27  106 1    
    56   28   29 2    
    57   28   30 1    
    58   30   31 1    
    59   30   32 1    
    60   30  107 1    
    61   31  108 1    
    62   31  109 1    
    63   31  110 1    
    64   32   33 am   BACKBONE|DICT|INTERRES
    65   32  111 1    
    66   33   34 2    
    67   33   35 1    
    68   35   36 1    
    69   35   37 1    
    70   35  112 1    
    71   36  113 1    
    72   36  114 1    
    73   36  115 1    
    74   37   38 am   BACKBONE|DICT|INTERRES
    75   37  116 1    
    76   38   39 2    
    77   38   40 1    
    78   40   41 1    
    79   40   42 1    
    80   40  117 1    
    81   41  118 1    
    82   41  119 1    
    83   41  120 1    
    84   42   43 am   BACKBONE|DICT|INTERRES
    85   42  121 1    
    86   43   44 2    
    87   43   45 1    
    88   45   46 1    
    89   45   47 1    
    90   45  122 1    
    91   46  123 1    
    92   46  124 1    
    93   46  125 1    
    94   47   48 am   BACKBONE|DICT|INTERRES
    95   47  126 1    
    96   48   49 2    
    97   48   50 1    
    98   50   51 1    
    99   50   52 1    
   100   50  127 1    
   101   51  128 1    
   102   51  129 1    
   103   51  130 1    
   104   52   53 am   BACKBONE|DICT|INTERRES
   105   52  131 1    
   106   53   54 2    
   107   53   55 1    
   108   55   56 1    
   109   55   59 1    
   110   55  132 1    
   111   56   57 1    
   112   56  133 1    
   113   56  134 1    
   114   57   58 1    
   115   58  135 1    
   116   58  136 1    
   117   59   60 am   BACKBONE|DICT|INTERRES
   118   59  137 1    
   119   60   61 2    
   120   60   62 1    
   121   62   63 1    
   122   62   64 1    
   123   62  138 1    
   124   63  139 1    
   125   63  140 1    
   126   63  141 1    
   127   64   65 am   BACKBONE|DICT|INTERRES
   128   64  142 1    
   129   65   66 2    
   130   65   67 1    
   131   67   68 1    
   132   67   69 1    
   133   67  143 1    
   134   68  144 1    
   135   68  145 1    
   136   68  146 1    
   137   69   70 am   BACKBONE|DICT|INTERRES
   138   69  147 1    
   139   70   71 2    
   140   70   72 1    
   141   72   73 1    
   142   72   74 1    
   143   72  148 1    
   144   73  149 1    
   145   73  150 1    
   146   73  151 1    
   147   74   75 am   BACKBONE|DICT|INTERRES
   148   74  152 1    
   149   75   76 2    
   150   75   77 1    
   151   77   78 1    
   152   77   79 1    
   153   77  153 1    
   154   78  154 1    
   155   78  155 1    
   156   78  156 1    
   157   79   80 am   BACKBONE|DICT|INTERRES
   158   79  157 1    
   159   80   81 2    
@<TRIPOS>SUBSTRUCTURE
     1 UNK         1 GROUP             0       ****    0 ROOT    
