@<TRIPOS>MOLECULE
3R207
157   159    1
SMALL
USER_CHARGES


@<TRIPOS>ATOM
      1 CA        -54.8113  -27.8474    3.4027 C.3       0 UNK        -0.1975 
      2 C         -54.2499  -27.8726    4.8167 C.2       0 UNK         0.4852 
      3 O         -54.9851  -27.5984    5.7637 O.2       0 UNK        -0.5216 
      4 N         -52.9573  -28.2007    4.9487 N.am      1 UNK        -0.4461 
      5 CA        -52.1902  -28.2886    6.1969 C.3       1 UNK         0.0864 
      6 C6        -50.7569  -28.8383    5.9860 C.3       14 UNK        -0.0898 
      7 S7        -50.8012  -30.5283    5.2916 S.3       14 UNK        -0.2598 
      8 C8        -50.0071  -31.5389    6.5887 C.3       14 UNK         0.0286 
      9 C9        -50.5743  -31.3146    7.9871 C.ar      14 UNK        -0.0844 
     10 C10       -49.7026  -31.0705    9.0512 C.ar      14 UNK        -0.0881 
     11 C11       -50.1941  -30.8484   10.3397 C.ar      14 UNK        -0.0643 
     12 C12       -51.5735  -30.8615   10.5564 C.ar      14 UNK        -0.0930 
     13 C13       -52.4652  -31.1056    9.5070 C.ar      14 UNK        -0.0827 
     14 C14       -51.9521  -31.3581    8.2274 C.ar      14 UNK        -0.1249 
     15 C15       -53.9663  -31.1127    9.7999 C.3       14 UNK         0.0141 
     16 S16       -54.9982  -30.5210    8.4145 S.3       14 UNK        -0.2313 
     17 C17       -56.3632  -29.6682    9.2780 C.3       14 UNK        -0.0915 
     18 CA        -56.2091  -28.1231    9.1842 C.3       13 UNK         0.0968 
     19 C         -57.5102  -27.3338    9.5267 C.2       13 UNK         0.5732 
     20 N         -57.4217  -26.0669    9.9143 N.am      13 UNK        -0.7310 
     21 O         -58.6170  -27.8558    9.4099 O.2       13 UNK        -0.5035 
     22 N         -54.9816  -27.6521    9.8492 N.am      13 UNK        -0.4233 
     23 C         -54.7687  -27.5306   11.1653 C.2       13 UNK         0.4989 
     24 O         -55.6338  -27.6925   12.0293 O.2       13 UNK        -0.4996 
     25 CA        -53.3350  -27.1223   11.5561 C.3       12 UNK         0.0216 
     26 CB        -53.0647  -25.6546   11.1759 C.3       12 UNK        -0.1964 
     27 N         -53.0148  -27.2971   12.9762 N.am      12 UNK        -0.4276 
     28 C         -53.0475  -28.4401   13.6772 C.2       12 UNK         0.5020 
     29 O         -53.3619  -29.5306   13.2016 O.2       12 UNK        -0.5489 
     30 CA        -52.6249  -28.3738   15.1564 C.3       11 UNK         0.0294 
     31 CB        -51.3498  -29.2064   15.3819 C.3       11 UNK        -0.2019 
     32 N         -52.3574  -27.0036   15.5963 N.am      11 UNK        -0.4493 
     33 C         -53.1436  -26.2524   16.3763 C.2       11 UNK         0.4932 
     34 O         -54.2245  -26.6320   16.8294 O.2       11 UNK        -0.5029 
     35 CA        -52.6234  -24.8325   16.6897 C.3       10 UNK         0.0280 
     36 CB        -53.3077  -24.1903   17.9149 C.3       10 UNK        -0.1976 
     37 N         -51.1593  -24.7781   16.8054 N.am      10 UNK        -0.4242 
     38 C         -50.3880  -25.4185   17.6999 C.2       10 UNK         0.5072 
     39 O         -50.8323  -26.0696   18.6466 O.2       10 UNK        -0.5224 
     40 CA        -48.8602  -25.3699   17.4966 C.3       9 UNK         0.0343 
     41 CB        -48.3401  -26.7582   17.0860 C.3       9 UNK        -0.2003 
     42 N         -48.4184  -24.3895   16.5010 N.am      9 UNK        -0.4272 
     43 C         -48.3808  -23.0640   16.6948 C.2       9 UNK         0.4988 
     44 O         -48.6640  -22.5195   17.7623 O.2       9 UNK        -0.5108 
     45 CA        -47.9927  -22.1956   15.4841 C.3       8 UNK         0.0248 
     46 CB        -46.4643  -22.0919   15.3598 C.3       8 UNK        -0.2001 
     47 N         -48.5612  -22.6736   14.2185 N.am      8 UNK        -0.4140 
     48 C         -49.8744  -22.7640   13.9577 C.2       8 UNK         0.5028 
     49 O         -50.7555  -22.4307   14.7501 O.2       8 UNK        -0.5428 
     50 CA        -50.2803  -23.3926   12.6150 C.3       7 UNK         0.0264 
     51 CB        -50.1017  -22.4026   11.4538 C.3       7 UNK        -0.1988 
     52 N         -49.5498  -24.6299   12.3331 N.am      7 UNK        -0.4454 
     53 C         -49.6250  -25.7412   13.0805 C.2       7 UNK         0.5027 
     54 O         -50.3780  -25.8632   14.0458 O.2       7 UNK        -0.5083 
     55 CA        -48.6744  -26.8957   12.7235 C.3       6 UNK         0.0844 
     56 C56       -49.2699  -27.7957   11.6156 C.3       14 UNK        -0.0967 
     57 S57       -48.1543  -29.1902   11.2380 S.3       14 UNK        -0.2604 
     58 C58       -49.2326  -30.6316   11.5004 C.3       14 UNK         0.0134 
     59 N         -47.3434  -26.3899   12.3840 N.am      6 UNK        -0.4116 
     60 C         -46.4949  -25.8229   13.2507 C.2       5 UNK         0.5034 
     61 O         -46.7320  -25.6689   14.4481 O.2       5 UNK        -0.5045 
     62 CA        -45.1761  -25.2961   12.6643 C.3       5 UNK         0.0224 
     63 CB        -44.1524  -26.4333   12.5197 C.3       5 UNK        -0.1978 
     64 N         -45.3669  -24.6343   11.3701 N.am      5 UNK        -0.4737 
     65 C         -46.0661  -23.5032   11.2043 C.2       4 UNK         0.5027 
     66 O         -46.5936  -22.8835   12.1271 O.2       4 UNK        -0.5211 
     67 CA        -46.2412  -23.0023    9.7633 C.3       4 UNK         0.0297 
     68 CB        -45.0202  -22.1764    9.3285 C.3       4 UNK        -0.1993 
     69 N         -46.4909  -24.0694    8.7870 N.am      4 UNK        -0.4486 
     70 C         -47.5519  -24.8869    8.8018 C.2       3 UNK         0.4961 
     71 O         -48.3936  -24.9151    9.7033 O.2       3 UNK        -0.5105 
     72 CA        -47.7192  -25.8189    7.5990 C.3       3 UNK         0.0299 
     73 CB        -47.4368  -27.2839    7.9689 C.3       3 UNK        -0.1972 
     74 N         -49.0965  -25.6808    7.1413 N.am      3 UNK        -0.4305 
     75 C         -49.4905  -25.6208    5.8642 C.2       2 UNK         0.5006 
     76 O         -48.7332  -25.7874    4.9070 O.2       2 UNK        -0.5106 
     77 CA        -50.9783  -25.3074    5.6166 C.3       2 UNK         0.0296 
     78 CB        -51.4559  -25.6260    4.1863 C.3       2 UNK        -0.2002 
     79 N         -51.8674  -25.7972    6.6833 N.am      2 UNK        -0.4032 
     80 C         -52.2605  -27.0208    7.0862 C.2       1 UNK         0.5000 
     81 O         -52.7668  -27.1459    8.1995 O.2       1 UNK        -0.5238 
     82 H82       -55.6342  -28.5562    3.3138 H         1 UNK         0.0889 
     83 H83       -54.0583  -28.1065    2.6585 H         1 UNK         0.0889 
     84 H84       -55.1906  -26.8531    3.1685 H         1 UNK         0.0889 
     85 H85       -52.4350  -28.4435    4.1198 H         1 UNK         0.3028 
     86 H86       -52.7163  -29.0486    6.7782 H         1 UNK         0.0864 
     87 H87       -50.1948  -28.2207    5.2888 H         1 UNK         0.0720 
     88 H88       -50.1944  -28.8336    6.9212 H         1 UNK         0.0720 
     89 H89       -48.9362  -31.3305    6.5705 H         1 UNK         0.0814 
     90 H90       -50.1181  -32.5926    6.3299 H         1 UNK         0.0814 
     91 H91       -48.6343  -31.0536    8.8826 H         1 UNK         0.1469 
     92 H92       -51.9534  -30.6963   11.5532 H         1 UNK         0.1381 
     93 H93       -52.6224  -31.5678    7.4057 H         1 UNK         0.1206 
     94 H94       -54.1628  -30.4929   10.6759 H         1 UNK         0.0813 
     95 H95       -54.2738  -32.1253   10.0628 H         1 UNK         0.0813 
     96 H96       -57.2863  -29.9957    8.7974 H         1 UNK         0.0638 
     97 H97       -56.4290  -29.9944   10.3170 H         1 UNK         0.0638 
     98 H98       -56.0572  -27.8907    8.1311 H         1 UNK         0.0568 
     99 H99       -56.5218  -25.6258   10.0119 H         1 UNK         0.3450 
    100 H100      -58.2634  -25.5554   10.1263 H         1 UNK         0.3450 
    101 H101      -54.1993  -27.4703    9.2206 H         1 UNK         0.2987 
    102 H102      -52.6550  -27.7613   10.9881 H         1 UNK         0.0766 
    103 H103      -53.3839  -25.4313   10.1576 H         1 UNK         0.0798 
    104 H104      -52.0005  -25.4315   11.2193 H         1 UNK         0.0798 
    105 H105      -53.5882  -24.9613   11.8352 H         1 UNK         0.0798 
    106 H106      -52.7438  -26.4646   13.4776 H         1 UNK         0.3198 
    107 H107      -53.4334  -28.8089   15.7474 H         1 UNK         0.0843 
    108 H108      -51.5091  -30.2501   15.1077 H         1 UNK         0.0831 
    109 H109      -51.0465  -29.1898   16.4289 H         1 UNK         0.0831 
    110 H110      -50.5151  -28.8361   14.7855 H         1 UNK         0.0831 
    111 H111      -51.5078  -26.5773   15.2259 H         1 UNK         0.3133 
    112 H112      -52.8734  -24.2232   15.8199 H         1 UNK         0.0566 
    113 H113      -52.9208  -23.1891   18.1048 H         1 UNK         0.0814 
    114 H114      -53.1644  -24.7833   18.8185 H         1 UNK         0.0814 
    115 H115      -54.3827  -24.0967   17.7568 H         1 UNK         0.0814 
    116 H116      -50.6924  -24.2654   16.0666 H         1 UNK         0.3091 
    117 H117      -48.4130  -25.1088   18.4579 H         1 UNK         0.0702 
    118 H118      -47.2532  -26.7662   17.0026 H         1 UNK         0.0785 
    119 H119      -48.7519  -27.0733   16.1266 H         1 UNK         0.0785 
    120 H120      -48.6131  -27.5153   17.8224 H         1 UNK         0.0785 
    121 H121      -48.0894  -24.7618   15.6152 H         1 UNK         0.2998 
    122 H122      -48.3872  -21.1928   15.6601 H         1 UNK         0.0697 
    123 H123      -46.0096  -23.0609   15.1514 H         1 UNK         0.0825 
    124 H124      -46.0212  -21.7139   16.2820 H         1 UNK         0.0825 
    125 H125      -46.1773  -21.4102   14.5588 H         1 UNK         0.0825 
    126 H126      -47.8987  -22.9255   13.4873 H         1 UNK         0.3029 
    127 H127      -51.3410  -23.6411   12.6842 H         1 UNK         0.0897 
    128 H128      -49.0601  -22.1087   11.3266 H         1 UNK         0.0792 
    129 H129      -50.6786  -21.4930   11.6255 H         1 UNK         0.0792 
    130 H130      -50.4442  -22.8320   10.5120 H         1 UNK         0.0792 
    131 H131      -48.9502  -24.6333   11.5111 H         1 UNK         0.3086 
    132 H132      -48.5676  -27.5074   13.6220 H         1 UNK         0.0583 
    133 H133      -50.2446  -28.1809   11.9211 H         1 UNK         0.1020 
    134 H134      -49.4446  -27.2296   10.6990 H         1 UNK         0.1020 
    135 H135      -48.6073  -31.5193   11.6036 H         1 UNK         0.0694 
    136 H136      -49.7661  -30.5214   12.4461 H         1 UNK         0.0694 
    137 H137      -47.0774  -26.4492   11.4128 H         1 UNK         0.2989 
    138 H138      -44.7763  -24.5597   13.3653 H         1 UNK         0.1055 
    139 H139      -44.4859  -27.1945   11.8131 H         1 UNK         0.0806 
    140 H140      -43.1876  -26.0574   12.1787 H         1 UNK         0.0806 
    141 H141      -43.9845  -26.9291   13.4770 H         1 UNK         0.0806 
    142 H142      -44.9647  -25.0764   10.5561 H         1 UNK         0.3061 
    143 H143      -47.1126  -22.3442    9.7542 H         1 UNK         0.0734 
    144 H144      -44.1158  -22.7840    9.2768 H         1 UNK         0.0832 
    145 H145      -45.1760  -21.7203    8.3507 H         1 UNK         0.0832 
    146 H146      -44.8274  -21.3661   10.0333 H         1 UNK         0.0832 
    147 H147      -45.8504  -24.1245    8.0075 H         1 UNK         0.3156 
    148 H148      -47.0256  -25.5090    6.8142 H         1 UNK         0.0589 
    149 H149      -47.4857  -27.9265    7.0897 H         1 UNK         0.0808 
    150 H150      -46.4427  -27.3993    8.4022 H         1 UNK         0.0808 
    151 H151      -48.1588  -27.6621    8.6916 H         1 UNK         0.0808 
    152 H152      -49.7624  -25.4902    7.8789 H         1 UNK         0.3098 
    153 H153      -51.0416  -24.2220    5.7083 H         1 UNK         0.0720 
    154 H154      -50.9829  -24.9499    3.4731 H         1 UNK         0.0791 
    155 H155      -52.5322  -25.4941    4.0803 H         1 UNK         0.0791 
    156 H156      -51.1881  -26.6324    3.8707 H         1 UNK         0.0791 
    157 H157      -52.1152  -25.0625    7.3300 H         1 UNK         0.3028 
@<TRIPOS>BOND
     1    1    2 1    
     2    1   82 1    
     3    1   83 1    
     4    1   84 1    
     5    2    3 2    
     6    2    4 am   BACKBONE|DICT|INTERRES
     7    4    5 1    
     8    4   85 1    
     9    5    6 1    
    10    5   80 1    
    11    5   86 1    
    12    6    7 1    
    13    6   87 1    
    14    6   88 1    
    15    7    8 1    
    16    8    9 1    
    17    8   89 1    
    18    8   90 1    
    19    9   10 ar   
    20    9   14 ar   
    21   10   11 ar   
    22   10   91 1    
    23   11   12 ar   
    24   11   58 1    
    25   12   13 ar   
    26   12   92 1    
    27   13   14 ar   
    28   13   15 1    
    29   14   93 1    
    30   15   16 1    
    31   15   94 1    
    32   15   95 1    
    33   16   17 1    
    34   17   18 1    
    35   17   96 1    
    36   17   97 1    
    37   18   19 1    
    38   18   22 1    
    39   18   98 1    
    40   19   20 am   BACKBONE|DICT|INTERRES
    41   19   21 2    
    42   20   99 1    
    43   20  100 1    
    44   22   23 am   BACKBONE|DICT|INTERRES
    45   22  101 1    
    46   23   24 2    
    47   23   25 1    
    48   25   26 1    
    49   25   27 1    
    50   25  102 1    
    51   26  103 1    
    52   26  104 1    
    53   26  105 1    
    54   27   28 am   BACKBONE|DICT|INTERRES
    55   27  106 1    
    56   28   29 2    
    57   28   30 1    
    58   30   31 1    
    59   30   32 1    
    60   30  107 1    
    61   31  108 1    
    62   31  109 1    
    63   31  110 1    
    64   32   33 am   BACKBONE|DICT|INTERRES
    65   32  111 1    
    66   33   34 2    
    67   33   35 1    
    68   35   36 1    
    69   35   37 1    
    70   35  112 1    
    71   36  113 1    
    72   36  114 1    
    73   36  115 1    
    74   37   38 am   BACKBONE|DICT|INTERRES
    75   37  116 1    
    76   38   39 2    
    77   38   40 1    
    78   40   41 1    
    79   40   42 1    
    80   40  117 1    
    81   41  118 1    
    82   41  119 1    
    83   41  120 1    
    84   42   43 am   BACKBONE|DICT|INTERRES
    85   42  121 1    
    86   43   44 2    
    87   43   45 1    
    88   45   46 1    
    89   45   47 1    
    90   45  122 1    
    91   46  123 1    
    92   46  124 1    
    93   46  125 1    
    94   47   48 am   BACKBONE|DICT|INTERRES
    95   47  126 1    
    96   48   49 2    
    97   48   50 1    
    98   50   51 1    
    99   50   52 1    
   100   50  127 1    
   101   51  128 1    
   102   51  129 1    
   103   51  130 1    
   104   52   53 am   BACKBONE|DICT|INTERRES
   105   52  131 1    
   106   53   54 2    
   107   53   55 1    
   108   55   56 1    
   109   55   59 1    
   110   55  132 1    
   111   56   57 1    
   112   56  133 1    
   113   56  134 1    
   114   57   58 1    
   115   58  135 1    
   116   58  136 1    
   117   59   60 am   BACKBONE|DICT|INTERRES
   118   59  137 1    
   119   60   61 2    
   120   60   62 1    
   121   62   63 1    
   122   62   64 1    
   123   62  138 1    
   124   63  139 1    
   125   63  140 1    
   126   63  141 1    
   127   64   65 am   BACKBONE|DICT|INTERRES
   128   64  142 1    
   129   65   66 2    
   130   65   67 1    
   131   67   68 1    
   132   67   69 1    
   133   67  143 1    
   134   68  144 1    
   135   68  145 1    
   136   68  146 1    
   137   69   70 am   BACKBONE|DICT|INTERRES
   138   69  147 1    
   139   70   71 2    
   140   70   72 1    
   141   72   73 1    
   142   72   74 1    
   143   72  148 1    
   144   73  149 1    
   145   73  150 1    
   146   73  151 1    
   147   74   75 am   BACKBONE|DICT|INTERRES
   148   74  152 1    
   149   75   76 2    
   150   75   77 1    
   151   77   78 1    
   152   77   79 1    
   153   77  153 1    
   154   78  154 1    
   155   78  155 1    
   156   78  156 1    
   157   79   80 am   BACKBONE|DICT|INTERRES
   158   79  157 1    
   159   80   81 2    
@<TRIPOS>SUBSTRUCTURE
     1 UNK         1 GROUP             0       ****    0 ROOT    
