@<TRIPOS>MOLECULE
3R207
157   159    1
SMALL
USER_CHARGES


@<TRIPOS>ATOM
      1 CA        -49.6379  -20.2135    6.5137 C.3       0 UNK        -0.1975 
      2 C         -49.5941  -21.6803    6.9152 C.2       0 UNK         0.4852 
      3 O         -49.2170  -21.9881    8.0447 O.2       0 UNK        -0.5216 
      4 N         -49.9697  -22.5786    5.9916 N.am      1 UNK        -0.4461 
      5 CA        -50.0301  -24.0376    6.1647 C.3       1 UNK         0.0864 
      6 C6        -50.6356  -24.6976    4.8976 C.3       14 UNK        -0.0898 
      7 S7        -50.9592  -26.4932    5.0144 S.3       14 UNK        -0.2598 
      8 C8        -52.7578  -26.5664    5.3077 C.3       14 UNK         0.0286 
      9 C9        -53.0748  -26.6574    6.7926 C.ar      14 UNK        -0.0844 
     10 C10       -53.2334  -25.4989    7.5584 C.ar      14 UNK        -0.0881 
     11 C11       -53.4712  -25.5880    8.9341 C.ar      14 UNK        -0.0643 
     12 C12       -53.5949  -26.8441    9.5332 C.ar      14 UNK        -0.0930 
     13 C13       -53.4588  -28.0085    8.7743 C.ar      14 UNK        -0.0827 
     14 C14       -53.2002  -27.9091    7.4042 C.ar      14 UNK        -0.1249 
     15 C15       -53.6119  -29.3679    9.4379 C.3       14 UNK         0.0141 
     16 S16       -52.3290  -29.6652   10.6967 S.3       14 UNK        -0.2313 
     17 C17       -53.0073  -31.1677   11.4730 C.3       14 UNK        -0.0915 
     18 CA        -53.9703  -30.8206   12.6455 C.3       13 UNK         0.0968 
     19 C         -54.9087  -31.9969   13.0626 C.2       13 UNK         0.5732 
     20 N         -55.3925  -32.0499   14.2998 N.am      13 UNK        -0.7310 
     21 O         -55.2375  -32.8581   12.2499 O.2       13 UNK        -0.5035 
     22 N         -53.2936  -30.1591   13.7724 N.am      13 UNK        -0.4233 
     23 C         -52.4548  -30.7431   14.6425 C.2       13 UNK         0.4989 
     24 O         -51.9932  -31.8756   14.4976 O.2       13 UNK        -0.4996 
     25 CA        -52.1017  -29.9635   15.9267 C.3       12 UNK         0.0216 
     26 CB        -50.6676  -29.4284   15.8582 C.3       12 UNK        -0.1964 
     27 N         -53.0099  -28.8538   16.2330 N.am      12 UNK        -0.4276 
     28 C         -54.3246  -28.9722   16.4675 C.2       12 UNK         0.5020 
     29 O         -54.9114  -30.0536   16.5381 O.2       12 UNK        -0.5489 
     30 CA        -55.1355  -27.6702   16.5777 C.3       11 UNK         0.0294 
     31 CB        -55.3166  -27.2773   18.0523 C.3       11 UNK        -0.2019 
     32 N         -54.5693  -26.5309   15.8465 N.am      11 UNK        -0.4493 
     33 C         -54.2813  -26.4622   14.5401 C.2       11 UNK         0.4932 
     34 O         -54.4125  -27.4106   13.7656 O.2       11 UNK        -0.5029 
     35 CA        -53.7444  -25.1221   13.9953 C.3       10 UNK         0.0280 
     36 CB        -54.9032  -24.2165   13.5381 C.3       10 UNK        -0.1976 
     37 N         -52.8141  -24.3921   14.8745 N.am      10 UNK        -0.4242 
     38 C         -53.0327  -23.8772   16.0950 C.2       10 UNK         0.5072 
     39 O         -54.1205  -23.9372   16.6722 O.2       10 UNK        -0.5224 
     40 CA        -51.8411  -23.1998   16.8032 C.3       9 UNK         0.0343 
     41 CB        -52.0423  -23.1072   18.3309 C.3       9 UNK        -0.2003 
     42 N         -50.5317  -23.7958   16.5117 N.am      9 UNK        -0.4272 
     43 C         -50.1402  -25.0701   16.6680 C.2       9 UNK         0.4988 
     44 O         -50.8865  -25.9893   17.0122 O.2       9 UNK        -0.5108 
     45 CA        -48.6507  -25.3399   16.3751 C.3       8 UNK         0.0248 
     46 CB        -48.2399  -26.8105   16.5635 C.3       8 UNK        -0.2001 
     47 N         -48.3021  -24.9112   15.0192 N.am      8 UNK        -0.4140 
     48 C         -47.9549  -23.6610   14.6801 C.2       8 UNK         0.5028 
     49 O         -47.8348  -22.7489   15.4994 O.2       8 UNK        -0.5428 
     50 CA        -47.7588  -23.3474   13.1852 C.3       7 UNK         0.0264 
     51 CB        -46.2726  -23.4475   12.8067 C.3       7 UNK        -0.1988 
     52 N         -48.5429  -24.1908   12.2794 N.am      7 UNK        -0.4454 
     53 C         -49.8810  -24.2988   12.2729 C.2       7 UNK         0.5027 
     54 O         -50.6239  -23.7016   13.0546 O.2       7 UNK        -0.5083 
     55 CA        -50.4831  -25.2919   11.2551 C.3       6 UNK         0.0844 
     56 C56       -50.6801  -24.6260    9.8737 C.3       14 UNK        -0.0967 
     57 S57       -52.0065  -23.3655    9.8054 S.3       14 UNK        -0.2604 
     58 C58       -53.5537  -24.3341    9.7907 C.3       14 UNK         0.0134 
     59 N         -49.7197  -26.5405   11.1168 N.am      6 UNK        -0.4116 
     60 C         -49.2830  -27.3427   12.0996 C.2       5 UNK         0.5034 
     61 O         -49.4245  -27.0877   13.2953 O.2       5 UNK        -0.5045 
     62 CA        -48.5505  -28.6389   11.6937 C.3       5 UNK         0.0224 
     63 CB        -48.9253  -29.8127   12.6167 C.3       5 UNK        -0.1978 
     64 N         -48.7861  -29.0371   10.3008 N.am      5 UNK        -0.4737 
     65 C         -48.1065  -28.5805    9.2417 C.2       4 UNK         0.5027 
     66 O         -47.2014  -27.7491    9.3303 O.2       4 UNK        -0.5211 
     67 CA        -48.5209  -29.1459    7.8733 C.3       4 UNK         0.0297 
     68 CB        -50.0380  -29.0366    7.6455 C.3       4 UNK        -0.1993 
     69 N         -47.8511  -28.4149    6.8013 N.am      4 UNK        -0.4486 
     70 C         -47.1244  -28.9619    5.8185 C.2       3 UNK         0.4961 
     71 O         -46.9102  -30.1714    5.7219 O.2       3 UNK        -0.5105 
     72 CA        -46.5541  -28.0248    4.7338 C.3       3 UNK         0.0299 
     73 CB        -47.2885  -28.2437    3.4000 C.3       3 UNK        -0.1972 
     74 N         -46.6371  -26.6064    5.0832 N.am      3 UNK        -0.4305 
     75 C         -45.8391  -25.9791    5.9576 C.2       2 UNK         0.5006 
     76 O         -44.8632  -26.5068    6.4919 O.2       2 UNK        -0.5106 
     77 CA        -46.1886  -24.5183    6.3050 C.3       2 UNK         0.0296 
     78 CB        -45.2287  -23.5509    5.5929 C.3       2 UNK        -0.2002 
     79 N         -47.5721  -24.1257    6.0047 N.am      2 UNK        -0.4032 
     80 C         -48.6712  -24.6592    6.5617 C.2       1 UNK         0.5000 
     81 O         -48.6416  -25.5958    7.3610 O.2       1 UNK        -0.5238 
     82 H82       -49.9855  -20.0790    5.4895 H         1 UNK         0.0889 
     83 H83       -48.6448  -19.7726    6.5958 H         1 UNK         0.0889 
     84 H84       -50.3095  -19.6655    7.1741 H         1 UNK         0.0889 
     85 H85       -50.2667  -22.2400    5.0872 H         1 UNK         0.3028 
     86 H86       -50.7108  -24.2211    6.9959 H         1 UNK         0.0864 
     87 H87       -49.9732  -24.5419    4.0440 H         1 UNK         0.0720 
     88 H88       -51.5667  -24.1947    4.6334 H         1 UNK         0.0720 
     89 H89       -53.1538  -27.4447    4.7957 H         1 UNK         0.0814 
     90 H90       -53.2623  -25.7102    4.8585 H         1 UNK         0.0814 
     91 H91       -53.1348  -24.5270    7.0948 H         1 UNK         0.1469 
     92 H92       -53.7809  -26.9223   10.5962 H         1 UNK         0.1381 
     93 H93       -53.0824  -28.8070    6.8130 H         1 UNK         0.1206 
     94 H94       -53.5742  -30.1681    8.6971 H         1 UNK         0.0813 
     95 H95       -54.5982  -29.4196    9.9006 H         1 UNK         0.0813 
     96 H96       -53.5133  -31.7465   10.6986 H         1 UNK         0.0638 
     97 H97       -52.1809  -31.7898   11.8184 H         1 UNK         0.0638 
     98 H98       -54.6695  -30.0729   12.2705 H         1 UNK         0.0568 
     99 H99       -55.1548  -31.3444   14.9891 H         1 UNK         0.3450 
    100 H100      -56.0067  -32.8073   14.5522 H         1 UNK         0.3450 
    101 H101      -53.6095  -29.2123   13.9568 H         1 UNK         0.2987 
    102 H102      -52.1623  -30.6718   16.7554 H         1 UNK         0.0766 
    103 H103      -50.5617  -28.6911   15.0626 H         1 UNK         0.0798 
    104 H104      -49.9557  -30.2315   15.6637 H         1 UNK         0.0798 
    105 H105      -50.3774  -28.9580   16.7977 H         1 UNK         0.0798 
    106 H106      -52.6153  -27.9224   16.2078 H         1 UNK         0.3198 
    107 H107      -56.1203  -27.8687   16.1502 H         1 UNK         0.0843 
    108 H108      -55.9778  -26.4167   18.1558 H         1 UNK         0.0831 
    109 H109      -54.3641  -27.0265   18.5214 H         1 UNK         0.0831 
    110 H110      -55.7583  -28.0947   18.6242 H         1 UNK         0.0831 
    111 H111      -54.4478  -25.6661   16.3723 H         1 UNK         0.3133 
    112 H112      -53.1621  -25.3717   13.1096 H         1 UNK         0.0566 
    113 H113      -55.5405  -24.7325   12.8187 H         1 UNK         0.0814 
    114 H114      -55.5373  -23.9125   14.3714 H         1 UNK         0.0814 
    115 H115      -54.5312  -23.3140   13.0528 H         1 UNK         0.0814 
    116 H116      -51.8889  -24.2515   14.4768 H         1 UNK         0.3091 
    117 H117      -51.8035  -22.1821   16.4123 H         1 UNK         0.0702 
    118 H118      -51.2081  -22.5959   18.8113 H         1 UNK         0.0785 
    119 H119      -52.1360  -24.0951   18.7837 H         1 UNK         0.0785 
    120 H120      -52.9458  -22.5479   18.5775 H         1 UNK         0.0785 
    121 H121      -49.8207  -23.1468   16.1915 H         1 UNK         0.2998 
    122 H122      -48.0795  -24.7552   17.0994 H         1 UNK         0.0697 
    123 H123      -47.1593  -26.9291   16.4844 H         1 UNK         0.0825 
    124 H124      -48.5348  -27.1821   17.5456 H         1 UNK         0.0825 
    125 H125      -48.6962  -27.4538   15.8142 H         1 UNK         0.0825 
    126 H126      -48.4803  -25.5884   14.2838 H         1 UNK         0.3029 
    127 H127      -48.0840  -22.3165   13.0292 H         1 UNK         0.0897 
    128 H128      -46.1011  -23.1281   11.7785 H         1 UNK         0.0792 
    129 H129      -45.6628  -22.8085   13.4474 H         1 UNK         0.0792 
    130 H130      -45.8969  -24.4663   12.9109 H         1 UNK         0.0792 
    131 H131      -48.0214  -24.7371   11.6090 H         1 UNK         0.3086 
    132 H132      -51.4613  -25.5920   11.6298 H         1 UNK         0.0583 
    133 H133      -49.7519  -24.1527    9.5478 H         1 UNK         0.1020 
    134 H134      -50.8773  -25.3853    9.1170 H         1 UNK         0.1020 
    135 H135      -53.8066  -24.5897   10.8197 H         1 UNK         0.0694 
    136 H136      -54.3641  -23.7016    9.4261 H         1 UNK         0.0694 
    137 H137      -49.5201  -26.8324   10.1713 H         1 UNK         0.2989 
    138 H138      -47.4837  -28.4445   11.8255 H         1 UNK         0.1055 
    139 H139      -48.6238  -29.6092   13.6446 H         1 UNK         0.0806 
    140 H140      -49.9997  -29.9991   12.6222 H         1 UNK         0.0806 
    141 H141      -48.4254  -30.7334   12.3159 H         1 UNK         0.0806 
    142 H142      -49.5447  -29.6878   10.1478 H         1 UNK         0.3061 
    143 H143      -48.2346  -30.1993    7.8577 H         1 UNK         0.0734 
    144 H144      -50.3088  -29.3181    6.6277 H         1 UNK         0.0832 
    145 H145      -50.5938  -29.6953    8.3111 H         1 UNK         0.0832 
    146 H146      -50.3927  -28.0178    7.8102 H         1 UNK         0.0832 
    147 H147      -47.9307  -27.4034    6.8666 H         1 UNK         0.3156 
    148 H148      -45.5035  -28.2872    4.5928 H         1 UNK         0.0589 
    149 H149      -46.8614  -27.6323    2.6049 H         1 UNK         0.0808 
    150 H150      -47.2160  -29.2840    3.0797 H         1 UNK         0.0808 
    151 H151      -48.3494  -28.0014    3.4795 H         1 UNK         0.0808 
    152 H152      -47.4110  -26.0905    4.6917 H         1 UNK         0.3098 
    153 H153      -46.0482  -24.4077    7.3824 H         1 UNK         0.0720 
    154 H154      -44.1895  -23.7921    5.8215 H         1 UNK         0.0791 
    155 H155      -45.3421  -23.5946    4.5089 H         1 UNK         0.0791 
    156 H156      -45.3955  -22.5208    5.9087 H         1 UNK         0.0791 
    157 H157      -47.6934  -23.3523    5.3670 H         1 UNK         0.3028 
@<TRIPOS>BOND
     1    1    2 1    
     2    1   82 1    
     3    1   83 1    
     4    1   84 1    
     5    2    3 2    
     6    2    4 am   BACKBONE|DICT|INTERRES
     7    4    5 1    
     8    4   85 1    
     9    5    6 1    
    10    5   80 1    
    11    5   86 1    
    12    6    7 1    
    13    6   87 1    
    14    6   88 1    
    15    7    8 1    
    16    8    9 1    
    17    8   89 1    
    18    8   90 1    
    19    9   10 ar   
    20    9   14 ar   
    21   10   11 ar   
    22   10   91 1    
    23   11   12 ar   
    24   11   58 1    
    25   12   13 ar   
    26   12   92 1    
    27   13   14 ar   
    28   13   15 1    
    29   14   93 1    
    30   15   16 1    
    31   15   94 1    
    32   15   95 1    
    33   16   17 1    
    34   17   18 1    
    35   17   96 1    
    36   17   97 1    
    37   18   19 1    
    38   18   22 1    
    39   18   98 1    
    40   19   20 am   BACKBONE|DICT|INTERRES
    41   19   21 2    
    42   20   99 1    
    43   20  100 1    
    44   22   23 am   BACKBONE|DICT|INTERRES
    45   22  101 1    
    46   23   24 2    
    47   23   25 1    
    48   25   26 1    
    49   25   27 1    
    50   25  102 1    
    51   26  103 1    
    52   26  104 1    
    53   26  105 1    
    54   27   28 am   BACKBONE|DICT|INTERRES
    55   27  106 1    
    56   28   29 2    
    57   28   30 1    
    58   30   31 1    
    59   30   32 1    
    60   30  107 1    
    61   31  108 1    
    62   31  109 1    
    63   31  110 1    
    64   32   33 am   BACKBONE|DICT|INTERRES
    65   32  111 1    
    66   33   34 2    
    67   33   35 1    
    68   35   36 1    
    69   35   37 1    
    70   35  112 1    
    71   36  113 1    
    72   36  114 1    
    73   36  115 1    
    74   37   38 am   BACKBONE|DICT|INTERRES
    75   37  116 1    
    76   38   39 2    
    77   38   40 1    
    78   40   41 1    
    79   40   42 1    
    80   40  117 1    
    81   41  118 1    
    82   41  119 1    
    83   41  120 1    
    84   42   43 am   BACKBONE|DICT|INTERRES
    85   42  121 1    
    86   43   44 2    
    87   43   45 1    
    88   45   46 1    
    89   45   47 1    
    90   45  122 1    
    91   46  123 1    
    92   46  124 1    
    93   46  125 1    
    94   47   48 am   BACKBONE|DICT|INTERRES
    95   47  126 1    
    96   48   49 2    
    97   48   50 1    
    98   50   51 1    
    99   50   52 1    
   100   50  127 1    
   101   51  128 1    
   102   51  129 1    
   103   51  130 1    
   104   52   53 am   BACKBONE|DICT|INTERRES
   105   52  131 1    
   106   53   54 2    
   107   53   55 1    
   108   55   56 1    
   109   55   59 1    
   110   55  132 1    
   111   56   57 1    
   112   56  133 1    
   113   56  134 1    
   114   57   58 1    
   115   58  135 1    
   116   58  136 1    
   117   59   60 am   BACKBONE|DICT|INTERRES
   118   59  137 1    
   119   60   61 2    
   120   60   62 1    
   121   62   63 1    
   122   62   64 1    
   123   62  138 1    
   124   63  139 1    
   125   63  140 1    
   126   63  141 1    
   127   64   65 am   BACKBONE|DICT|INTERRES
   128   64  142 1    
   129   65   66 2    
   130   65   67 1    
   131   67   68 1    
   132   67   69 1    
   133   67  143 1    
   134   68  144 1    
   135   68  145 1    
   136   68  146 1    
   137   69   70 am   BACKBONE|DICT|INTERRES
   138   69  147 1    
   139   70   71 2    
   140   70   72 1    
   141   72   73 1    
   142   72   74 1    
   143   72  148 1    
   144   73  149 1    
   145   73  150 1    
   146   73  151 1    
   147   74   75 am   BACKBONE|DICT|INTERRES
   148   74  152 1    
   149   75   76 2    
   150   75   77 1    
   151   77   78 1    
   152   77   79 1    
   153   77  153 1    
   154   78  154 1    
   155   78  155 1    
   156   78  156 1    
   157   79   80 am   BACKBONE|DICT|INTERRES
   158   79  157 1    
   159   80   81 2    
@<TRIPOS>SUBSTRUCTURE
     1 UNK         1 GROUP             0       ****    0 ROOT    
