@<TRIPOS>MOLECULE
3R207
157   159    1
SMALL
USER_CHARGES


@<TRIPOS>ATOM
      1 CA        -47.0136  -28.6560   11.7298 C.3       0 UNK        -0.1975 
      2 C         -47.0518  -28.9462   10.2370 C.2       0 UNK         0.4852 
      3 O         -46.0981  -29.5187    9.7104 O.2       0 UNK        -0.5216 
      4 N         -48.1455  -28.5652    9.5603 N.am      1 UNK        -0.4461 
      5 CA        -48.4525  -28.8313    8.1490 C.3       1 UNK         0.0864 
      6 C6        -49.8972  -28.3990    7.7689 C.3       14 UNK        -0.0898 
      7 S7        -50.4457  -26.7663    8.3910 S.3       14 UNK        -0.2598 
      8 C8        -52.0117  -26.5948    7.4694 C.3       14 UNK         0.0286 
      9 C9        -53.0890  -25.9131    8.3007 C.ar      14 UNK        -0.0844 
     10 C10       -53.4166  -24.5709    8.0854 C.ar      14 UNK        -0.0881 
     11 C11       -54.3917  -23.9447    8.8698 C.ar      14 UNK        -0.0643 
     12 C12       -55.0602  -24.6823    9.8521 C.ar      14 UNK        -0.0930 
     13 C13       -54.7626  -26.0318   10.0615 C.ar      14 UNK        -0.0827 
     14 C14       -53.7738  -26.6381    9.2803 C.ar      14 UNK        -0.1249 
     15 C15       -55.4889  -26.8035   11.1593 C.3       14 UNK         0.0141 
     16 S16       -56.3017  -28.3218   10.5708 S.3       14 UNK        -0.2313 
     17 C17       -55.0290  -29.5803   10.9349 C.3       14 UNK        -0.0915 
     18 CA        -55.4029  -30.4812   12.1436 C.3       13 UNK         0.0968 
     19 C         -54.4716  -31.7248   12.2605 C.2       13 UNK         0.5732 
     20 N         -54.0315  -32.1315   13.4458 N.am      13 UNK        -0.7310 
     21 O         -54.1523  -32.3542   11.2547 O.2       13 UNK        -0.5035 
     22 N         -55.4877  -29.7100   13.3962 N.am      13 UNK        -0.4233 
     23 C         -56.4853  -29.8070   14.2844 C.2       13 UNK         0.4989 
     24 O         -57.4990  -30.4847   14.1029 O.2       13 UNK        -0.4996 
     25 CA        -56.3142  -29.0276   15.6069 C.3       12 UNK         0.0216 
     26 CB        -57.3165  -29.4672   16.6952 C.3       12 UNK        -0.1964 
     27 N         -54.9453  -29.0571   16.1394 N.am      12 UNK        -0.4276 
     28 C         -54.1934  -30.1387   16.4056 C.2       12 UNK         0.5020 
     29 O         -54.5859  -31.2944   16.2403 O.2       12 UNK        -0.5489 
     30 CA        -52.7482  -29.9123   16.8919 C.3       11 UNK         0.0294 
     31 CB        -51.7517  -30.7038   16.0248 C.3       11 UNK        -0.2019 
     32 N         -52.3712  -28.4994   16.8516 N.am      11 UNK        -0.4493 
     33 C         -52.3094  -27.6750   17.9062 C.2       11 UNK         0.4932 
     34 O         -52.4976  -28.0326   19.0688 O.2       11 UNK        -0.5029 
     35 CA        -52.0070  -26.1907   17.6151 C.3       10 UNK         0.0280 
     36 CB        -50.5160  -25.8940   17.8410 C.3       10 UNK        -0.1976 
     37 N         -52.3779  -25.7726   16.2589 N.am      10 UNK        -0.4242 
     38 C         -53.6297  -25.7549   15.7757 C.2       10 UNK         0.5072 
     39 O         -54.6253  -26.0232   16.4475 O.2       10 UNK        -0.5224 
     40 CA        -53.7926  -25.4960   14.2687 C.3       9 UNK         0.0343 
     41 CB        -54.0282  -24.0050   13.9897 C.3       9 UNK        -0.2003 
     42 N         -52.6530  -25.9912   13.4830 N.am      9 UNK        -0.4272 
     43 C         -52.3272  -27.2920   13.3843 C.2       9 UNK         0.4988 
     44 O         -53.0264  -28.1879   13.8596 O.2       9 UNK        -0.5108 
     45 CA        -51.0104  -27.6874   12.6909 C.3       8 UNK         0.0248 
     46 CB        -51.2531  -28.6722   11.5371 C.3       8 UNK        -0.2001 
     47 N         -50.2159  -26.5478   12.2240 N.am      8 UNK        -0.4140 
     48 C         -49.4278  -25.8106   13.0205 C.2       8 UNK         0.5028 
     49 O         -49.2834  -26.0278   14.2239 O.2       8 UNK        -0.5428 
     50 CA        -48.7021  -24.6135   12.3797 C.3       7 UNK         0.0264 
     51 CB        -47.3104  -25.0334   11.8830 C.3       7 UNK        -0.1988 
     52 N         -49.4308  -23.9663   11.2815 N.am      7 UNK        -0.4454 
     53 C         -50.6613  -23.4364   11.3833 C.2       7 UNK         0.5027 
     54 O         -51.3372  -23.5026   12.4096 O.2       7 UNK        -0.5083 
     55 CA        -51.2096  -22.7066   10.1455 C.3       6 UNK         0.0844 
     56 C56       -52.5308  -21.9348   10.4163 C.3       14 UNK        -0.0967 
     57 S57       -53.3044  -21.3506    8.8676 S.3       14 UNK        -0.2604 
     58 C58       -54.7326  -22.4712    8.6698 C.3       14 UNK         0.0134 
     59 N         -50.1503  -21.8493    9.6163 N.am      6 UNK        -0.4116 
     60 C         -49.7487  -21.8160    8.3422 C.2       5 UNK         0.5034 
     61 O         -50.3112  -22.4124    7.4215 O.2       5 UNK        -0.5045 
     62 CA        -48.4651  -21.0200    8.0320 C.3       5 UNK         0.0224 
     63 CB        -47.8201  -20.3244    9.2546 C.3       5 UNK        -0.1978 
     64 N         -47.4882  -21.8789    7.3524 N.am      5 UNK        -0.4737 
     65 C         -46.9880  -23.0398    7.8034 C.2       4 UNK         0.5027 
     66 O         -47.2151  -23.4973    8.9275 O.2       4 UNK        -0.5211 
     67 CA        -46.1587  -23.8440    6.7877 C.3       4 UNK         0.0297 
     68 CB        -45.1926  -22.9759    5.9480 C.3       4 UNK        -0.1993 
     69 N         -45.4746  -24.9875    7.3957 N.am      4 UNK        -0.4486 
     70 C         -44.3798  -24.9922    8.1729 C.2       3 UNK         0.4961 
     71 O         -43.7686  -23.9774    8.5106 O.2       3 UNK        -0.5105 
     72 CA        -43.8482  -26.3645    8.6491 C.3       3 UNK         0.0299 
     73 CB        -44.0764  -26.5291   10.1597 C.3       3 UNK        -0.1972 
     74 N         -44.4371  -27.5128    7.9502 N.am      3 UNK        -0.4305 
     75 C         -44.2895  -27.7856    6.6440 C.2       2 UNK         0.5006 
     76 O         -43.4923  -27.1991    5.9112 O.2       2 UNK        -0.5106 
     77 CA        -45.2182  -28.8539    6.0316 C.3       2 UNK         0.0296 
     78 CB        -44.4437  -30.1575    5.7774 C.3       2 UNK        -0.2002 
     79 N         -46.4111  -29.1541    6.8332 N.am      2 UNK        -0.4032 
     80 C         -47.3743  -28.2871    7.1854 C.2       1 UNK         0.5000 
     81 O         -47.3933  -27.1081    6.8278 O.2       1 UNK        -0.5238 
     82 H82       -46.1970  -27.9760   11.9669 H         1 UNK         0.0889 
     83 H83       -46.8505  -29.5812   12.2817 H         1 UNK         0.0889 
     84 H84       -47.9429  -28.2171   12.0864 H         1 UNK         0.0889 
     85 H85       -48.8640  -28.0449   10.0398 H         1 UNK         0.3028 
     86 H86       -48.4326  -29.9183    8.0424 H         1 UNK         0.0864 
     87 H87       -50.5965  -29.1351    8.1691 H         1 UNK         0.0720 
     88 H88       -50.0339  -28.4312    6.6860 H         1 UNK         0.0720 
     89 H89       -51.8224  -26.0401    6.5491 H         1 UNK         0.0814 
     90 H90       -52.3768  -27.5763    7.1630 H         1 UNK         0.0814 
     91 H91       -52.8924  -24.0008    7.3296 H         1 UNK         0.1469 
     92 H92       -55.8137  -24.2007   10.4603 H         1 UNK         0.1381 
     93 H93       -53.5354  -27.6802    9.4259 H         1 UNK         0.1206 
     94 H94       -54.7825  -27.0579   11.9439 H         1 UNK         0.0813 
     95 H95       -56.2487  -26.1770   11.6285 H         1 UNK         0.0813 
     96 H96       -54.9129  -30.1755   10.0276 H         1 UNK         0.0638 
     97 H97       -54.0657  -29.1044   11.1086 H         1 UNK         0.0638 
     98 H98       -56.3827  -30.9049   11.9185 H         1 UNK         0.0568 
     99 H99       -54.3261  -31.6831   14.3063 H         1 UNK         0.3450 
    100 H100      -53.4388  -32.9443   13.4878 H         1 UNK         0.3450 
    101 H101      -54.6624  -29.1666   13.6354 H         1 UNK         0.2987 
    102 H102      -56.5239  -27.9839   15.3677 H         1 UNK         0.0766 
    103 H103      -57.1991  -28.8760   17.6035 H         1 UNK         0.0798 
    104 H104      -58.3457  -29.3380   16.3580 H         1 UNK         0.0798 
    105 H105      -57.1886  -30.5175   16.9597 H         1 UNK         0.0798 
    106 H106      -54.5372  -28.1449   16.3079 H         1 UNK         0.3198 
    107 H107      -52.6892  -30.2911   17.9144 H         1 UNK         0.0843 
    108 H108      -51.8092  -30.4137   14.9747 H         1 UNK         0.0831 
    109 H109      -51.9502  -31.7751   16.0767 H         1 UNK         0.0831 
    110 H110      -50.7257  -30.5512   16.3596 H         1 UNK         0.0831 
    111 H111      -52.2341  -28.1149   15.9258 H         1 UNK         0.3133 
    112 H112      -52.5878  -25.5924   18.3201 H         1 UNK         0.0566 
    113 H113      -49.8842  -26.4432   17.1411 H         1 UNK         0.0814 
    114 H114      -50.2091  -26.1766   18.8491 H         1 UNK         0.0814 
    115 H115      -50.3000  -24.8318   17.7245 H         1 UNK         0.0814 
    116 H116      -51.6180  -25.5500   15.6299 H         1 UNK         0.3091 
    117 H117      -54.6853  -26.0372   13.9528 H         1 UNK         0.0702 
    118 H118      -54.1844  -23.8218   12.9266 H         1 UNK         0.0785 
    119 H119      -53.1867  -23.3938   14.3176 H         1 UNK         0.0785 
    120 H120      -54.9146  -23.6461   14.5144 H         1 UNK         0.0785 
    121 H121      -52.0529  -25.2863   13.0660 H         1 UNK         0.2998 
    122 H122      -50.4294  -28.2236   13.4446 H         1 UNK         0.0697 
    123 H123      -51.7632  -28.1985   10.7016 H         1 UNK         0.0825 
    124 H124      -51.8611  -29.5177   11.8618 H         1 UNK         0.0825 
    125 H125      -50.3189  -29.0915   11.1692 H         1 UNK         0.0825 
    126 H126      -50.3271  -26.2679   11.2593 H         1 UNK         0.3029 
    127 H127      -48.5713  -23.8665   13.1655 H         1 UNK         0.0897 
    128 H128      -46.7201  -24.1672   11.5827 H         1 UNK         0.0792 
    129 H129      -46.7496  -25.5483   12.6643 H         1 UNK         0.0792 
    130 H130      -47.3771  -25.7013   11.0237 H         1 UNK         0.0792 
    131 H131      -48.9249  -23.8636   10.4078 H         1 UNK         0.3086 
    132 H132      -51.4142  -23.5060    9.4343 H         1 UNK         0.0583 
    133 H133      -53.2474  -22.5573   10.9542 H         1 UNK         0.1020 
    134 H134      -52.3442  -21.0744   11.0610 H         1 UNK         0.1020 
    135 H135      -55.5106  -22.1577    9.3676 H         1 UNK         0.0694 
    136 H136      -55.1479  -22.3369    7.6703 H         1 UNK         0.0694 
    137 H137      -49.6106  -21.3426   10.3033 H         1 UNK         0.2989 
    138 H138      -48.7552  -20.2443    7.3212 H         1 UNK         0.1055 
    139 H139      -46.9356  -19.7611    8.9568 H         1 UNK         0.0806 
    140 H140      -47.5085  -21.0345   10.0217 H         1 UNK         0.0806 
    141 H141      -48.5062  -19.6114    9.7137 H         1 UNK         0.0806 
    142 H142      -47.2731  -21.6164    6.4007 H         1 UNK         0.3061 
    143 H143      -46.8817  -24.2850    6.0997 H         1 UNK         0.0734 
    144 H144      -45.7348  -22.3068    5.2796 H         1 UNK         0.0832 
    145 H145      -44.5508  -22.3576    6.5766 H         1 UNK         0.0832 
    146 H146      -44.5497  -23.5938    5.3209 H         1 UNK         0.0832 
    147 H147      -45.9545  -25.8713    7.2471 H         1 UNK         0.3156 
    148 H148      -42.7727  -26.3797    8.4618 H         1 UNK         0.0589 
    149 H149      -45.1351  -26.4694   10.4079 H         1 UNK         0.0808 
    150 H150      -43.6950  -27.4838   10.5225 H         1 UNK         0.0808 
    151 H151      -43.5684  -25.7424   10.7191 H         1 UNK         0.0808 
    152 H152      -45.0732  -28.0939    8.4852 H         1 UNK         0.3098 
    153 H153      -45.5616  -28.4651    5.0709 H         1 UNK         0.0720 
    154 H154      -43.5655  -29.9762    5.1559 H         1 UNK         0.0791 
    155 H155      -44.0968  -30.6080    6.7084 H         1 UNK         0.0791 
    156 H156      -45.0595  -30.8912    5.2566 H         1 UNK         0.0791 
    157 H157      -46.4443  -30.0794    7.2385 H         1 UNK         0.3028 
@<TRIPOS>BOND
     1    1    2 1    
     2    1   82 1    
     3    1   83 1    
     4    1   84 1    
     5    2    3 2    
     6    2    4 am   BACKBONE|DICT|INTERRES
     7    4    5 1    
     8    4   85 1    
     9    5    6 1    
    10    5   80 1    
    11    5   86 1    
    12    6    7 1    
    13    6   87 1    
    14    6   88 1    
    15    7    8 1    
    16    8    9 1    
    17    8   89 1    
    18    8   90 1    
    19    9   10 ar   
    20    9   14 ar   
    21   10   11 ar   
    22   10   91 1    
    23   11   12 ar   
    24   11   58 1    
    25   12   13 ar   
    26   12   92 1    
    27   13   14 ar   
    28   13   15 1    
    29   14   93 1    
    30   15   16 1    
    31   15   94 1    
    32   15   95 1    
    33   16   17 1    
    34   17   18 1    
    35   17   96 1    
    36   17   97 1    
    37   18   19 1    
    38   18   22 1    
    39   18   98 1    
    40   19   20 am   BACKBONE|DICT|INTERRES
    41   19   21 2    
    42   20   99 1    
    43   20  100 1    
    44   22   23 am   BACKBONE|DICT|INTERRES
    45   22  101 1    
    46   23   24 2    
    47   23   25 1    
    48   25   26 1    
    49   25   27 1    
    50   25  102 1    
    51   26  103 1    
    52   26  104 1    
    53   26  105 1    
    54   27   28 am   BACKBONE|DICT|INTERRES
    55   27  106 1    
    56   28   29 2    
    57   28   30 1    
    58   30   31 1    
    59   30   32 1    
    60   30  107 1    
    61   31  108 1    
    62   31  109 1    
    63   31  110 1    
    64   32   33 am   BACKBONE|DICT|INTERRES
    65   32  111 1    
    66   33   34 2    
    67   33   35 1    
    68   35   36 1    
    69   35   37 1    
    70   35  112 1    
    71   36  113 1    
    72   36  114 1    
    73   36  115 1    
    74   37   38 am   BACKBONE|DICT|INTERRES
    75   37  116 1    
    76   38   39 2    
    77   38   40 1    
    78   40   41 1    
    79   40   42 1    
    80   40  117 1    
    81   41  118 1    
    82   41  119 1    
    83   41  120 1    
    84   42   43 am   BACKBONE|DICT|INTERRES
    85   42  121 1    
    86   43   44 2    
    87   43   45 1    
    88   45   46 1    
    89   45   47 1    
    90   45  122 1    
    91   46  123 1    
    92   46  124 1    
    93   46  125 1    
    94   47   48 am   BACKBONE|DICT|INTERRES
    95   47  126 1    
    96   48   49 2    
    97   48   50 1    
    98   50   51 1    
    99   50   52 1    
   100   50  127 1    
   101   51  128 1    
   102   51  129 1    
   103   51  130 1    
   104   52   53 am   BACKBONE|DICT|INTERRES
   105   52  131 1    
   106   53   54 2    
   107   53   55 1    
   108   55   56 1    
   109   55   59 1    
   110   55  132 1    
   111   56   57 1    
   112   56  133 1    
   113   56  134 1    
   114   57   58 1    
   115   58  135 1    
   116   58  136 1    
   117   59   60 am   BACKBONE|DICT|INTERRES
   118   59  137 1    
   119   60   61 2    
   120   60   62 1    
   121   62   63 1    
   122   62   64 1    
   123   62  138 1    
   124   63  139 1    
   125   63  140 1    
   126   63  141 1    
   127   64   65 am   BACKBONE|DICT|INTERRES
   128   64  142 1    
   129   65   66 2    
   130   65   67 1    
   131   67   68 1    
   132   67   69 1    
   133   67  143 1    
   134   68  144 1    
   135   68  145 1    
   136   68  146 1    
   137   69   70 am   BACKBONE|DICT|INTERRES
   138   69  147 1    
   139   70   71 2    
   140   70   72 1    
   141   72   73 1    
   142   72   74 1    
   143   72  148 1    
   144   73  149 1    
   145   73  150 1    
   146   73  151 1    
   147   74   75 am   BACKBONE|DICT|INTERRES
   148   74  152 1    
   149   75   76 2    
   150   75   77 1    
   151   77   78 1    
   152   77   79 1    
   153   77  153 1    
   154   78  154 1    
   155   78  155 1    
   156   78  156 1    
   157   79   80 am   BACKBONE|DICT|INTERRES
   158   79  157 1    
   159   80   81 2    
@<TRIPOS>SUBSTRUCTURE
     1 UNK         1 GROUP             0       ****    0 ROOT    
