@<TRIPOS>MOLECULE
3R207
157   159    1
SMALL
USER_CHARGES


@<TRIPOS>ATOM
      1 CA        -46.3524  -28.4165   -0.1034 C.3       0 UNK        -0.1975 
      2 C         -47.2173  -27.7154    0.9336 C.2       0 UNK         0.4852 
      3 O         -47.6899  -26.6055    0.6860 O.2       0 UNK        -0.5216 
      4 N         -47.4241  -28.3520    2.0956 N.am      1 UNK        -0.4461 
      5 CA        -48.2342  -27.8305    3.2069 C.3       1 UNK         0.0864 
      6 C6        -48.6884  -28.9754    4.1549 C.3       14 UNK        -0.0898 
      7 S7        -50.3962  -28.7524    4.7553 S.3       14 UNK        -0.2598 
      8 C8        -50.1175  -28.4350    6.5234 C.3       14 UNK         0.0286 
      9 C9        -51.4357  -28.2291    7.2539 C.ar      14 UNK        -0.0844 
     10 C10       -51.9303  -26.9403    7.4742 C.ar      14 UNK        -0.0881 
     11 C11       -53.1635  -26.7532    8.1051 C.ar      14 UNK        -0.0643 
     12 C12       -53.9072  -27.8664    8.5059 C.ar      14 UNK        -0.0930 
     13 C13       -53.4191  -29.1630    8.3050 C.ar      14 UNK        -0.0827 
     14 C14       -52.1774  -29.3334    7.6846 C.ar      14 UNK        -0.1249 
     15 C15       -54.2435  -30.3928    8.6815 C.3       14 UNK         0.0141 
     16 S16       -55.2036  -30.2148   10.2219 S.3       14 UNK        -0.2313 
     17 C17       -53.8692  -30.2155   11.4601 C.3       14 UNK        -0.0915 
     18 CA        -54.4159  -30.0619   12.9024 C.3       13 UNK         0.0968 
     19 C         -53.3064  -30.3413   13.9592 C.2       13 UNK         0.5732 
     20 N         -52.9818  -29.4262   14.8635 N.am      13 UNK        -0.7310 
     21 O         -52.7294  -31.4259   13.9641 O.2       13 UNK        -0.5035 
     22 N         -55.1106  -28.7770   13.0681 N.am      13 UNK        -0.4233 
     23 C         -56.0096  -28.5081   14.0187 C.2       13 UNK         0.4989 
     24 O         -56.4471  -29.3364   14.8205 O.2       13 UNK        -0.4996 
     25 CA        -56.4917  -27.0491   14.0922 C.3       12 UNK         0.0216 
     26 CB        -57.9653  -26.9374   13.6687 C.3       12 UNK        -0.1964 
     27 N         -56.3210  -26.4856   15.4339 N.am      12 UNK        -0.4276 
     28 C         -55.1525  -26.3914   16.0831 C.2       12 UNK         0.5020 
     29 O         -54.0738  -26.7713   15.6176 O.2       12 UNK        -0.5489 
     30 CA        -55.2119  -25.8222   17.5092 C.3       11 UNK         0.0294 
     31 CB        -55.4338  -26.9539   18.5254 C.3       11 UNK        -0.2019 
     32 N         -53.9633  -25.1381   17.8325 N.am      11 UNK        -0.4493 
     33 C         -53.6420  -23.8939   17.4639 C.2       11 UNK         0.4932 
     34 O         -54.4450  -23.1059   16.9627 O.2       11 UNK        -0.5029 
     35 CA        -52.1841  -23.4410   17.6855 C.3       10 UNK         0.0280 
     36 CB        -51.9898  -22.8561   19.0978 C.3       10 UNK        -0.1976 
     37 N         -51.1674  -24.4595   17.3740 N.am      10 UNK        -0.4242 
     38 C         -50.9267  -25.6322   17.9827 C.2       10 UNK         0.5072 
     39 O         -51.5319  -26.0131   18.9860 O.2       10 UNK        -0.5224 
     40 CA        -49.8843  -26.5751   17.3542 C.3       9 UNK         0.0343 
     41 CB        -50.5466  -27.9050   16.9616 C.3       9 UNK        -0.2003 
     42 N         -49.2385  -26.0041   16.1697 N.am      9 UNK        -0.4272 
     43 C         -48.1103  -25.2820   16.2044 C.2       9 UNK         0.4988 
     44 O         -47.4729  -25.0551   17.2335 O.2       9 UNK        -0.5108 
     45 CA        -47.6150  -24.6907   14.8740 C.3       8 UNK         0.0248 
     46 CB        -46.7867  -25.7251   14.0960 C.3       8 UNK        -0.2001 
     47 N         -48.6833  -24.1717   14.0152 N.am      8 UNK        -0.4140 
     48 C         -49.5225  -23.1769   14.3404 C.2       8 UNK         0.5028 
     49 O         -49.5465  -22.6297   15.4424 O.2       8 UNK        -0.5428 
     50 CA        -50.5169  -22.7308   13.2629 C.3       7 UNK         0.0264 
     51 CB        -49.8178  -21.8886   12.1825 C.3       7 UNK        -0.1988 
     52 N         -51.1531  -23.8905   12.6451 N.am      7 UNK        -0.4454 
     53 C         -52.3206  -24.4153   13.0419 C.2       7 UNK         0.5027 
     54 O         -53.0149  -23.9303   13.9347 O.2       7 UNK        -0.5083 
     55 CA        -52.8121  -25.6878   12.3127 C.3       6 UNK         0.0844 
     56 C56       -53.7823  -25.3256   11.1582 C.3       14 UNK        -0.0967 
     57 S57       -52.9572  -24.5145    9.7363 S.3       14 UNK        -0.2604 
     58 C58       -53.7135  -25.3494    8.3079 C.3       14 UNK         0.0134 
     59 N         -51.7341  -26.5648   11.8484 N.am      6 UNK        -0.4116 
     60 C         -50.7757  -27.1138   12.6072 C.2       5 UNK         0.5034 
     61 O         -50.6934  -26.9855   13.8275 O.2       5 UNK        -0.5045 
     62 CA        -49.6666  -27.8661   11.8542 C.3       5 UNK         0.0224 
     63 CB        -50.0848  -29.3181   11.5746 C.3       5 UNK        -0.1978 
     64 N         -49.2661  -27.2285   10.5945 N.am      5 UNK        -0.4737 
     65 C         -48.8932  -25.9525   10.4348 C.2       4 UNK         0.5027 
     66 O         -48.8322  -25.1371   11.3564 O.2       4 UNK        -0.5211 
     67 CA        -48.5441  -25.5211    9.0017 C.3       4 UNK         0.0297 
     68 CB        -48.6444  -23.9965    8.8161 C.3       4 UNK        -0.1993 
     69 N         -47.2114  -25.9661    8.5953 N.am      4 UNK        -0.4486 
     70 C         -46.8324  -27.2303    8.3713 C.2       3 UNK         0.4961 
     71 O         -47.5775  -28.2044    8.4878 O.2       3 UNK        -0.5105 
     72 CA        -45.3927  -27.4205    7.8643 C.3       3 UNK         0.0299 
     73 CB        -44.9066  -28.8748    8.0053 C.3       3 UNK        -0.1972 
     74 N         -45.3115  -27.0247    6.4591 N.am      3 UNK        -0.4305 
     75 C         -45.2567  -25.7616    6.0137 C.2       2 UNK         0.5006 
     76 O         -45.1478  -24.7809    6.7518 O.2       2 UNK        -0.5106 
     77 CA        -45.3712  -25.5556    4.4935 C.3       2 UNK         0.0296 
     78 CB        -43.9782  -25.5383    3.8436 C.3       2 UNK        -0.2002 
     79 N         -46.2044  -26.5672    3.8346 N.am      2 UNK        -0.4032 
     80 C         -47.5346  -26.6873    3.9814 C.2       1 UNK         0.5000 
     81 O         -48.2067  -25.9387    4.6924 O.2       1 UNK        -0.5238 
     82 H82       -46.0002  -29.3868    0.2465 H         1 UNK         0.0889 
     83 H83       -45.4822  -27.8054   -0.3415 H         1 UNK         0.0889 
     84 H84       -46.9200  -28.5731   -1.0204 H         1 UNK         0.0889 
     85 H85       -47.0180  -29.2669    2.2361 H         1 UNK         0.3028 
     86 H86       -49.1244  -27.3874    2.7539 H         1 UNK         0.0864 
     87 H87       -48.0002  -29.1136    4.9918 H         1 UNK         0.0720 
     88 H88       -48.6882  -29.9290    3.6243 H         1 UNK         0.0720 
     89 H89       -49.4787  -27.5578    6.6277 H         1 UNK         0.0814 
     90 H90       -49.5755  -29.2726    6.9653 H         1 UNK         0.0814 
     91 H91       -51.3684  -26.0809    7.1344 H         1 UNK         0.1469 
     92 H92       -54.8778  -27.7215    8.9589 H         1 UNK         0.1381 
     93 H93       -51.7995  -30.3303    7.5019 H         1 UNK         0.1206 
     94 H94       -54.9367  -30.6010    7.8657 H         1 UNK         0.0813 
     95 H95       -53.6025  -31.2713    8.7714 H         1 UNK         0.0813 
     96 H96       -53.3129  -31.1481   11.3476 H         1 UNK         0.0638 
     97 H97       -53.1753  -29.4062   11.2297 H         1 UNK         0.0638 
     98 H98       -55.1545  -30.8513   13.0545 H         1 UNK         0.0568 
     99 H99       -53.4435  -28.5234   14.9108 H         1 UNK         0.3450 
    100 H100      -52.2603  -29.6460   15.5288 H         1 UNK         0.3450 
    101 H101      -54.8171  -28.0427   12.4452 H         1 UNK         0.2987 
    102 H102      -55.8957  -26.4409   13.4088 H         1 UNK         0.0766 
    103 H103      -58.1128  -27.3336   12.6629 H         1 UNK         0.0798 
    104 H104      -58.2999  -25.8999   13.6585 H         1 UNK         0.0798 
    105 H105      -58.6214  -27.4965   14.3375 H         1 UNK         0.0798 
    106 H106      -57.1627  -26.1913   15.9078 H         1 UNK         0.3198 
    107 H107      -56.0387  -25.1120   17.5808 H         1 UNK         0.0843 
    108 H108      -54.6305  -27.6915   18.4872 H         1 UNK         0.0831 
    109 H109      -56.3686  -27.4805   18.3286 H         1 UNK         0.0831 
    110 H110      -55.4868  -26.5685   19.5438 H         1 UNK         0.0831 
    111 H111      -53.2218  -25.7022   18.2388 H         1 UNK         0.3133 
    112 H112      -52.0029  -22.6346   16.9729 H         1 UNK         0.0566 
    113 H113      -50.9787  -22.4715   19.2312 H         1 UNK         0.0814 
    114 H114      -52.1739  -23.5958   19.8773 H         1 UNK         0.0814 
    115 H115      -52.6777  -22.0276   19.2714 H         1 UNK         0.0814 
    116 H116      -50.5983  -24.2393   16.5658 H         1 UNK         0.3091 
    117 H117      -49.1322  -26.7871   18.1169 H         1 UNK         0.0702 
    118 H118      -49.8431  -28.5735   16.4652 H         1 UNK         0.0785 
    119 H119      -51.3872  -27.7367   16.2886 H         1 UNK         0.0785 
    120 H120      -50.9314  -28.4270   17.8385 H         1 UNK         0.0785 
    121 H121      -49.7007  -26.1764   15.2792 H         1 UNK         0.2998 
    122 H122      -46.9624  -23.8489   15.1145 H         1 UNK         0.0697 
    123 H123      -47.3817  -26.5980   13.8302 H         1 UNK         0.0825 
    124 H124      -45.9420  -26.0754   14.6907 H         1 UNK         0.0825 
    125 H125      -46.3830  -25.3020   13.1758 H         1 UNK         0.0825 
    126 H126      -48.7346  -24.5561   13.0729 H         1 UNK         0.3029 
    127 H127      -51.2719  -22.1016   13.7401 H         1 UNK         0.0897 
    128 H128      -49.0340  -22.4469   11.6695 H         1 UNK         0.0792 
    129 H129      -49.3541  -21.0034   12.6197 H         1 UNK         0.0792 
    130 H130      -50.5279  -21.5448   11.4301 H         1 UNK         0.0792 
    131 H131      -50.6157  -24.3723   11.9328 H         1 UNK         0.3086 
    132 H132      -53.3729  -26.2613   13.0522 H         1 UNK         0.0583 
    133 H133      -54.2857  -26.2294   10.8163 H         1 UNK         0.1020 
    134 H134      -54.5801  -24.6714   11.5164 H         1 UNK         0.1020 
    135 H135      -54.7980  -25.3675    8.4275 H         1 UNK         0.0694 
    136 H136      -53.5188  -24.7549    7.4140 H         1 UNK         0.0694 
    137 H137      -51.6778  -26.6973   10.8488 H         1 UNK         0.2989 
    138 H138      -48.7913  -27.8850   12.5045 H         1 UNK         0.1055 
    139 H139      -50.8711  -29.3745   10.8214 H         1 UNK         0.0806 
    140 H140      -49.2410  -29.9073   11.2148 H         1 UNK         0.0806 
    141 H141      -50.4556  -29.8043   12.4785 H         1 UNK         0.0806 
    142 H142      -49.1641  -27.8367    9.7888 H         1 UNK         0.3061 
    143 H143      -49.2742  -25.9791    8.3348 H         1 UNK         0.0734 
    144 H144      -47.9100  -23.4647    9.4224 H         1 UNK         0.0832 
    145 H145      -48.4887  -23.7135    7.7747 H         1 UNK         0.0832 
    146 H146      -49.6316  -23.6327    9.1057 H         1 UNK         0.0832 
    147 H147      -46.5300  -25.2397    8.4095 H         1 UNK         0.3156 
    148 H148      -44.7332  -26.7860    8.4604 H         1 UNK         0.0589 
    149 H149      -43.8682  -28.9779    7.6900 H         1 UNK         0.0808 
    150 H150      -44.9636  -29.2042    9.0437 H         1 UNK         0.0808 
    151 H151      -45.5075  -29.5654    7.4119 H         1 UNK         0.0808 
    152 H152      -45.4168  -27.7627    5.7792 H         1 UNK         0.3098 
    153 H153      -45.8359  -24.5808    4.3300 H         1 UNK         0.0720 
    154 H154      -43.3456  -24.7748    4.2989 H         1 UNK         0.0791 
    155 H155      -44.0397  -25.3118    2.7789 H         1 UNK         0.0791 
    156 H156      -43.4658  -26.4948    3.9556 H         1 UNK         0.0791 
    157 H157      -45.7363  -27.2116    3.2144 H         1 UNK         0.3028 
@<TRIPOS>BOND
     1    1    2 1    
     2    1   82 1    
     3    1   83 1    
     4    1   84 1    
     5    2    3 2    
     6    2    4 am   BACKBONE|DICT|INTERRES
     7    4    5 1    
     8    4   85 1    
     9    5    6 1    
    10    5   80 1    
    11    5   86 1    
    12    6    7 1    
    13    6   87 1    
    14    6   88 1    
    15    7    8 1    
    16    8    9 1    
    17    8   89 1    
    18    8   90 1    
    19    9   10 ar   
    20    9   14 ar   
    21   10   11 ar   
    22   10   91 1    
    23   11   12 ar   
    24   11   58 1    
    25   12   13 ar   
    26   12   92 1    
    27   13   14 ar   
    28   13   15 1    
    29   14   93 1    
    30   15   16 1    
    31   15   94 1    
    32   15   95 1    
    33   16   17 1    
    34   17   18 1    
    35   17   96 1    
    36   17   97 1    
    37   18   19 1    
    38   18   22 1    
    39   18   98 1    
    40   19   20 am   BACKBONE|DICT|INTERRES
    41   19   21 2    
    42   20   99 1    
    43   20  100 1    
    44   22   23 am   BACKBONE|DICT|INTERRES
    45   22  101 1    
    46   23   24 2    
    47   23   25 1    
    48   25   26 1    
    49   25   27 1    
    50   25  102 1    
    51   26  103 1    
    52   26  104 1    
    53   26  105 1    
    54   27   28 am   BACKBONE|DICT|INTERRES
    55   27  106 1    
    56   28   29 2    
    57   28   30 1    
    58   30   31 1    
    59   30   32 1    
    60   30  107 1    
    61   31  108 1    
    62   31  109 1    
    63   31  110 1    
    64   32   33 am   BACKBONE|DICT|INTERRES
    65   32  111 1    
    66   33   34 2    
    67   33   35 1    
    68   35   36 1    
    69   35   37 1    
    70   35  112 1    
    71   36  113 1    
    72   36  114 1    
    73   36  115 1    
    74   37   38 am   BACKBONE|DICT|INTERRES
    75   37  116 1    
    76   38   39 2    
    77   38   40 1    
    78   40   41 1    
    79   40   42 1    
    80   40  117 1    
    81   41  118 1    
    82   41  119 1    
    83   41  120 1    
    84   42   43 am   BACKBONE|DICT|INTERRES
    85   42  121 1    
    86   43   44 2    
    87   43   45 1    
    88   45   46 1    
    89   45   47 1    
    90   45  122 1    
    91   46  123 1    
    92   46  124 1    
    93   46  125 1    
    94   47   48 am   BACKBONE|DICT|INTERRES
    95   47  126 1    
    96   48   49 2    
    97   48   50 1    
    98   50   51 1    
    99   50   52 1    
   100   50  127 1    
   101   51  128 1    
   102   51  129 1    
   103   51  130 1    
   104   52   53 am   BACKBONE|DICT|INTERRES
   105   52  131 1    
   106   53   54 2    
   107   53   55 1    
   108   55   56 1    
   109   55   59 1    
   110   55  132 1    
   111   56   57 1    
   112   56  133 1    
   113   56  134 1    
   114   57   58 1    
   115   58  135 1    
   116   58  136 1    
   117   59   60 am   BACKBONE|DICT|INTERRES
   118   59  137 1    
   119   60   61 2    
   120   60   62 1    
   121   62   63 1    
   122   62   64 1    
   123   62  138 1    
   124   63  139 1    
   125   63  140 1    
   126   63  141 1    
   127   64   65 am   BACKBONE|DICT|INTERRES
   128   64  142 1    
   129   65   66 2    
   130   65   67 1    
   131   67   68 1    
   132   67   69 1    
   133   67  143 1    
   134   68  144 1    
   135   68  145 1    
   136   68  146 1    
   137   69   70 am   BACKBONE|DICT|INTERRES
   138   69  147 1    
   139   70   71 2    
   140   70   72 1    
   141   72   73 1    
   142   72   74 1    
   143   72  148 1    
   144   73  149 1    
   145   73  150 1    
   146   73  151 1    
   147   74   75 am   BACKBONE|DICT|INTERRES
   148   74  152 1    
   149   75   76 2    
   150   75   77 1    
   151   77   78 1    
   152   77   79 1    
   153   77  153 1    
   154   78  154 1    
   155   78  155 1    
   156   78  156 1    
   157   79   80 am   BACKBONE|DICT|INTERRES
   158   79  157 1    
   159   80   81 2    
@<TRIPOS>SUBSTRUCTURE
     1 UNK         1 GROUP             0       ****    0 ROOT    
