@<TRIPOS>MOLECULE
3R207
157   159    1
SMALL
USER_CHARGES


@<TRIPOS>ATOM
      1 CA        -48.9736  -28.2255    1.9938 C.3       0 UNK        -0.1975 
      2 C         -49.9932  -28.0233    3.1050 C.2       0 UNK         0.4852 
      3 O         -49.7921  -28.5342    4.2051 O.2       0 UNK        -0.5216 
      4 N         -51.0613  -27.2626    2.8169 N.am      1 UNK        -0.4461 
      5 CA        -52.2259  -26.9337    3.6610 C.3       1 UNK         0.0864 
      6 C6        -53.2843  -28.0747    3.7475 C.3       14 UNK        -0.0898 
      7 S7        -52.8422  -29.5072    4.7939 S.3       14 UNK        -0.2598 
      8 C8        -54.0075  -29.3438    6.1832 C.3       14 UNK         0.0286 
      9 C9        -53.3520  -29.7585    7.4900 C.ar      14 UNK        -0.0844 
     10 C10       -52.7650  -28.7928    8.3103 C.ar      14 UNK        -0.0881 
     11 C11       -52.1630  -29.1559    9.5172 C.ar      14 UNK        -0.0643 
     12 C12       -52.1316  -30.5016    9.8944 C.ar      14 UNK        -0.0930 
     13 C13       -52.7208  -31.4775    9.0831 C.ar      14 UNK        -0.0827 
     14 C14       -53.3333  -31.0991    7.8839 C.ar      14 UNK        -0.1249 
     15 C15       -52.6764  -32.9443    9.4885 C.3       14 UNK         0.0141 
     16 S16       -53.6561  -33.2905   10.9846 S.3       14 UNK        -0.2313 
     17 C17       -55.3704  -32.9852   10.4226 C.3       14 UNK        -0.0915 
     18 CA        -56.1321  -31.9511   11.2957 C.3       13 UNK         0.0968 
     19 C         -56.4621  -32.5233   12.7082 C.2       13 UNK         0.5732 
     20 N         -55.8694  -32.0241   13.7865 N.am      13 UNK        -0.7310 
     21 O         -57.2803  -33.4330   12.8242 O.2       13 UNK        -0.5035 
     22 N         -55.4690  -30.6371   11.2678 N.am      13 UNK        -0.4233 
     23 C         -55.9884  -29.4958   11.7348 C.2       13 UNK         0.4989 
     24 O         -57.1129  -29.3898   12.2304 O.2       13 UNK        -0.4996 
     25 CA        -55.1053  -28.2530   11.6100 C.3       12 UNK         0.0216 
     26 CB        -55.4173  -27.4850   10.3136 C.3       12 UNK        -0.1964 
     27 N         -55.3314  -27.3869   12.7631 N.am      12 UNK        -0.4276 
     28 C         -54.3840  -26.6915   13.3997 C.2       12 UNK         0.5020 
     29 O         -53.1974  -26.6651   13.0607 O.2       12 UNK        -0.5489 
     30 CA        -54.8319  -25.9095   14.6401 C.3       11 UNK         0.0294 
     31 CB        -55.0987  -26.8593   15.8243 C.3       11 UNK        -0.2019 
     32 N         -53.7779  -24.9635   14.9905 N.am      11 UNK        -0.4493 
     33 C         -53.9065  -23.8816   15.7667 C.2       11 UNK         0.4932 
     34 O         -54.9742  -23.5227   16.2666 O.2       11 UNK        -0.5029 
     35 CA        -52.6167  -23.0776   16.0278 C.3       10 UNK         0.0280 
     36 CB        -52.7507  -22.0568   17.1776 C.3       10 UNK        -0.1976 
     37 N         -51.4531  -23.9499   16.2229 N.am      10 UNK        -0.4242 
     38 C         -51.2629  -24.8570   17.1935 C.2       10 UNK         0.5072 
     39 O         -52.0256  -25.0298   18.1452 O.2       10 UNK        -0.5224 
     40 CA        -50.0136  -25.7460   17.0695 C.3       9 UNK         0.0343 
     41 CB        -50.3344  -26.9899   16.2241 C.3       9 UNK        -0.2003 
     42 N         -48.8559  -25.0507   16.4989 N.am      9 UNK        -0.4272 
     43 C         -48.1775  -24.0725   17.1176 C.2       9 UNK         0.4988 
     44 O         -48.4312  -23.6762   18.2558 O.2       9 UNK        -0.5108 
     45 CA        -47.0211  -23.4215   16.3388 C.3       8 UNK         0.0248 
     46 CB        -45.7623  -24.3021   16.3941 C.3       8 UNK        -0.2001 
     47 N         -47.3641  -23.1349   14.9442 N.am      8 UNK        -0.4140 
     48 C         -48.2758  -22.2318   14.5537 C.2       8 UNK         0.5028 
     49 O         -48.8793  -21.4856   15.3251 O.2       8 UNK        -0.5428 
     50 CA        -48.5971  -22.1722   13.0498 C.3       7 UNK         0.0264 
     51 CB        -47.5642  -21.3184   12.2975 C.3       7 UNK        -0.1988 
     52 N         -48.6862  -23.4984   12.4335 N.am      7 UNK        -0.4454 
     53 C         -49.5908  -24.4314   12.7682 C.2       7 UNK         0.5027 
     54 O         -50.4752  -24.2599   13.6063 O.2       7 UNK        -0.5083 
     55 CA        -49.4646  -25.7979   12.0730 C.3       6 UNK         0.0844 
     56 C56       -50.1321  -25.7457   10.6788 C.3       14 UNK        -0.0967 
     57 S57       -50.0770  -27.3399    9.7957 S.3       14 UNK        -0.2604 
     58 C58       -51.6098  -28.0774   10.4323 C.3       14 UNK         0.0134 
     59 N         -48.0684  -26.2406   12.0290 N.am      6 UNK        -0.4116 
     60 C         -47.3325  -26.5573   13.1039 C.2       5 UNK         0.5034 
     61 O         -47.7613  -26.5518   14.2570 O.2       5 UNK        -0.5045 
     62 CA        -45.8511  -26.8851   12.8545 C.3       5 UNK         0.0224 
     63 CB        -45.6868  -28.3450   12.4033 C.3       5 UNK        -0.1978 
     64 N         -45.2358  -25.9923   11.8686 N.am      5 UNK        -0.4737 
     65 C         -45.0802  -24.6706   12.0346 C.2       4 UNK         0.5027 
     66 O         -45.3741  -24.0740   13.0691 O.2       4 UNK        -0.5211 
     67 CA        -44.5681  -23.8735   10.8210 C.3       4 UNK         0.0297 
     68 CB        -43.0326  -23.8178   10.8234 C.3       4 UNK        -0.1993 
     69 N         -45.0426  -24.4022    9.5357 N.am      4 UNK        -0.4486 
     70 C         -46.3321  -24.5073    9.1880 C.2       3 UNK         0.4961 
     71 O         -47.2667  -24.1349    9.9045 O.2       3 UNK        -0.5105 
     72 CA        -46.6263  -25.1940    7.8487 C.3       3 UNK         0.0299 
     73 CB        -46.2388  -26.6865    7.8983 C.3       3 UNK        -0.1972 
     74 N         -48.0523  -25.0622    7.5697 N.am      3 UNK        -0.4305 
     75 C         -48.6495  -25.2403    6.3891 C.2       2 UNK         0.5006 
     76 O         -48.0504  -25.5028    5.3418 O.2       2 UNK        -0.5106 
     77 CA        -50.1745  -25.0795    6.3753 C.3       2 UNK         0.0296 
     78 CB        -50.5841  -23.5951    6.3958 C.3       2 UNK        -0.2002 
     79 N         -50.6900  -25.7274    5.1750 N.am      2 UNK        -0.4032 
     80 C         -51.9169  -26.2343    5.0105 C.2       1 UNK         0.5000 
     81 O         -52.8078  -26.1204    5.8550 O.2       1 UNK        -0.5238 
     82 H82       -48.0052  -27.8292    2.2983 H         1 UNK         0.0889 
     83 H83       -49.2689  -27.7279    1.0702 H         1 UNK         0.0889 
     84 H84       -48.8560  -29.2880    1.7829 H         1 UNK         0.0889 
     85 H85       -51.1109  -26.8667    1.8880 H         1 UNK         0.3028 
     86 H86       -52.7164  -26.1408    3.0940 H         1 UNK         0.0864 
     87 H87       -54.2398  -27.6658    4.0787 H         1 UNK         0.0720 
     88 H88       -53.4795  -28.4563    2.7447 H         1 UNK         0.0720 
     89 H89       -54.8887  -29.9567    5.9893 H         1 UNK         0.0814 
     90 H90       -54.3631  -28.3162    6.2669 H         1 UNK         0.0814 
     91 H91       -52.7836  -27.7523    8.0144 H         1 UNK         0.1469 
     92 H92       -51.6626  -30.7906   10.8251 H         1 UNK         0.1381 
     93 H93       -53.7855  -31.8477    7.2478 H         1 UNK         0.1206 
     94 H94       -53.0250  -33.5860    8.6778 H         1 UNK         0.0813 
     95 H95       -51.6399  -33.2279    9.6753 H         1 UNK         0.0813 
     96 H96       -55.9005  -33.9392   10.4057 H         1 UNK         0.0638 
     97 H97       -55.3582  -32.6451    9.3865 H         1 UNK         0.0638 
     98 H98       -57.1039  -31.8005   10.8219 H         1 UNK         0.0568 
     99 H99       -55.1901  -31.2866   13.7007 H         1 UNK         0.3450 
    100 H100      -56.0963  -32.4013   14.6927 H         1 UNK         0.3450 
    101 H101      -54.5416  -30.6335   10.8672 H         1 UNK         0.2987 
    102 H102      -54.0673  -28.5853   11.6024 H         1 UNK         0.0766 
    103 H103      -54.7467  -26.6357   10.1845 H         1 UNK         0.0798 
    104 H104      -56.4402  -27.1068   10.3070 H         1 UNK         0.0798 
    105 H105      -55.3036  -28.1264    9.4394 H         1 UNK         0.0798 
    106 H106      -56.2733  -27.4145   13.1332 H         1 UNK         0.3198 
    107 H107      -55.7406  -25.3570   14.3919 H         1 UNK         0.0843 
    108 H108      -54.2032  -27.4192   16.0970 H         1 UNK         0.0831 
    109 H109      -55.8780  -27.5838   15.5852 H         1 UNK         0.0831 
    110 H110      -55.4301  -26.3129   16.7073 H         1 UNK         0.0831 
    111 H111      -52.8865  -25.1669   14.5499 H         1 UNK         0.3133 
    112 H112      -52.4185  -22.5166   15.1134 H         1 UNK         0.0566 
    113 H113      -51.8214  -21.5070   17.3272 H         1 UNK         0.0814 
    114 H114      -53.5292  -21.3247   16.9601 H         1 UNK         0.0814 
    115 H115      -53.0127  -22.5375   18.1205 H         1 UNK         0.0814 
    116 H116      -50.8016  -23.9604   15.4413 H         1 UNK         0.3091 
    117 H117      -49.7432  -26.0784   18.0740 H         1 UNK         0.0702 
    118 H118      -49.4898  -27.6783   16.1955 H         1 UNK         0.0785 
    119 H119      -50.5853  -26.7257   15.1958 H         1 UNK         0.0785 
    120 H120      -51.1841  -27.5356   16.6368 H         1 UNK         0.0785 
    121 H121      -48.5354  -25.3727   15.5896 H         1 UNK         0.2998 
    122 H122      -46.7887  -22.4712   16.8242 H         1 UNK         0.0697 
    123 H123      -45.9168  -25.2613   15.8992 H         1 UNK         0.0825 
    124 H124      -45.4749  -24.5087   17.4258 H         1 UNK         0.0825 
    125 H125      -44.9153  -23.8124   15.9130 H         1 UNK         0.0825 
    126 H126      -46.8492  -23.6464   14.2317 H         1 UNK         0.3029 
    127 H127      -49.5741  -21.6961   12.9415 H         1 UNK         0.0897 
    128 H128      -47.8023  -21.2491   11.2358 H         1 UNK         0.0792 
    129 H129      -47.5397  -20.3021   12.6926 H         1 UNK         0.0792 
    130 H130      -46.5577  -21.7261   12.3892 H         1 UNK         0.0792 
    131 H131      -48.0183  -23.7127   11.6982 H         1 UNK         0.3086 
    132 H132      -50.0160  -26.5202   12.6792 H         1 UNK         0.0583 
    133 H133      -51.1707  -25.4210   10.7712 H         1 UNK         0.1020 
    134 H134      -49.6588  -24.9946   10.0485 H         1 UNK         0.1020 
    135 H135      -51.4303  -28.4659   11.4359 H         1 UNK         0.0694 
    136 H136      -52.3692  -27.3029   10.5356 H         1 UNK         0.0694 
    137 H137      -47.6274  -26.2340   11.1220 H         1 UNK         0.2989 
    138 H138      -45.3224  -26.7554   13.8017 H         1 UNK         0.1055 
    139 H139      -46.1251  -29.0288   13.1319 H         1 UNK         0.0806 
    140 H140      -44.6349  -28.6133   12.3032 H         1 UNK         0.0806 
    141 H141      -46.1746  -28.5331   11.4460 H         1 UNK         0.0806 
    142 H142      -44.9546  -26.3999   10.9889 H         1 UNK         0.3061 
    143 H143      -44.9460  -22.8537   10.9160 H         1 UNK         0.0734 
    144 H144      -42.6564  -23.1797   10.0236 H         1 UNK         0.0832 
    145 H145      -42.6601  -23.4079   11.7635 H         1 UNK         0.0832 
    146 H146      -42.5900  -24.8073   10.7022 H         1 UNK         0.0832 
    147 H147      -44.3368  -24.7261    8.8894 H         1 UNK         0.3156 
    148 H148      -46.0583  -24.6846    7.0678 H         1 UNK         0.0589 
    149 H149      -46.7930  -27.2201    8.6717 H         1 UNK         0.0808 
    150 H150      -46.4401  -27.1816    6.9481 H         1 UNK         0.0808 
    151 H151      -45.1762  -26.8192    8.1035 H         1 UNK         0.0808 
    152 H152      -48.5924  -24.7699    8.3738 H         1 UNK         0.3098 
    153 H153      -50.5803  -25.5860    7.2538 H         1 UNK         0.0720 
    154 H154      -50.1957  -23.0598    5.5285 H         1 UNK         0.0791 
    155 H155      -50.2058  -23.0936    7.2873 H         1 UNK         0.0791 
    156 H156      -51.6685  -23.4829    6.3997 H         1 UNK         0.0791 
    157 H157      -49.9850  -25.9083    4.4708 H         1 UNK         0.3028 
@<TRIPOS>BOND
     1    1    2 1    
     2    1   82 1    
     3    1   83 1    
     4    1   84 1    
     5    2    3 2    
     6    2    4 am   BACKBONE|DICT|INTERRES
     7    4    5 1    
     8    4   85 1    
     9    5    6 1    
    10    5   80 1    
    11    5   86 1    
    12    6    7 1    
    13    6   87 1    
    14    6   88 1    
    15    7    8 1    
    16    8    9 1    
    17    8   89 1    
    18    8   90 1    
    19    9   10 ar   
    20    9   14 ar   
    21   10   11 ar   
    22   10   91 1    
    23   11   12 ar   
    24   11   58 1    
    25   12   13 ar   
    26   12   92 1    
    27   13   14 ar   
    28   13   15 1    
    29   14   93 1    
    30   15   16 1    
    31   15   94 1    
    32   15   95 1    
    33   16   17 1    
    34   17   18 1    
    35   17   96 1    
    36   17   97 1    
    37   18   19 1    
    38   18   22 1    
    39   18   98 1    
    40   19   20 am   BACKBONE|DICT|INTERRES
    41   19   21 2    
    42   20   99 1    
    43   20  100 1    
    44   22   23 am   BACKBONE|DICT|INTERRES
    45   22  101 1    
    46   23   24 2    
    47   23   25 1    
    48   25   26 1    
    49   25   27 1    
    50   25  102 1    
    51   26  103 1    
    52   26  104 1    
    53   26  105 1    
    54   27   28 am   BACKBONE|DICT|INTERRES
    55   27  106 1    
    56   28   29 2    
    57   28   30 1    
    58   30   31 1    
    59   30   32 1    
    60   30  107 1    
    61   31  108 1    
    62   31  109 1    
    63   31  110 1    
    64   32   33 am   BACKBONE|DICT|INTERRES
    65   32  111 1    
    66   33   34 2    
    67   33   35 1    
    68   35   36 1    
    69   35   37 1    
    70   35  112 1    
    71   36  113 1    
    72   36  114 1    
    73   36  115 1    
    74   37   38 am   BACKBONE|DICT|INTERRES
    75   37  116 1    
    76   38   39 2    
    77   38   40 1    
    78   40   41 1    
    79   40   42 1    
    80   40  117 1    
    81   41  118 1    
    82   41  119 1    
    83   41  120 1    
    84   42   43 am   BACKBONE|DICT|INTERRES
    85   42  121 1    
    86   43   44 2    
    87   43   45 1    
    88   45   46 1    
    89   45   47 1    
    90   45  122 1    
    91   46  123 1    
    92   46  124 1    
    93   46  125 1    
    94   47   48 am   BACKBONE|DICT|INTERRES
    95   47  126 1    
    96   48   49 2    
    97   48   50 1    
    98   50   51 1    
    99   50   52 1    
   100   50  127 1    
   101   51  128 1    
   102   51  129 1    
   103   51  130 1    
   104   52   53 am   BACKBONE|DICT|INTERRES
   105   52  131 1    
   106   53   54 2    
   107   53   55 1    
   108   55   56 1    
   109   55   59 1    
   110   55  132 1    
   111   56   57 1    
   112   56  133 1    
   113   56  134 1    
   114   57   58 1    
   115   58  135 1    
   116   58  136 1    
   117   59   60 am   BACKBONE|DICT|INTERRES
   118   59  137 1    
   119   60   61 2    
   120   60   62 1    
   121   62   63 1    
   122   62   64 1    
   123   62  138 1    
   124   63  139 1    
   125   63  140 1    
   126   63  141 1    
   127   64   65 am   BACKBONE|DICT|INTERRES
   128   64  142 1    
   129   65   66 2    
   130   65   67 1    
   131   67   68 1    
   132   67   69 1    
   133   67  143 1    
   134   68  144 1    
   135   68  145 1    
   136   68  146 1    
   137   69   70 am   BACKBONE|DICT|INTERRES
   138   69  147 1    
   139   70   71 2    
   140   70   72 1    
   141   72   73 1    
   142   72   74 1    
   143   72  148 1    
   144   73  149 1    
   145   73  150 1    
   146   73  151 1    
   147   74   75 am   BACKBONE|DICT|INTERRES
   148   74  152 1    
   149   75   76 2    
   150   75   77 1    
   151   77   78 1    
   152   77   79 1    
   153   77  153 1    
   154   78  154 1    
   155   78  155 1    
   156   78  156 1    
   157   79   80 am   BACKBONE|DICT|INTERRES
   158   79  157 1    
   159   80   81 2    
@<TRIPOS>SUBSTRUCTURE
     1 UNK         1 GROUP             0       ****    0 ROOT    
