@<TRIPOS>MOLECULE
3R207
157   159    1
SMALL
USER_CHARGES


@<TRIPOS>ATOM
      1 CA        -45.0791  -26.8632    9.8085 C.3       0 UNK        -0.1975 
      2 C         -45.9106  -27.5860    8.7592 C.2       0 UNK         0.4852 
      3 O         -45.5137  -28.6528    8.2867 O.2       0 UNK        -0.5216 
      4 N         -47.0597  -27.0141    8.3818 N.am      1 UNK        -0.4461 
      5 CA        -47.9954  -27.5684    7.3998 C.3       1 UNK         0.0864 
      6 C6        -49.4406  -27.0856    7.6656 C.3       14 UNK        -0.0898 
      7 S7        -50.1204  -27.8710    9.1687 S.3       14 UNK        -0.2598 
      8 C8        -51.6898  -28.5614    8.5449 C.3       14 UNK         0.0286 
      9 C9        -52.8498  -27.6272    8.8521 C.ar      14 UNK        -0.0844 
     10 C10       -52.9510  -26.3870    8.2175 C.ar      14 UNK        -0.0881 
     11 C11       -53.9633  -25.4907    8.5717 C.ar      14 UNK        -0.0643 
     12 C12       -54.9057  -25.8639    9.5371 C.ar      14 UNK        -0.0930 
     13 C13       -54.8341  -27.1145   10.1597 C.ar      14 UNK        -0.0827 
     14 C14       -53.8039  -27.9891    9.8053 C.ar      14 UNK        -0.1249 
     15 C15       -55.8283  -27.4804   11.2584 C.3       14 UNK         0.0141 
     16 S16       -56.7169  -29.0403   10.9576 S.3       14 UNK        -0.2313 
     17 C17       -55.6612  -30.2548   11.8250 C.3       14 UNK        -0.0915 
     18 CA        -56.2927  -30.7551   13.1516 C.3       13 UNK         0.0968 
     19 C         -55.6215  -32.0650   13.6644 C.2       13 UNK         0.5732 
     20 N         -55.3039  -32.2099   14.9458 N.am      13 UNK        -0.7310 
     21 O         -55.3994  -32.9889   12.8852 O.2       13 UNK        -0.5035 
     22 N         -56.3270  -29.6877   14.1653 N.am      13 UNK        -0.4233 
     23 C         -57.3546  -29.4554   14.9914 C.2       13 UNK         0.4989 
     24 O         -58.4326  -30.0499   14.9260 O.2       13 UNK        -0.4996 
     25 CA        -57.1319  -28.3902   16.0868 C.3       12 UNK         0.0216 
     26 CB        -58.2180  -28.4206   17.1830 C.3       12 UNK        -0.1964 
     27 N         -55.7957  -28.4421   16.6955 N.am      12 UNK        -0.4276 
     28 C         -55.2024  -29.4980   17.2777 C.2       12 UNK         0.5020 
     29 O         -55.7390  -30.6010   17.3877 O.2       12 UNK        -0.5489 
     30 CA        -53.7568  -29.3283   17.7857 C.3       11 UNK         0.0294 
     31 CB        -52.8355  -30.3949   17.1655 C.3       11 UNK        -0.2019 
     32 N         -53.2099  -28.0075   17.4748 N.am      11 UNK        -0.4493 
     33 C         -53.1927  -26.9547   18.3035 C.2       11 UNK         0.4932 
     34 O         -53.5671  -26.9964   19.4751 O.2       11 UNK        -0.5029 
     35 CA        -52.7013  -25.6173   17.7144 C.3       10 UNK         0.0280 
     36 CB        -51.2190  -25.3938   18.0521 C.3       10 UNK        -0.1976 
     37 N         -52.8888  -25.5244   16.2618 N.am      10 UNK        -0.4242 
     38 C         -54.0849  -25.4977   15.6518 C.2       10 UNK         0.5072 
     39 O         -55.1565  -25.4767   16.2567 O.2       10 UNK        -0.5224 
     40 CA        -54.1006  -25.6104   14.1186 C.3       9 UNK         0.0343 
     41 CB        -54.1422  -24.2219   13.4654 C.3       9 UNK        -0.2003 
     42 N         -52.9692  -26.3923   13.6020 N.am      9 UNK        -0.4272 
     43 C         -52.8166  -27.7098   13.8228 C.2       9 UNK         0.4988 
     44 O         -53.6903  -28.3990   14.3520 O.2       9 UNK        -0.5108 
     45 CA        -51.4735  -28.3781   13.4663 C.3       8 UNK         0.0248 
     46 CB        -51.6474  -29.5424   12.4812 C.3       8 UNK        -0.2001 
     47 N         -50.4539  -27.4583   12.9588 N.am      8 UNK        -0.4140 
     48 C         -49.7582  -26.6059   13.7225 C.2       8 UNK         0.5028 
     49 O         -49.9140  -26.4961   14.9392 O.2       8 UNK        -0.5428 
     50 CA        -48.7615  -25.6859   12.9977 C.3       7 UNK         0.0264 
     51 CB        -47.4093  -26.3913   12.8082 C.3       7 UNK        -0.1988 
     52 N         -49.2343  -25.1959   11.6987 N.am      7 UNK        -0.4454 
     53 C         -50.3577  -24.4973   11.4873 C.2       7 UNK         0.5027 
     54 O         -51.1652  -24.2404   12.3799 O.2       7 UNK        -0.5083 
     55 CA        -50.6025  -23.9864   10.0491 C.3       6 UNK         0.0844 
     56 C56       -52.0208  -23.3784    9.8768 C.3       14 UNK        -0.0967 
     57 S57       -52.4477  -23.1692    8.1116 S.3       14 UNK        -0.2604 
     58 C58       -54.0158  -24.0982    7.9522 C.3       14 UNK         0.0134 
     59 N         -49.5728  -23.0184    9.6553 N.am      6 UNK        -0.4116 
     60 C         -48.2785  -23.2578    9.4083 C.2       5 UNK         0.5034 
     61 O         -47.7713  -24.3845    9.3776 O.2       5 UNK        -0.5045 
     62 CA        -47.4069  -22.0071    9.2375 C.3       5 UNK         0.0224 
     63 CB        -47.3305  -21.2219   10.5664 C.3       5 UNK        -0.1978 
     64 N         -46.0584  -22.3689    8.8034 N.am      5 UNK        -0.4737 
     65 C         -45.1589  -21.5130    8.3058 C.2       4 UNK         0.5027 
     66 O         -45.4064  -20.3327    8.0559 O.2       4 UNK        -0.5211 
     67 CA        -43.7347  -22.0390    8.0644 C.3       4 UNK         0.0297 
     68 CB        -43.1429  -22.7311    9.3122 C.3       4 UNK        -0.1993 
     69 N         -43.6206  -22.8741    6.8648 N.am      4 UNK        -0.4486 
     70 C         -44.1447  -24.0877    6.6604 C.2       3 UNK         0.4961 
     71 O         -44.8328  -24.6953    7.4843 O.2       3 UNK        -0.5105 
     72 CA        -43.8181  -24.7423    5.3125 C.3       3 UNK         0.0299 
     73 CB        -42.3212  -25.0918    5.2008 C.3       3 UNK        -0.1972 
     74 N         -44.6148  -25.9557    5.1976 N.am      3 UNK        -0.4305 
     75 C         -44.9844  -26.5656    4.0677 C.2       2 UNK         0.5006 
     76 O         -44.6563  -26.1812    2.9442 O.2       2 UNK        -0.5106 
     77 CA        -45.8594  -27.8261    4.2045 C.3       2 UNK         0.0296 
     78 CB        -45.0327  -29.0878    3.9047 C.3       2 UNK        -0.2002 
     79 N         -46.4832  -27.9704    5.5241 N.am      2 UNK        -0.4032 
     80 C         -47.5130  -27.2407    5.9738 C.2       1 UNK         0.5000 
     81 O         -48.0533  -26.3446    5.3217 O.2       1 UNK        -0.5238 
     82 H82       -45.0062  -27.4657   10.7132 H         1 UNK         0.0889 
     83 H83       -45.5121  -25.8985   10.0723 H         1 UNK         0.0889 
     84 H84       -44.0727  -26.6856    9.4305 H         1 UNK         0.0889 
     85 H85       -47.3018  -26.0949    8.7451 H         1 UNK         0.3028 
     86 H86       -47.9958  -28.6578    7.4857 H         1 UNK         0.0864 
     87 H87       -49.4712  -26.0007    7.7694 H         1 UNK         0.0720 
     88 H88       -50.0819  -27.3197    6.8147 H         1 UNK         0.0720 
     89 H89       -51.8472  -29.5318    9.0179 H         1 UNK         0.0814 
     90 H90       -51.6428  -28.7615    7.4742 H         1 UNK         0.0814 
     91 H91       -52.2124  -26.0965    7.4835 H         1 UNK         0.1469 
     92 H92       -55.6838  -25.1687    9.8212 H         1 UNK         0.1381 
     93 H93       -53.7356  -28.9543   10.2791 H         1 UNK         0.1206 
     94 H94       -56.5677  -26.6882   11.3837 H         1 UNK         0.0813 
     95 H95       -55.3000  -27.5555   12.2048 H         1 UNK         0.0813 
     96 H96       -54.6760  -29.8367   12.0255 H         1 UNK         0.0638 
     97 H97       -55.5053  -31.0788   11.1267 H         1 UNK         0.0638 
     98 H98       -57.3157  -31.0541   12.9173 H         1 UNK         0.0568 
     99 H99       -55.5292  -31.5018   15.6359 H         1 UNK         0.3450 
    100 H100      -54.8800  -33.0735   15.2430 H         1 UNK         0.3450 
    101 H101      -55.4523  -29.1899   14.3085 H         1 UNK         0.2987 
    102 H102      -57.1990  -27.4247   15.5831 H         1 UNK         0.0766 
    103 H103      -59.2103  -28.2642   16.7581 H         1 UNK         0.0798 
    104 H104      -58.0568  -27.6354   17.9216 H         1 UNK         0.0798 
    105 H105      -58.2344  -29.3766   17.7077 H         1 UNK         0.0798 
    106 H106      -55.2773  -27.5727   16.6527 H         1 UNK         0.3198 
    107 H107      -53.7740  -29.4788   18.8672 H         1 UNK         0.0843 
    108 H108      -52.8266  -30.3400   16.0762 H         1 UNK         0.0831 
    109 H109      -53.1623  -31.3999   17.4357 H         1 UNK         0.0831 
    110 H110      -51.8092  -30.2865   17.5163 H         1 UNK         0.0831 
    111 H111      -52.9026  -27.8740   16.5214 H         1 UNK         0.3133 
    112 H112      -53.2824  -24.8181   18.1793 H         1 UNK         0.0566 
    113 H113      -50.8701  -24.4260   17.6918 H         1 UNK         0.0814 
    114 H114      -50.5838  -26.1641   17.6126 H         1 UNK         0.0814 
    115 H115      -51.0571  -25.4148   19.1307 H         1 UNK         0.0814 
    116 H116      -52.0521  -25.5608   15.6928 H         1 UNK         0.3091 
    117 H117      -55.0244  -26.1251   13.8545 H         1 UNK         0.0702 
    118 H118      -54.1601  -24.2955   12.3782 H         1 UNK         0.0785 
    119 H119      -53.2841  -23.6131   13.7511 H         1 UNK         0.0785 
    120 H120      -55.0381  -23.6785   13.7681 H         1 UNK         0.0785 
    121 H121      -52.2216  -25.8670   13.1613 H         1 UNK         0.2998 
    122 H122      -51.1016  -28.8061   14.3998 H         1 UNK         0.0697 
    123 H123      -51.9008  -29.1883   11.4859 H         1 UNK         0.0825 
    124 H124      -52.4306  -30.2285   12.8060 H         1 UNK         0.0825 
    125 H125      -50.7291  -30.1238   12.3974 H         1 UNK         0.0825 
    126 H126      -50.2814  -27.4657   11.9627 H         1 UNK         0.3029 
    127 H127      -48.6061  -24.8139   13.6362 H         1 UNK         0.0897 
    128 H128      -47.4876  -27.2399   12.1273 H         1 UNK         0.0792 
    129 H129      -47.0279  -26.7678   13.7585 H         1 UNK         0.0792 
    130 H130      -46.6598  -25.7080   12.4087 H         1 UNK         0.0792 
    131 H131      -48.6047  -25.3013   10.9095 H         1 UNK         0.3086 
    132 H132      -50.5293  -24.8567    9.3982 H         1 UNK         0.0583 
    133 H133      -52.7715  -24.0057   10.3578 H         1 UNK         0.1020 
    134 H134      -52.0929  -22.4109   10.3768 H         1 UNK         0.1020 
    135 H135      -54.8115  -23.5054    8.4061 H         1 UNK         0.0694 
    136 H136      -54.2660  -24.1899    6.8945 H         1 UNK         0.0694 
    137 H137      -49.8786  -22.0567    9.6556 H         1 UNK         0.2989 
    138 H138      -47.8659  -21.3836    8.4667 H         1 UNK         0.1055 
    139 H139      -46.8684  -21.8173   11.3551 H         1 UNK         0.0806 
    140 H140      -48.3187  -20.9254   10.9193 H         1 UNK         0.0806 
    141 H141      -46.7505  -20.3051   10.4609 H         1 UNK         0.0806 
    142 H142      -45.8258  -23.3567    8.8575 H         1 UNK         0.3061 
    143 H143      -43.1140  -21.1628    7.8697 H         1 UNK         0.0734 
    144 H144      -43.6773  -23.6418    9.5824 H         1 UNK         0.0832 
    145 H145      -42.0973  -22.9955    9.1562 H         1 UNK         0.0832 
    146 H146      -43.1827  -22.0675   10.1768 H         1 UNK         0.0832 
    147 H147      -43.0979  -22.4577    6.1063 H         1 UNK         0.3156 
    148 H148      -44.0996  -24.0481    4.5179 H         1 UNK         0.0589 
    149 H149      -42.0070  -25.7673    5.9978 H         1 UNK         0.0808 
    150 H150      -42.0948  -25.5722    4.2487 H         1 UNK         0.0808 
    151 H151      -41.6975  -24.1996    5.2637 H         1 UNK         0.0808 
    152 H152      -44.9807  -26.2833    6.0833 H         1 UNK         0.3098 
    153 H153      -46.6531  -27.7519    3.4580 H         1 UNK         0.0720 
    154 H154      -45.6537  -29.9838    3.9240 H         1 UNK         0.0791 
    155 H155      -44.2254  -29.2218    4.6262 H         1 UNK         0.0791 
    156 H156      -44.5788  -29.0322    2.9142 H         1 UNK         0.0791 
    157 H157      -46.0613  -28.6338    6.1645 H         1 UNK         0.3028 
@<TRIPOS>BOND
     1    1    2 1    
     2    1   82 1    
     3    1   83 1    
     4    1   84 1    
     5    2    3 2    
     6    2    4 am   BACKBONE|DICT|INTERRES
     7    4    5 1    
     8    4   85 1    
     9    5    6 1    
    10    5   80 1    
    11    5   86 1    
    12    6    7 1    
    13    6   87 1    
    14    6   88 1    
    15    7    8 1    
    16    8    9 1    
    17    8   89 1    
    18    8   90 1    
    19    9   10 ar   
    20    9   14 ar   
    21   10   11 ar   
    22   10   91 1    
    23   11   12 ar   
    24   11   58 1    
    25   12   13 ar   
    26   12   92 1    
    27   13   14 ar   
    28   13   15 1    
    29   14   93 1    
    30   15   16 1    
    31   15   94 1    
    32   15   95 1    
    33   16   17 1    
    34   17   18 1    
    35   17   96 1    
    36   17   97 1    
    37   18   19 1    
    38   18   22 1    
    39   18   98 1    
    40   19   20 am   BACKBONE|DICT|INTERRES
    41   19   21 2    
    42   20   99 1    
    43   20  100 1    
    44   22   23 am   BACKBONE|DICT|INTERRES
    45   22  101 1    
    46   23   24 2    
    47   23   25 1    
    48   25   26 1    
    49   25   27 1    
    50   25  102 1    
    51   26  103 1    
    52   26  104 1    
    53   26  105 1    
    54   27   28 am   BACKBONE|DICT|INTERRES
    55   27  106 1    
    56   28   29 2    
    57   28   30 1    
    58   30   31 1    
    59   30   32 1    
    60   30  107 1    
    61   31  108 1    
    62   31  109 1    
    63   31  110 1    
    64   32   33 am   BACKBONE|DICT|INTERRES
    65   32  111 1    
    66   33   34 2    
    67   33   35 1    
    68   35   36 1    
    69   35   37 1    
    70   35  112 1    
    71   36  113 1    
    72   36  114 1    
    73   36  115 1    
    74   37   38 am   BACKBONE|DICT|INTERRES
    75   37  116 1    
    76   38   39 2    
    77   38   40 1    
    78   40   41 1    
    79   40   42 1    
    80   40  117 1    
    81   41  118 1    
    82   41  119 1    
    83   41  120 1    
    84   42   43 am   BACKBONE|DICT|INTERRES
    85   42  121 1    
    86   43   44 2    
    87   43   45 1    
    88   45   46 1    
    89   45   47 1    
    90   45  122 1    
    91   46  123 1    
    92   46  124 1    
    93   46  125 1    
    94   47   48 am   BACKBONE|DICT|INTERRES
    95   47  126 1    
    96   48   49 2    
    97   48   50 1    
    98   50   51 1    
    99   50   52 1    
   100   50  127 1    
   101   51  128 1    
   102   51  129 1    
   103   51  130 1    
   104   52   53 am   BACKBONE|DICT|INTERRES
   105   52  131 1    
   106   53   54 2    
   107   53   55 1    
   108   55   56 1    
   109   55   59 1    
   110   55  132 1    
   111   56   57 1    
   112   56  133 1    
   113   56  134 1    
   114   57   58 1    
   115   58  135 1    
   116   58  136 1    
   117   59   60 am   BACKBONE|DICT|INTERRES
   118   59  137 1    
   119   60   61 2    
   120   60   62 1    
   121   62   63 1    
   122   62   64 1    
   123   62  138 1    
   124   63  139 1    
   125   63  140 1    
   126   63  141 1    
   127   64   65 am   BACKBONE|DICT|INTERRES
   128   64  142 1    
   129   65   66 2    
   130   65   67 1    
   131   67   68 1    
   132   67   69 1    
   133   67  143 1    
   134   68  144 1    
   135   68  145 1    
   136   68  146 1    
   137   69   70 am   BACKBONE|DICT|INTERRES
   138   69  147 1    
   139   70   71 2    
   140   70   72 1    
   141   72   73 1    
   142   72   74 1    
   143   72  148 1    
   144   73  149 1    
   145   73  150 1    
   146   73  151 1    
   147   74   75 am   BACKBONE|DICT|INTERRES
   148   74  152 1    
   149   75   76 2    
   150   75   77 1    
   151   77   78 1    
   152   77   79 1    
   153   77  153 1    
   154   78  154 1    
   155   78  155 1    
   156   78  156 1    
   157   79   80 am   BACKBONE|DICT|INTERRES
   158   79  157 1    
   159   80   81 2    
@<TRIPOS>SUBSTRUCTURE
     1 UNK         1 GROUP             0       ****    0 ROOT    
