@<TRIPOS>MOLECULE
3R207
157   159    1
SMALL
USER_CHARGES


@<TRIPOS>ATOM
      1 CA        -51.0696  -21.6676    8.0193 C.3       0 UNK        -0.1975 
      2 C         -51.0312  -23.1883    7.9885 C.2       0 UNK         0.4852 
      3 O         -50.3892  -23.7985    8.8412 O.2       0 UNK        -0.5216 
      4 N         -51.7196  -23.8031    7.0193 N.am      1 UNK        -0.4461 
      5 CA        -51.7177  -25.2492    6.7894 C.3       1 UNK         0.0864 
      6 C6        -53.0685  -25.7071    6.1793 C.3       14 UNK        -0.0898 
      7 S7        -53.3478  -27.5049    6.3212 S.3       14 UNK        -0.2598 
      8 C8        -54.0037  -27.6326    8.0159 C.3       14 UNK         0.0286 
      9 C9        -53.3537  -28.7795    8.7755 C.ar      14 UNK        -0.0844 
     10 C10       -51.9905  -28.7339    9.0729 C.ar      14 UNK        -0.0881 
     11 C11       -51.3784  -29.7466    9.8215 C.ar      14 UNK        -0.0643 
     12 C12       -52.1574  -30.8293   10.2439 C.ar      14 UNK        -0.0930 
     13 C13       -53.5213  -30.9050    9.9400 C.ar      14 UNK        -0.0827 
     14 C14       -54.1130  -29.8667    9.2103 C.ar      14 UNK        -0.1249 
     15 C15       -54.3369  -32.0876   10.4609 C.3       14 UNK         0.0141 
     16 S16       -55.7076  -32.5918    9.3611 S.3       14 UNK        -0.2313 
     17 C17       -57.0863  -32.7950   10.5412 C.3       14 UNK        -0.0915 
     18 CA        -58.1057  -31.6143   10.5069 C.3       13 UNK         0.0968 
     19 C         -59.3877  -31.9072   11.3473 C.2       13 UNK         0.5732 
     20 N         -60.0159  -30.9140   11.9656 N.am      13 UNK        -0.7310 
     21 O         -59.8459  -33.0458   11.4143 O.2       13 UNK        -0.5035 
     22 N         -57.4910  -30.2949   10.7598 N.am      13 UNK        -0.4233 
     23 C         -56.8749  -29.9185   11.8873 C.2       13 UNK         0.4989 
     24 O         -56.7533  -30.6324   12.8869 O.2       13 UNK        -0.4996 
     25 CA        -56.2995  -28.4980   11.9100 C.3       12 UNK         0.0216 
     26 CB        -57.3779  -27.4676   12.2940 C.3       12 UNK        -0.1964 
     27 N         -55.2093  -28.4806   12.8791 N.am      12 UNK        -0.4276 
     28 C         -54.2175  -27.5887   12.9418 C.2       12 UNK         0.5020 
     29 O         -54.1173  -26.6091   12.1984 O.2       12 UNK        -0.5489 
     30 CA        -53.1322  -27.8733   13.9919 C.3       11 UNK         0.0294 
     31 CB        -51.9904  -28.6986   13.3778 C.3       11 UNK        -0.2019 
     32 N         -52.5798  -26.6390   14.5454 N.am      11 UNK        -0.4493 
     33 C         -53.1741  -25.8835   15.4777 C.2       11 UNK         0.4932 
     34 O         -54.2708  -26.1465   15.9757 O.2       11 UNK        -0.5029 
     35 CA        -52.3812  -24.6464   15.9474 C.3       10 UNK         0.0280 
     36 CB        -52.9847  -23.9658   17.1942 C.3       10 UNK        -0.1976 
     37 N         -50.9591  -24.9530   16.1430 N.am      10 UNK        -0.4242 
     38 C         -50.4181  -25.8376   16.9956 C.2       10 UNK         0.5072 
     39 O         -51.0530  -26.4391   17.8631 O.2       10 UNK        -0.5224 
     40 CA        -48.9154  -26.1408   16.8366 C.3       9 UNK         0.0343 
     41 CB        -48.7260  -27.5049   16.1520 C.3       9 UNK        -0.2003 
     42 N         -48.1826  -25.1236   16.0768 N.am      9 UNK        -0.4272 
     43 C         -47.8594  -23.9102   16.5469 C.2       9 UNK         0.4988 
     44 O         -48.0887  -23.5381   17.6982 O.2       9 UNK        -0.5108 
     45 CA        -47.1905  -22.9370   15.5600 C.3       8 UNK         0.0248 
     46 CB        -45.6837  -23.2209   15.4541 C.3       8 UNK        -0.2001 
     47 N         -47.7936  -22.9679   14.2242 N.am      8 UNK        -0.4140 
     48 C         -49.0626  -22.6316   13.9475 C.2       8 UNK         0.5028 
     49 O         -49.8617  -22.2120   14.7842 O.2       8 UNK        -0.5428 
     50 CA        -49.5386  -22.8478   12.5024 C.3       7 UNK         0.0264 
     51 CB        -49.0832  -21.6948   11.5932 C.3       7 UNK        -0.1988 
     52 N         -49.0865  -24.1273   11.9530 N.am      7 UNK        -0.4454 
     53 C         -49.4606  -25.3296   12.4164 C.2       7 UNK         0.5027 
     54 O         -50.2602  -25.4955   13.3369 O.2       7 UNK        -0.5083 
     55 CA        -48.8074  -26.5575   11.7596 C.3       6 UNK         0.0844 
     56 C56       -49.5561  -26.9021   10.4526 C.3       14 UNK        -0.0967 
     57 S57       -48.8841  -28.3463    9.5620 S.3       14 UNK        -0.2604 
     58 C58       -49.8991  -29.7173   10.2247 C.3       14 UNK         0.0134 
     59 N         -47.3695  -26.3484   11.5771 N.am      6 UNK        -0.4116 
     60 C         -46.4870  -26.2592   12.5847 C.2       5 UNK         0.5034 
     61 O         -46.7884  -26.3865   13.7710 O.2       5 UNK        -0.5045 
     62 CA        -45.0299  -25.9225   12.2202 C.3       5 UNK         0.0224 
     63 CB        -44.2453  -27.2051   11.9029 C.3       5 UNK        -0.1978 
     64 N         -44.9193  -24.9928   11.0945 N.am      5 UNK        -0.4737 
     65 C         -45.4177  -23.7484   11.0761 C.2       4 UNK         0.5027 
     66 O         -45.9317  -23.2083   12.0545 O.2       4 UNK        -0.5211 
     67 CA        -45.3926  -23.0031    9.7280 C.3       4 UNK         0.0297 
     68 CB        -44.1957  -22.0415    9.6716 C.3       4 UNK        -0.1993 
     69 N         -45.3686  -23.8864    8.5528 N.am      4 UNK        -0.4486 
     70 C         -46.3063  -24.7978    8.2592 C.2       3 UNK         0.4961 
     71 O         -47.3018  -25.0065    8.9554 O.2       3 UNK        -0.5105 
     72 CA        -46.0500  -25.6704    7.0285 C.3       3 UNK         0.0299 
     73 CB        -44.9888  -26.7448    7.3388 C.3       3 UNK        -0.1972 
     74 N         -47.3056  -26.3067    6.6445 N.am      3 UNK        -0.4305 
     75 C         -47.5755  -26.8450    5.4505 C.2       2 UNK         0.5006 
     76 O         -46.7747  -26.8688    4.5145 O.2       2 UNK        -0.5106 
     77 CA        -48.9661  -27.4749    5.2561 C.3       2 UNK         0.0296 
     78 CB        -48.9139  -28.9852    5.5410 C.3       2 UNK        -0.2002 
     79 N         -50.0236  -26.8728    6.0721 N.am      2 UNK        -0.4032 
     80 C         -50.5167  -25.6382    5.9007 C.2       1 UNK         0.5000 
     81 O         -50.0916  -24.8410    5.0592 O.2       1 UNK        -0.5238 
     82 H82       -50.0589  -21.2671    7.9449 H         1 UNK         0.0889 
     83 H83       -51.6589  -21.2573    7.1994 H         1 UNK         0.0889 
     84 H84       -51.5051  -21.3234    8.9569 H         1 UNK         0.0889 
     85 H85       -52.1902  -23.2499    6.3173 H         1 UNK         0.3028 
     86 H86       -51.5969  -25.7402    7.7569 H         1 UNK         0.0864 
     87 H87       -53.8988  -25.2005    6.6746 H         1 UNK         0.0720 
     88 H88       -53.1384  -25.4235    5.1272 H         1 UNK         0.0720 
     89 H89       -55.0865  -27.7567    7.9668 H         1 UNK         0.0814 
     90 H90       -53.8276  -26.7087    8.5690 H         1 UNK         0.0814 
     91 H91       -51.4217  -27.8895    8.7225 H         1 UNK         0.1469 
     92 H92       -51.6974  -31.6158   10.8270 H         1 UNK         0.1381 
     93 H93       -55.1692  -29.8962    8.9856 H         1 UNK         0.1206 
     94 H94       -54.7126  -31.8251   11.4490 H         1 UNK         0.0813 
     95 H95       -53.6913  -32.9553   10.6045 H         1 UNK         0.0813 
     96 H96       -57.5844  -33.7270   10.2690 H         1 UNK         0.0638 
     97 H97       -56.7027  -32.9543   11.5496 H         1 UNK         0.0638 
     98 H98       -58.4764  -31.5548    9.4832 H         1 UNK         0.0568 
     99 H99       -59.6642  -29.9723   11.9123 H         1 UNK         0.3450 
    100 H100      -60.8496  -31.1136   12.4953 H         1 UNK         0.3450 
    101 H101      -57.5705  -29.6323   10.0024 H         1 UNK         0.2987 
    102 H102      -55.8979  -28.2621   10.9224 H         1 UNK         0.0766 
    103 H103      -58.2025  -27.4756   11.5803 H         1 UNK         0.0798 
    104 H104      -56.9741  -26.4551   12.3060 H         1 UNK         0.0798 
    105 H105      -57.7951  -27.6716   13.2811 H         1 UNK         0.0798 
    106 H106      -55.2117  -29.2844   13.4970 H         1 UNK         0.3198 
    107 H107      -53.5722  -28.4485   14.8098 H         1 UNK         0.0843 
    108 H108      -51.2175  -28.9213   14.1135 H         1 UNK         0.0831 
    109 H109      -51.5222  -28.1728   12.5465 H         1 UNK         0.0831 
    110 H110      -52.3586  -29.6508   12.9940 H         1 UNK         0.0831 
    111 H111      -51.7130  -26.2977   14.1336 H         1 UNK         0.3133 
    112 H112      -52.4230  -23.9281   15.1272 H         1 UNK         0.0566 
    113 H113      -54.0023  -23.6265   16.9977 H         1 UNK         0.0814 
    114 H114      -53.0285  -24.6433   18.0473 H         1 UNK         0.0814 
    115 H115      -52.4027  -23.0923   17.4879 H         1 UNK         0.0814 
    116 H116      -50.3410  -24.5489   15.4507 H         1 UNK         0.3091 
    117 H117      -48.4848  -26.1986   17.8385 H         1 UNK         0.0702 
    118 H118      -49.1256  -27.5034   15.1369 H         1 UNK         0.0785 
    119 H119      -49.2363  -28.2960   16.7030 H         1 UNK         0.0785 
    120 H120      -47.6720  -27.7775   16.0958 H         1 UNK         0.0785 
    121 H121      -47.8908  -25.3822   15.1391 H         1 UNK         0.2998 
    122 H122      -47.3190  -21.9265   15.9533 H         1 UNK         0.0697 
    123 H123      -45.1887  -22.5002   14.8028 H         1 UNK         0.0825 
    124 H124      -45.2049  -23.1578   16.4322 H         1 UNK         0.0825 
    125 H125      -45.4879  -24.2178   15.0586 H         1 UNK         0.0825 
    126 H126      -47.1855  -23.2358   13.4526 H         1 UNK         0.3029 
    127 H127      -50.6308  -22.8623   12.5107 H         1 UNK         0.0897 
    128 H128      -49.4440  -21.8276   10.5739 H         1 UNK         0.0792 
    129 H129      -49.4718  -20.7412   11.9528 H         1 UNK         0.0792 
    130 H130      -47.9974  -21.6085   11.5541 H         1 UNK         0.0792 
    131 H131      -48.4462  -24.0903   11.1709 H         1 UNK         0.3086 
    132 H132      -48.9305  -27.3991   12.4449 H         1 UNK         0.0583 
    133 H133      -50.6114  -27.0628   10.6737 H         1 UNK         0.1020 
    134 H134      -49.5296  -26.0581    9.7629 H         1 UNK         0.1020 
    135 H135      -49.4379  -30.6512    9.9004 H         1 UNK         0.0694 
    136 H136      -49.8284  -29.7041   11.3132 H         1 UNK         0.0694 
    137 H137      -47.0676  -26.1597   10.6281 H         1 UNK         0.2989 
    138 H138      -44.5754  -25.4460   13.0913 H         1 UNK         0.1055 
    139 H139      -44.2950  -27.9078   12.7362 H         1 UNK         0.0806 
    140 H140      -44.6401  -27.7150   11.0230 H         1 UNK         0.0806 
    141 H141      -43.1911  -26.9923   11.7242 H         1 UNK         0.0806 
    142 H142      -44.5049  -25.3484   10.2458 H         1 UNK         0.3061 
    143 H143      -46.3094  -22.4124    9.6726 H         1 UNK         0.0734 
    144 H144      -44.2174  -21.4308    8.7688 H         1 UNK         0.0832 
    145 H145      -44.2053  -21.3578   10.5219 H         1 UNK         0.0832 
    146 H146      -43.2453  -22.5763    9.6952 H         1 UNK         0.0832 
    147 H147      -44.5765  -23.7905    7.9328 H         1 UNK         0.3156 
    148 H148      -45.7073  -25.0293    6.2137 H         1 UNK         0.0589 
    149 H149      -44.7831  -27.3660    6.4671 H         1 UNK         0.0808 
    150 H150      -44.0419  -26.2944    7.6383 H         1 UNK         0.0808 
    151 H151      -45.3100  -27.4034    8.1472 H         1 UNK         0.0808 
    152 H152      -48.0171  -26.2839    7.3654 H         1 UNK         0.3098 
    153 H153      -49.2395  -27.3381    4.2076 H         1 UNK         0.0720 
    154 H154      -48.1621  -29.4737    4.9194 H         1 UNK         0.0791 
    155 H155      -48.6598  -29.1922    6.5813 H         1 UNK         0.0791 
    156 H156      -49.8698  -29.4640    5.3268 H         1 UNK         0.0791 
    157 H157      -50.4537  -27.4779    6.7553 H         1 UNK         0.3028 
@<TRIPOS>BOND
     1    1    2 1    
     2    1   82 1    
     3    1   83 1    
     4    1   84 1    
     5    2    3 2    
     6    2    4 am   BACKBONE|DICT|INTERRES
     7    4    5 1    
     8    4   85 1    
     9    5    6 1    
    10    5   80 1    
    11    5   86 1    
    12    6    7 1    
    13    6   87 1    
    14    6   88 1    
    15    7    8 1    
    16    8    9 1    
    17    8   89 1    
    18    8   90 1    
    19    9   10 ar   
    20    9   14 ar   
    21   10   11 ar   
    22   10   91 1    
    23   11   12 ar   
    24   11   58 1    
    25   12   13 ar   
    26   12   92 1    
    27   13   14 ar   
    28   13   15 1    
    29   14   93 1    
    30   15   16 1    
    31   15   94 1    
    32   15   95 1    
    33   16   17 1    
    34   17   18 1    
    35   17   96 1    
    36   17   97 1    
    37   18   19 1    
    38   18   22 1    
    39   18   98 1    
    40   19   20 am   BACKBONE|DICT|INTERRES
    41   19   21 2    
    42   20   99 1    
    43   20  100 1    
    44   22   23 am   BACKBONE|DICT|INTERRES
    45   22  101 1    
    46   23   24 2    
    47   23   25 1    
    48   25   26 1    
    49   25   27 1    
    50   25  102 1    
    51   26  103 1    
    52   26  104 1    
    53   26  105 1    
    54   27   28 am   BACKBONE|DICT|INTERRES
    55   27  106 1    
    56   28   29 2    
    57   28   30 1    
    58   30   31 1    
    59   30   32 1    
    60   30  107 1    
    61   31  108 1    
    62   31  109 1    
    63   31  110 1    
    64   32   33 am   BACKBONE|DICT|INTERRES
    65   32  111 1    
    66   33   34 2    
    67   33   35 1    
    68   35   36 1    
    69   35   37 1    
    70   35  112 1    
    71   36  113 1    
    72   36  114 1    
    73   36  115 1    
    74   37   38 am   BACKBONE|DICT|INTERRES
    75   37  116 1    
    76   38   39 2    
    77   38   40 1    
    78   40   41 1    
    79   40   42 1    
    80   40  117 1    
    81   41  118 1    
    82   41  119 1    
    83   41  120 1    
    84   42   43 am   BACKBONE|DICT|INTERRES
    85   42  121 1    
    86   43   44 2    
    87   43   45 1    
    88   45   46 1    
    89   45   47 1    
    90   45  122 1    
    91   46  123 1    
    92   46  124 1    
    93   46  125 1    
    94   47   48 am   BACKBONE|DICT|INTERRES
    95   47  126 1    
    96   48   49 2    
    97   48   50 1    
    98   50   51 1    
    99   50   52 1    
   100   50  127 1    
   101   51  128 1    
   102   51  129 1    
   103   51  130 1    
   104   52   53 am   BACKBONE|DICT|INTERRES
   105   52  131 1    
   106   53   54 2    
   107   53   55 1    
   108   55   56 1    
   109   55   59 1    
   110   55  132 1    
   111   56   57 1    
   112   56  133 1    
   113   56  134 1    
   114   57   58 1    
   115   58  135 1    
   116   58  136 1    
   117   59   60 am   BACKBONE|DICT|INTERRES
   118   59  137 1    
   119   60   61 2    
   120   60   62 1    
   121   62   63 1    
   122   62   64 1    
   123   62  138 1    
   124   63  139 1    
   125   63  140 1    
   126   63  141 1    
   127   64   65 am   BACKBONE|DICT|INTERRES
   128   64  142 1    
   129   65   66 2    
   130   65   67 1    
   131   67   68 1    
   132   67   69 1    
   133   67  143 1    
   134   68  144 1    
   135   68  145 1    
   136   68  146 1    
   137   69   70 am   BACKBONE|DICT|INTERRES
   138   69  147 1    
   139   70   71 2    
   140   70   72 1    
   141   72   73 1    
   142   72   74 1    
   143   72  148 1    
   144   73  149 1    
   145   73  150 1    
   146   73  151 1    
   147   74   75 am   BACKBONE|DICT|INTERRES
   148   74  152 1    
   149   75   76 2    
   150   75   77 1    
   151   77   78 1    
   152   77   79 1    
   153   77  153 1    
   154   78  154 1    
   155   78  155 1    
   156   78  156 1    
   157   79   80 am   BACKBONE|DICT|INTERRES
   158   79  157 1    
   159   80   81 2    
@<TRIPOS>SUBSTRUCTURE
     1 UNK         1 GROUP             0       ****    0 ROOT    
