@<TRIPOS>MOLECULE
3R207
157   159    1
SMALL
USER_CHARGES


@<TRIPOS>ATOM
      1 CA        -47.7298  -33.2670   10.5292 C.3       0 UNK        -0.1975 
      2 C         -48.3949  -31.9228   10.2774 C.2       0 UNK         0.4852 
      3 O         -48.0516  -30.9420   10.9393 O.2       0 UNK        -0.5216 
      4 N         -49.3406  -31.8719    9.3268 N.am      1 UNK        -0.4461 
      5 CA        -50.1295  -30.7047    8.9041 C.3       1 UNK         0.0864 
      6 C6        -50.9309  -30.0641   10.0675 C.3       14 UNK        -0.0898 
      7 S7        -52.1056  -28.7620    9.5649 S.3       14 UNK        -0.2598 
      8 C8        -51.3566  -27.3381   10.4070 C.3       14 UNK         0.0286 
      9 C9        -52.3097  -26.1621   10.4786 C.ar      14 UNK        -0.0844 
     10 C10       -52.3129  -25.1998    9.4689 C.ar      14 UNK        -0.0881 
     11 C11       -53.1244  -24.0678    9.5748 C.ar      14 UNK        -0.0643 
     12 C12       -53.9912  -23.9409   10.6654 C.ar      14 UNK        -0.0930 
     13 C13       -54.0240  -24.9174   11.6662 C.ar      14 UNK        -0.0827 
     14 C14       -53.1601  -26.0149   11.5771 C.ar      14 UNK        -0.1249 
     15 C15       -54.9560  -24.7483   12.8613 C.3       14 UNK         0.0141 
     16 S16       -55.8298  -26.2803   13.3221 S.3       14 UNK        -0.2313 
     17 C17       -57.1665  -26.3815   12.0751 C.3       14 UNK        -0.0915 
     18 CA        -56.9486  -27.4158   10.9278 C.3       13 UNK         0.0968 
     19 C         -56.3641  -26.7823    9.6321 C.2       13 UNK         0.5732 
     20 N         -55.2606  -27.2728    9.0838 N.am      13 UNK        -0.7310 
     21 O         -56.9497  -25.8469    9.0913 O.2       13 UNK        -0.5035 
     22 N         -56.2561  -28.6226   11.4013 N.am      13 UNK        -0.4233 
     23 C         -56.3952  -29.8638   10.9209 C.2       13 UNK         0.4989 
     24 O         -57.1587  -30.1574   10.0001 O.2       13 UNK        -0.4996 
     25 CA        -55.5475  -30.9728   11.5780 C.3       12 UNK         0.0216 
     26 CB        -54.6085  -31.6314   10.5542 C.3       12 UNK        -0.1964 
     27 N         -54.7559  -30.4813   12.7120 N.am      12 UNK        -0.4276 
     28 C         -55.1910  -30.3932   13.9744 C.2       12 UNK         0.5020 
     29 O         -56.2886  -30.8175   14.3408 O.2       12 UNK        -0.5489 
     30 CA        -54.2550  -29.6977   14.9877 C.3       11 UNK         0.0294 
     31 CB        -54.7944  -29.7599   16.4294 C.3       11 UNK        -0.2019 
     32 N         -52.8772  -30.2035   14.9773 N.am      11 UNK        -0.4493 
     33 C         -51.9590  -29.9402   14.0397 C.2       11 UNK         0.4932 
     34 O         -52.2099  -29.3366   12.9967 O.2       11 UNK        -0.5029 
     35 CA        -50.5377  -30.4725   14.2990 C.3       10 UNK         0.0280 
     36 CB        -50.3518  -31.8418   13.6257 C.3       10 UNK        -0.1976 
     37 N         -49.4768  -29.5635   13.8451 N.am      10 UNK        -0.4242 
     38 C         -49.3275  -28.2863   14.2311 C.2       10 UNK         0.5072 
     39 O         -50.1049  -27.7088   14.9962 O.2       10 UNK        -0.5224 
     40 CA        -48.0856  -27.5489   13.6840 C.3       9 UNK         0.0343 
     41 CB        -48.0838  -27.4848   12.1486 C.3       9 UNK        -0.2003 
     42 N         -47.9875  -26.1762   14.1786 N.am      9 UNK        -0.4272 
     43 C         -47.6749  -25.7968   15.4248 C.2       9 UNK         0.4988 
     44 O         -47.2647  -26.5627   16.2983 O.2       9 UNK        -0.5108 
     45 CA        -47.8817  -24.3084   15.7546 C.3       8 UNK         0.0248 
     46 CB        -46.6578  -23.4720   15.3500 C.3       8 UNK        -0.2001 
     47 N         -49.0780  -23.7880   15.0855 N.am      8 UNK        -0.4140 
     48 C         -50.3153  -23.8425   15.5972 C.2       8 UNK         0.5028 
     49 O         -50.5502  -24.2016   16.7523 O.2       8 UNK        -0.5428 
     50 CA        -51.5103  -23.4720   14.6923 C.3       7 UNK         0.0264 
     51 CB        -52.2468  -22.2179   15.2059 C.3       7 UNK        -0.1988 
     52 N         -51.2170  -23.3694   13.2548 N.am      7 UNK        -0.4454 
     53 C         -50.4908  -22.4450   12.6099 C.2       7 UNK         0.5027 
     54 O         -49.9460  -21.4802   13.1491 O.2       7 UNK        -0.5083 
     55 CA        -50.3170  -22.6725   11.0950 C.3       6 UNK         0.0844 
     56 C56       -51.1866  -21.6713   10.2919 C.3       14 UNK        -0.0967 
     57 S57       -51.3713  -22.1690    8.5460 S.3       14 UNK        -0.2604 
     58 C58       -53.0196  -22.9581    8.5381 C.3       14 UNK         0.0134 
     59 N         -48.9066  -22.6620   10.6822 N.am      6 UNK        -0.4116 
     60 C         -47.9323  -23.4026   11.2329 C.2       5 UNK         0.5034 
     61 O         -48.1178  -24.1894   12.1640 O.2       5 UNK        -0.5045 
     62 CA        -46.5231  -23.2347   10.6448 C.3       5 UNK         0.0224 
     63 CB        -45.4906  -24.1989   11.2620 C.3       5 UNK        -0.1978 
     64 N         -46.5502  -23.4497    9.1999 N.am      5 UNK        -0.4737 
     65 C         -45.9407  -22.6725    8.2936 C.2       4 UNK         0.5027 
     66 O         -45.3540  -21.6287    8.5807 O.2       4 UNK        -0.5211 
     67 CA        -45.9528  -23.1332    6.8215 C.3       4 UNK         0.0297 
     68 CB        -44.5600  -23.6381    6.4088 C.3       4 UNK        -0.1993 
     69 N         -46.9330  -24.1865    6.5554 N.am      4 UNK        -0.4486 
     70 C         -48.2549  -23.9921    6.4713 C.2       3 UNK         0.4961 
     71 O         -48.7720  -22.8762    6.4574 O.2       3 UNK        -0.5105 
     72 CA        -49.1546  -25.2428    6.4068 C.3       3 UNK         0.0299 
     73 CB        -49.7980  -25.3775    5.0173 C.3       3 UNK        -0.1972 
     74 N         -48.4842  -26.5050    6.7485 N.am      3 UNK        -0.4305 
     75 C         -47.9724  -26.8204    7.9463 C.2       2 UNK         0.5006 
     76 O         -47.9896  -26.0634    8.9179 O.2       2 UNK        -0.5106 
     77 CA        -47.3057  -28.2023    8.0614 C.3       2 UNK         0.0296 
     78 CB        -45.9916  -28.1383    8.8589 C.3       2 UNK        -0.2002 
     79 N         -48.2041  -29.1792    8.6756 N.am      2 UNK        -0.4032 
     80 C         -49.2946  -29.6912    8.0904 C.2       1 UNK         0.5000 
     81 O         -49.6311  -29.4248    6.9346 O.2       1 UNK        -0.5238 
     82 H82       -48.1236  -34.0470    9.8781 H         1 UNK         0.0889 
     83 H83       -47.8897  -33.5741   11.5624 H         1 UNK         0.0889 
     84 H84       -46.6564  -33.1908   10.3585 H         1 UNK         0.0889 
     85 H85       -49.5422  -32.7170    8.8098 H         1 UNK         0.3028 
     86 H86       -50.8669  -31.1066    8.2070 H         1 UNK         0.0864 
     87 H87       -51.5130  -30.8370   10.5698 H         1 UNK         0.0720 
     88 H88       -50.2596  -29.6710   10.8304 H         1 UNK         0.0720 
     89 H89       -50.4386  -27.0544    9.8906 H         1 UNK         0.0814 
     90 H90       -51.0699  -27.6192   11.4203 H         1 UNK         0.0814 
     91 H91       -51.6439  -25.3030    8.6274 H         1 UNK         0.1469 
     92 H92       -54.6274  -23.0701   10.7446 H         1 UNK         0.1381 
     93 H93       -53.1511  -26.7627   12.3589 H         1 UNK         0.1206 
     94 H94       -55.6889  -23.9607   12.6798 H         1 UNK         0.0813 
     95 H95       -54.3643  -24.4205   13.7156 H         1 UNK         0.0813 
     96 H96       -58.0629  -26.6691   12.6262 H         1 UNK         0.0638 
     97 H97       -57.3867  -25.3849   11.6885 H         1 UNK         0.0638 
     98 H98       -57.9471  -27.7350   10.6232 H         1 UNK         0.0568 
     99 H99       -54.8970  -26.8414    8.2508 H         1 UNK         0.3450 
    100 H100      -54.7406  -28.0066    9.5366 H         1 UNK         0.3450 
    101 H101      -55.5999  -28.4658   12.1511 H         1 UNK         0.2987 
    102 H102      -56.2409  -31.7379   11.9334 H         1 UNK         0.0766 
    103 H103      -53.9419  -30.9049   10.0936 H         1 UNK         0.0798 
    104 H104      -53.9961  -32.4069   11.0147 H         1 UNK         0.0798 
    105 H105      -55.1766  -32.1021    9.7508 H         1 UNK         0.0798 
    106 H106      -53.8316  -30.0999   12.5129 H         1 UNK         0.3198 
    107 H107      -54.2232  -28.6440   14.7009 H         1 UNK         0.0843 
    108 H108      -55.7910  -29.3206   16.4939 H         1 UNK         0.0831 
    109 H109      -54.1569  -29.2044   17.1174 H         1 UNK         0.0831 
    110 H110      -54.8664  -30.7869   16.7895 H         1 UNK         0.0831 
    111 H111      -52.6003  -30.7527   15.7785 H         1 UNK         0.3133 
    112 H112      -50.4088  -30.5977   15.3759 H         1 UNK         0.0566 
    113 H113      -49.3697  -32.2632   13.8410 H         1 UNK         0.0814 
    114 H114      -51.0951  -32.5575   13.9795 H         1 UNK         0.0814 
    115 H115      -50.4572  -31.7746   12.5431 H         1 UNK         0.0814 
    116 H116      -48.8174  -29.9464   13.1809 H         1 UNK         0.3091 
    117 H117      -47.2023  -28.0992   14.0140 H         1 UNK         0.0702 
    118 H118      -47.1582  -27.0410   11.7864 H         1 UNK         0.0785 
    119 H119      -48.8993  -26.8692   11.7721 H         1 UNK         0.0785 
    120 H120      -48.1691  -28.4690   11.6928 H         1 UNK         0.0785 
    121 H121      -48.2406  -25.4533   13.5101 H         1 UNK         0.2998 
    122 H122      -48.0001  -24.2215   16.8368 H         1 UNK         0.0697 
    123 H123      -46.5093  -23.4676   14.2715 H         1 UNK         0.0825 
    124 H124      -45.7477  -23.8639   15.8060 H         1 UNK         0.0825 
    125 H125      -46.7641  -22.4369   15.6747 H         1 UNK         0.0825 
    126 H126      -48.9665  -23.4832   14.1267 H         1 UNK         0.3029 
    127 H127      -52.2014  -24.3115   14.7814 H         1 UNK         0.0897 
    128 H128      -53.1255  -21.9969   14.6000 H         1 UNK         0.0792 
    129 H129      -52.5895  -22.3613   16.2315 H         1 UNK         0.0792 
    130 H130      -51.6046  -21.3369   15.2029 H         1 UNK         0.0792 
    131 H131      -51.5945  -24.1255   12.6977 H         1 UNK         0.3086 
    132 H132      -50.6656  -23.6821   10.8841 H         1 UNK         0.0583 
    133 H133      -52.1823  -21.5723   10.7292 H         1 UNK         0.1020 
    134 H134      -50.7489  -20.6720   10.3284 H         1 UNK         0.1020 
    135 H135      -53.7802  -22.1942    8.7063 H         1 UNK         0.0694 
    136 H136      -53.2109  -23.3722    7.5473 H         1 UNK         0.0694 
    137 H137      -48.6745  -22.0575    9.9082 H         1 UNK         0.2989 
    138 H138      -46.2160  -22.2125   10.8764 H         1 UNK         0.1055 
    139 H139      -44.4950  -24.0246   10.8540 H         1 UNK         0.0806 
    140 H140      -45.7516  -25.2397   11.0689 H         1 UNK         0.0806 
    141 H141      -45.4206  -24.0723   12.3416 H         1 UNK         0.0806 
    142 H142      -47.0473  -24.2833    8.8962 H         1 UNK         0.3061 
    143 H143      -46.1980  -22.2640    6.2072 H         1 UNK         0.0734 
    144 H144      -43.8052  -22.8644    6.5567 H         1 UNK         0.0832 
    145 H145      -44.2542  -24.5059    6.9948 H         1 UNK         0.0832 
    146 H146      -44.5331  -23.9155    5.3549 H         1 UNK         0.0832 
    147 H147      -46.5910  -25.1357    6.5393 H         1 UNK         0.3156 
    148 H148      -49.9516  -25.0888    7.1349 H         1 UNK         0.0589 
    149 H149      -49.0509  -25.5501    4.2416 H         1 UNK         0.0808 
    150 H150      -50.5118  -26.2011    4.9884 H         1 UNK         0.0808 
    151 H151      -50.3430  -24.4711    4.7493 H         1 UNK         0.0808 
    152 H152      -48.4630  -27.2099    6.0241 H         1 UNK         0.3098 
    153 H153      -47.0584  -28.5522    7.0567 H         1 UNK         0.0720 
    154 H154      -45.4835  -29.1028    8.8614 H         1 UNK         0.0791 
    155 H155      -46.1563  -27.8476    9.8951 H         1 UNK         0.0791 
    156 H156      -45.3052  -27.4109    8.4236 H         1 UNK         0.0791 
    157 H157      -47.9841  -29.4990    9.6141 H         1 UNK         0.3028 
@<TRIPOS>BOND
     1    1    2 1    
     2    1   82 1    
     3    1   83 1    
     4    1   84 1    
     5    2    3 2    
     6    2    4 am   BACKBONE|DICT|INTERRES
     7    4    5 1    
     8    4   85 1    
     9    5    6 1    
    10    5   80 1    
    11    5   86 1    
    12    6    7 1    
    13    6   87 1    
    14    6   88 1    
    15    7    8 1    
    16    8    9 1    
    17    8   89 1    
    18    8   90 1    
    19    9   10 ar   
    20    9   14 ar   
    21   10   11 ar   
    22   10   91 1    
    23   11   12 ar   
    24   11   58 1    
    25   12   13 ar   
    26   12   92 1    
    27   13   14 ar   
    28   13   15 1    
    29   14   93 1    
    30   15   16 1    
    31   15   94 1    
    32   15   95 1    
    33   16   17 1    
    34   17   18 1    
    35   17   96 1    
    36   17   97 1    
    37   18   19 1    
    38   18   22 1    
    39   18   98 1    
    40   19   20 am   BACKBONE|DICT|INTERRES
    41   19   21 2    
    42   20   99 1    
    43   20  100 1    
    44   22   23 am   BACKBONE|DICT|INTERRES
    45   22  101 1    
    46   23   24 2    
    47   23   25 1    
    48   25   26 1    
    49   25   27 1    
    50   25  102 1    
    51   26  103 1    
    52   26  104 1    
    53   26  105 1    
    54   27   28 am   BACKBONE|DICT|INTERRES
    55   27  106 1    
    56   28   29 2    
    57   28   30 1    
    58   30   31 1    
    59   30   32 1    
    60   30  107 1    
    61   31  108 1    
    62   31  109 1    
    63   31  110 1    
    64   32   33 am   BACKBONE|DICT|INTERRES
    65   32  111 1    
    66   33   34 2    
    67   33   35 1    
    68   35   36 1    
    69   35   37 1    
    70   35  112 1    
    71   36  113 1    
    72   36  114 1    
    73   36  115 1    
    74   37   38 am   BACKBONE|DICT|INTERRES
    75   37  116 1    
    76   38   39 2    
    77   38   40 1    
    78   40   41 1    
    79   40   42 1    
    80   40  117 1    
    81   41  118 1    
    82   41  119 1    
    83   41  120 1    
    84   42   43 am   BACKBONE|DICT|INTERRES
    85   42  121 1    
    86   43   44 2    
    87   43   45 1    
    88   45   46 1    
    89   45   47 1    
    90   45  122 1    
    91   46  123 1    
    92   46  124 1    
    93   46  125 1    
    94   47   48 am   BACKBONE|DICT|INTERRES
    95   47  126 1    
    96   48   49 2    
    97   48   50 1    
    98   50   51 1    
    99   50   52 1    
   100   50  127 1    
   101   51  128 1    
   102   51  129 1    
   103   51  130 1    
   104   52   53 am   BACKBONE|DICT|INTERRES
   105   52  131 1    
   106   53   54 2    
   107   53   55 1    
   108   55   56 1    
   109   55   59 1    
   110   55  132 1    
   111   56   57 1    
   112   56  133 1    
   113   56  134 1    
   114   57   58 1    
   115   58  135 1    
   116   58  136 1    
   117   59   60 am   BACKBONE|DICT|INTERRES
   118   59  137 1    
   119   60   61 2    
   120   60   62 1    
   121   62   63 1    
   122   62   64 1    
   123   62  138 1    
   124   63  139 1    
   125   63  140 1    
   126   63  141 1    
   127   64   65 am   BACKBONE|DICT|INTERRES
   128   64  142 1    
   129   65   66 2    
   130   65   67 1    
   131   67   68 1    
   132   67   69 1    
   133   67  143 1    
   134   68  144 1    
   135   68  145 1    
   136   68  146 1    
   137   69   70 am   BACKBONE|DICT|INTERRES
   138   69  147 1    
   139   70   71 2    
   140   70   72 1    
   141   72   73 1    
   142   72   74 1    
   143   72  148 1    
   144   73  149 1    
   145   73  150 1    
   146   73  151 1    
   147   74   75 am   BACKBONE|DICT|INTERRES
   148   74  152 1    
   149   75   76 2    
   150   75   77 1    
   151   77   78 1    
   152   77   79 1    
   153   77  153 1    
   154   78  154 1    
   155   78  155 1    
   156   78  156 1    
   157   79   80 am   BACKBONE|DICT|INTERRES
   158   79  157 1    
   159   80   81 2    
@<TRIPOS>SUBSTRUCTURE
     1 UNK         1 GROUP             0       ****    0 ROOT    
