@<TRIPOS>MOLECULE
3R207
157   159    1
SMALL
USER_CHARGES


@<TRIPOS>ATOM
      1 CA        -49.5853  -28.2032   10.5570 C.3       0 UNK        -0.1975 
      2 C         -48.6279  -28.4327    9.3997 C.2       0 UNK         0.4852 
      3 O         -47.4147  -28.3069    9.5753 O.2       0 UNK        -0.5216 
      4 N         -49.1712  -28.7812    8.2253 N.am      1 UNK        -0.4461 
      5 CA        -48.4351  -29.1547    7.0122 C.3       1 UNK         0.0864 
      6 C6        -49.3841  -29.5219    5.8474 C.3       14 UNK        -0.0898 
      7 S7        -50.2917  -31.0684    6.1812 S.3       14 UNK        -0.2598 
      8 C8        -52.0258  -30.5178    6.1629 C.3       14 UNK         0.0286 
      9 C9        -52.4045  -29.7532    7.4229 C.ar      14 UNK        -0.0844 
     10 C10       -52.6273  -28.3741    7.3757 C.ar      14 UNK        -0.0881 
     11 C11       -53.0306  -27.6809    8.5210 C.ar      14 UNK        -0.0643 
     12 C12       -53.2021  -28.3749    9.7214 C.ar      14 UNK        -0.0930 
     13 C13       -52.9910  -29.7565    9.7797 C.ar      14 UNK        -0.0827 
     14 C14       -52.5814  -30.4369    8.6293 C.ar      14 UNK        -0.1249 
     15 C15       -53.2003  -30.5083   11.0880 C.3       14 UNK         0.0141 
     16 S16       -54.4541  -31.8309   10.9763 S.3       14 UNK        -0.2313 
     17 C17       -55.9836  -30.9781   10.4445 C.3       14 UNK        -0.0915 
     18 CA        -56.3226  -29.6528   11.1813 C.3       13 UNK         0.0968 
     19 C         -57.6336  -29.0163   10.6345 C.2       13 UNK         0.5732 
     20 N         -58.6222  -28.7040   11.4646 N.am      13 UNK        -0.7310 
     21 O         -57.7535  -28.7872    9.4334 O.2       13 UNK        -0.5035 
     22 N         -56.2978  -29.8054   12.6466 N.am      13 UNK        -0.4233 
     23 C         -55.8296  -28.8773   13.4876 C.2       13 UNK         0.4989 
     24 O         -55.3194  -27.8120   13.1272 O.2       13 UNK        -0.4996 
     25 CA        -55.9353  -29.1942   14.9843 C.3       12 UNK         0.0216 
     26 CB        -54.9801  -30.3294   15.4032 C.3       12 UNK        -0.1964 
     27 N         -55.6248  -27.9760   15.7247 N.am      12 UNK        -0.4276 
     28 C         -56.0155  -27.6769   16.9666 C.2       12 UNK         0.5020 
     29 O         -56.6690  -28.4405   17.6800 O.2       12 UNK        -0.5489 
     30 CA        -55.5962  -26.2934   17.4902 C.3       11 UNK         0.0294 
     31 CB        -55.7414  -26.1550   19.0179 C.3       11 UNK        -0.2019 
     32 N         -54.2140  -26.0082   17.1051 N.am      11 UNK        -0.4493 
     33 C         -53.7512  -24.8525   16.6213 C.2       11 UNK         0.4932 
     34 O         -54.4591  -23.8666   16.4148 O.2       11 UNK        -0.5029 
     35 CA        -52.2419  -24.7663   16.3229 C.3       10 UNK         0.0280 
     36 CB        -51.4415  -24.5501   17.6216 C.3       10 UNK        -0.1976 
     37 N         -51.6862  -25.8752   15.5318 N.am      10 UNK        -0.4242 
     38 C         -51.5878  -27.1781   15.8416 C.2       10 UNK         0.5072 
     39 O         -52.0181  -27.6799   16.8810 O.2       10 UNK        -0.5224 
     40 CA        -50.8789  -28.0719   14.8156 C.3       9 UNK         0.0343 
     41 CB        -51.7616  -28.2959   13.5783 C.3       9 UNK        -0.2003 
     42 N         -49.6057  -27.4784   14.4101 N.am      9 UNK        -0.4272 
     43 C         -48.4213  -27.7508   14.9774 C.2       9 UNK         0.4988 
     44 O         -48.2562  -28.6113   15.8427 O.2       9 UNK        -0.5108 
     45 CA        -47.2068  -26.9259   14.5068 C.3       8 UNK         0.0248 
     46 CB        -46.4225  -27.6859   13.4239 C.3       8 UNK        -0.2001 
     47 N         -47.5712  -25.5999   14.0015 N.am      8 UNK        -0.4140 
     48 C         -48.0414  -24.5977   14.7588 C.2       8 UNK         0.5028 
     49 O         -48.1010  -24.6402   15.9871 O.2       8 UNK        -0.5428 
     50 CA        -48.5603  -23.3461   14.0253 C.3       7 UNK         0.0264 
     51 CB        -47.5071  -22.2269   14.0591 C.3       7 UNK        -0.1988 
     52 N         -48.9625  -23.5807   12.6328 N.am      7 UNK        -0.4454 
     53 C         -49.9553  -24.3887   12.2276 C.2       7 UNK         0.5027 
     54 O         -50.6221  -25.0752   13.0040 O.2       7 UNK        -0.5083 
     55 CA        -50.1861  -24.5059   10.7049 C.3       6 UNK         0.0844 
     56 C56       -51.6339  -24.9200   10.3283 C.3       14 UNK        -0.0967 
     57 S57       -51.7982  -25.2029    8.5313 S.3       14 UNK        -0.2604 
     58 C58       -53.3202  -26.1902    8.4431 C.3       14 UNK         0.0134 
     59 N         -49.6881  -23.3443    9.9605 N.am      6 UNK        -0.4116 
     60 C         -50.1784  -22.0956    9.9610 C.2       5 UNK         0.5034 
     61 O         -51.1139  -21.7208   10.6676 O.2       5 UNK        -0.5045 
     62 CA        -49.4863  -21.0866    9.0233 C.3       5 UNK         0.0224 
     63 CB        -48.7173  -20.0334    9.8383 C.3       5 UNK        -0.1978 
     64 N         -48.5544  -21.7385    8.0970 N.am      5 UNK        -0.4737 
     65 C         -48.8983  -22.3891    6.9801 C.2       4 UNK         0.5027 
     66 O         -50.0342  -22.3774    6.5080 O.2       4 UNK        -0.5211 
     67 CA        -47.8040  -23.2328    6.3021 C.3       4 UNK         0.0297 
     68 CB        -46.8478  -22.3499    5.4772 C.3       4 UNK        -0.1993 
     69 N         -47.0659  -24.1285    7.2107 N.am      4 UNK        -0.4486 
     70 C         -46.2167  -23.8162    8.2064 C.2       3 UNK         0.4961 
     71 O         -45.9858  -22.6639    8.5731 O.2       3 UNK        -0.5105 
     72 CA        -45.5099  -24.9746    8.9398 C.3       3 UNK         0.0299 
     73 CB        -46.1874  -25.2493   10.2921 C.3       3 UNK        -0.1972 
     74 N         -45.4525  -26.2151    8.1617 N.am      3 UNK        -0.4305 
     75 C         -44.7700  -26.3566    7.0137 C.2       2 UNK         0.5006 
     76 O         -44.0107  -25.4959    6.5667 O.2       2 UNK        -0.5106 
     77 CA        -44.9743  -27.6494    6.1999 C.3       2 UNK         0.0296 
     78 CB        -43.7122  -28.5264    6.2608 C.3       2 UNK        -0.2002 
     79 N         -46.1340  -28.4615    6.5826 N.am      2 UNK        -0.4032 
     80 C         -47.4197  -28.0783    6.5775 C.2       1 UNK         0.5000 
     81 O         -47.8057  -26.9442    6.2787 O.2       1 UNK        -0.5238 
     82 H82       -49.1408  -27.5498   11.3055 H         1 UNK         0.0889 
     83 H83       -49.8217  -29.1542   11.0326 H         1 UNK         0.0889 
     84 H84       -50.5122  -27.7488   10.2133 H         1 UNK         0.0889 
     85 H85       -50.1769  -28.8623    8.1533 H         1 UNK         0.3028 
     86 H86       -47.8700  -30.0534    7.2694 H         1 UNK         0.0864 
     87 H87       -48.8215  -29.6783    4.9247 H         1 UNK         0.0720 
     88 H88       -50.0792  -28.7054    5.6430 H         1 UNK         0.0720 
     89 H89       -52.6681  -31.3954    6.0767 H         1 UNK         0.0814 
     90 H90       -52.2117  -29.9211    5.2684 H         1 UNK         0.0814 
     91 H91       -52.5050  -27.8381    6.4441 H         1 UNK         0.1469 
     92 H92       -53.5140  -27.8386   10.6076 H         1 UNK         0.1381 
     93 H93       -52.4185  -31.5056    8.6686 H         1 UNK         0.1206 
     94 H94       -52.2519  -30.9536   11.3909 H         1 UNK         0.0813 
     95 H95       -53.4828  -29.8257   11.8875 H         1 UNK         0.0813 
     96 H96       -55.8902  -30.7950    9.3723 H         1 UNK         0.0638 
     97 H97       -56.8054  -31.6874   10.5569 H         1 UNK         0.0638 
     98 H98       -55.5567  -28.9335   10.9018 H         1 UNK         0.0568 
     99 H99       -58.5396  -28.8777   12.4527 H         1 UNK         0.3450 
    100 H100      -59.4618  -28.2875   11.0939 H         1 UNK         0.3450 
    101 H101      -56.6980  -30.6574   13.0114 H         1 UNK         0.2987 
    102 H102      -56.9664  -29.4870   15.1933 H         1 UNK         0.0766 
    103 H103      -53.9348  -30.0532   15.2692 H         1 UNK         0.0798 
    104 H104      -55.1567  -31.2357   14.8228 H         1 UNK         0.0798 
    105 H105      -55.1176  -30.5906   16.4526 H         1 UNK         0.0798 
    106 H106      -55.1467  -27.2746   15.1706 H         1 UNK         0.3198 
    107 H107      -56.2687  -25.5745   17.0174 H         1 UNK         0.0843 
    108 H108      -55.1151  -26.8744   19.5467 H         1 UNK         0.0831 
    109 H109      -56.7724  -26.3235   19.3317 H         1 UNK         0.0831 
    110 H110      -55.4617  -25.1562   19.3534 H         1 UNK         0.0831 
    111 H111      -53.5440  -26.7717   17.2036 H         1 UNK         0.3133 
    112 H112      -52.0985  -23.8784   15.7048 H         1 UNK         0.0566 
    113 H113      -50.3859  -24.3800   17.4124 H         1 UNK         0.0814 
    114 H114      -51.5148  -25.4043   18.2952 H         1 UNK         0.0814 
    115 H115      -51.8078  -23.6776   18.1644 H         1 UNK         0.0814 
    116 H116      -51.3367  -25.5950   14.6172 H         1 UNK         0.3091 
    117 H117      -50.7061  -29.0446   15.2816 H         1 UNK         0.0702 
    118 H118      -51.3118  -29.0272   12.9089 H         1 UNK         0.0785 
    119 H119      -51.9297  -27.3799   13.0124 H         1 UNK         0.0785 
    120 H120      -52.7396  -28.6781   13.8654 H         1 UNK         0.0785 
    121 H121      -49.6640  -26.7111   13.7526 H         1 UNK         0.2998 
    122 H122      -46.5507  -26.7901   15.3694 H         1 UNK         0.0697 
    123 H123      -47.0097  -27.8299   12.5164 H         1 UNK         0.0825 
    124 H124      -46.1278  -28.6746   13.7786 H         1 UNK         0.0825 
    125 H125      -45.5081  -27.1582   13.1527 H         1 UNK         0.0825 
    126 H126      -47.5183  -25.4595   13.0049 H         1 UNK         0.3029 
    127 H127      -49.4439  -23.0032   14.5684 H         1 UNK         0.0897 
    128 H128      -46.6066  -22.5014   13.5080 H         1 UNK         0.0792 
    129 H129      -47.2064  -22.0049   15.0842 H         1 UNK         0.0792 
    130 H130      -47.8955  -21.3021   13.6316 H         1 UNK         0.0792 
    131 H131      -48.4684  -23.0514   11.9299 H         1 UNK         0.3086 
    132 H132      -49.5409  -25.3262   10.3943 H         1 UNK         0.0583 
    133 H133      -52.3495  -24.1549   10.6343 H         1 UNK         0.1020 
    134 H134      -51.9216  -25.8327   10.8524 H         1 UNK         0.1020 
    135 H135      -54.0109  -25.8840    9.2305 H         1 UNK         0.0694 
    136 H136      -53.8226  -25.9702    7.4999 H         1 UNK         0.0694 
    137 H137      -48.9385  -23.5299    9.3118 H         1 UNK         0.2989 
    138 H138      -50.2680  -20.5837    8.4494 H         1 UNK         0.1055 
    139 H139      -47.9198  -20.4826   10.4316 H         1 UNK         0.0806 
    140 H140      -48.2684  -19.2816    9.1889 H         1 UNK         0.0806 
    141 H141      -49.3813  -19.5086   10.5269 H         1 UNK         0.0806 
    142 H142      -47.5809  -21.8162    8.3899 H         1 UNK         0.3061 
    143 H143      -48.3151  -23.8963    5.6019 H         1 UNK         0.0734 
    144 H144      -46.2988  -21.6439    6.1009 H         1 UNK         0.0832 
    145 H145      -46.1197  -22.9545    4.9363 H         1 UNK         0.0832 
    146 H146      -47.3987  -21.7668    4.7380 H         1 UNK         0.0832 
    147 H147      -47.2103  -25.1166    7.0176 H         1 UNK         0.3156 
    148 H148      -44.4838  -24.6555    9.1342 H         1 UNK         0.0589 
    149 H149      -45.6426  -26.0062   10.8564 H         1 UNK         0.0808 
    150 H150      -46.2189  -24.3480   10.9058 H         1 UNK         0.0808 
    151 H151      -47.2097  -25.6018   10.1639 H         1 UNK         0.0808 
    152 H152      -46.0383  -26.9801    8.4790 H         1 UNK         0.3098 
    153 H153      -45.1268  -27.3440    5.1628 H         1 UNK         0.0720 
    154 H154      -42.8302  -27.9678    5.9437 H         1 UNK         0.0791 
    155 H155      -43.7958  -29.3916    5.6027 H         1 UNK         0.0791 
    156 H156      -43.5216  -28.8884    7.2720 H         1 UNK         0.0791 
    157 H157      -45.9248  -29.4037    6.8804 H         1 UNK         0.3028 
@<TRIPOS>BOND
     1    1    2 1    
     2    1   82 1    
     3    1   83 1    
     4    1   84 1    
     5    2    3 2    
     6    2    4 am   BACKBONE|DICT|INTERRES
     7    4    5 1    
     8    4   85 1    
     9    5    6 1    
    10    5   80 1    
    11    5   86 1    
    12    6    7 1    
    13    6   87 1    
    14    6   88 1    
    15    7    8 1    
    16    8    9 1    
    17    8   89 1    
    18    8   90 1    
    19    9   10 ar   
    20    9   14 ar   
    21   10   11 ar   
    22   10   91 1    
    23   11   12 ar   
    24   11   58 1    
    25   12   13 ar   
    26   12   92 1    
    27   13   14 ar   
    28   13   15 1    
    29   14   93 1    
    30   15   16 1    
    31   15   94 1    
    32   15   95 1    
    33   16   17 1    
    34   17   18 1    
    35   17   96 1    
    36   17   97 1    
    37   18   19 1    
    38   18   22 1    
    39   18   98 1    
    40   19   20 am   BACKBONE|DICT|INTERRES
    41   19   21 2    
    42   20   99 1    
    43   20  100 1    
    44   22   23 am   BACKBONE|DICT|INTERRES
    45   22  101 1    
    46   23   24 2    
    47   23   25 1    
    48   25   26 1    
    49   25   27 1    
    50   25  102 1    
    51   26  103 1    
    52   26  104 1    
    53   26  105 1    
    54   27   28 am   BACKBONE|DICT|INTERRES
    55   27  106 1    
    56   28   29 2    
    57   28   30 1    
    58   30   31 1    
    59   30   32 1    
    60   30  107 1    
    61   31  108 1    
    62   31  109 1    
    63   31  110 1    
    64   32   33 am   BACKBONE|DICT|INTERRES
    65   32  111 1    
    66   33   34 2    
    67   33   35 1    
    68   35   36 1    
    69   35   37 1    
    70   35  112 1    
    71   36  113 1    
    72   36  114 1    
    73   36  115 1    
    74   37   38 am   BACKBONE|DICT|INTERRES
    75   37  116 1    
    76   38   39 2    
    77   38   40 1    
    78   40   41 1    
    79   40   42 1    
    80   40  117 1    
    81   41  118 1    
    82   41  119 1    
    83   41  120 1    
    84   42   43 am   BACKBONE|DICT|INTERRES
    85   42  121 1    
    86   43   44 2    
    87   43   45 1    
    88   45   46 1    
    89   45   47 1    
    90   45  122 1    
    91   46  123 1    
    92   46  124 1    
    93   46  125 1    
    94   47   48 am   BACKBONE|DICT|INTERRES
    95   47  126 1    
    96   48   49 2    
    97   48   50 1    
    98   50   51 1    
    99   50   52 1    
   100   50  127 1    
   101   51  128 1    
   102   51  129 1    
   103   51  130 1    
   104   52   53 am   BACKBONE|DICT|INTERRES
   105   52  131 1    
   106   53   54 2    
   107   53   55 1    
   108   55   56 1    
   109   55   59 1    
   110   55  132 1    
   111   56   57 1    
   112   56  133 1    
   113   56  134 1    
   114   57   58 1    
   115   58  135 1    
   116   58  136 1    
   117   59   60 am   BACKBONE|DICT|INTERRES
   118   59  137 1    
   119   60   61 2    
   120   60   62 1    
   121   62   63 1    
   122   62   64 1    
   123   62  138 1    
   124   63  139 1    
   125   63  140 1    
   126   63  141 1    
   127   64   65 am   BACKBONE|DICT|INTERRES
   128   64  142 1    
   129   65   66 2    
   130   65   67 1    
   131   67   68 1    
   132   67   69 1    
   133   67  143 1    
   134   68  144 1    
   135   68  145 1    
   136   68  146 1    
   137   69   70 am   BACKBONE|DICT|INTERRES
   138   69  147 1    
   139   70   71 2    
   140   70   72 1    
   141   72   73 1    
   142   72   74 1    
   143   72  148 1    
   144   73  149 1    
   145   73  150 1    
   146   73  151 1    
   147   74   75 am   BACKBONE|DICT|INTERRES
   148   74  152 1    
   149   75   76 2    
   150   75   77 1    
   151   77   78 1    
   152   77   79 1    
   153   77  153 1    
   154   78  154 1    
   155   78  155 1    
   156   78  156 1    
   157   79   80 am   BACKBONE|DICT|INTERRES
   158   79  157 1    
   159   80   81 2    
@<TRIPOS>SUBSTRUCTURE
     1 UNK         1 GROUP             0       ****    0 ROOT    
