@<TRIPOS>MOLECULE
3R207
157   159    1
SMALL
USER_CHARGES


@<TRIPOS>ATOM
      1 CA        -46.6570  -28.7558   11.0138 C.3       0 UNK        -0.1975 
      2 C         -46.9962  -29.4402    9.6974 C.2       0 UNK         0.4852 
      3 O         -46.2090  -30.2519    9.2101 O.2       0 UNK        -0.5216 
      4 N         -48.1647  -29.1239    9.1228 N.am      1 UNK        -0.4461 
      5 CA        -48.6767  -29.7292    7.8848 C.3       1 UNK         0.0864 
      6 C6        -50.2142  -29.5873    7.7705 C.3       14 UNK        -0.0898 
      7 S7        -51.0841  -30.5927    9.0202 S.3       14 UNK        -0.2598 
      8 C8        -51.8029  -29.3303   10.1187 C.3       14 UNK         0.0286 
      9 C9        -52.8347  -28.4551    9.4182 C.ar      14 UNK        -0.0844 
     10 C10       -52.6543  -27.0701    9.3560 C.ar      14 UNK        -0.0881 
     11 C11       -53.6087  -26.2471    8.7437 C.ar      14 UNK        -0.0643 
     12 C12       -54.7459  -26.8377    8.1836 C.ar      14 UNK        -0.0930 
     13 C13       -54.9349  -28.2217    8.2279 C.ar      14 UNK        -0.0827 
     14 C14       -53.9796  -29.0246    8.8540 C.ar      14 UNK        -0.1249 
     15 C15       -56.1545  -28.8444    7.5658 C.3       14 UNK         0.0141 
     16 S16       -57.6691  -28.5993    8.5430 S.3       14 UNK        -0.2313 
     17 C17       -57.5724  -29.9554    9.7601 C.3       14 UNK        -0.0915 
     18 CA        -57.8289  -29.4517   11.2099 C.3       13 UNK         0.0968 
     19 C         -58.1990  -30.5917   12.2112 C.2       13 UNK         0.5732 
     20 N         -57.9408  -30.4443   13.5058 N.am      13 UNK        -0.7310 
     21 O         -58.7645  -31.6116   11.8226 O.2       13 UNK        -0.5035 
     22 N         -56.7810  -28.5330   11.6866 N.am      13 UNK        -0.4233 
     23 C         -55.5220  -28.8661   12.0035 C.2       13 UNK         0.4989 
     24 O         -55.0484  -29.9963   11.8754 O.2       13 UNK        -0.4996 
     25 CA        -54.6435  -27.7659   12.6309 C.3       12 UNK         0.0216 
     26 CB        -55.1652  -26.3282   12.4129 C.3       12 UNK        -0.1964 
     27 N         -54.4136  -28.0183   14.0585 N.am      12 UNK        -0.4276 
     28 C         -55.3350  -28.2455   15.0100 C.2       12 UNK         0.5020 
     29 O         -56.5520  -28.2376   14.8158 O.2       12 UNK        -0.5489 
     30 CA        -54.8107  -28.5508   16.4234 C.3       11 UNK         0.0294 
     31 CB        -54.7132  -30.0693   16.6402 C.3       11 UNK        -0.2019 
     32 N         -53.5067  -27.9409   16.6896 N.am      11 UNK        -0.4493 
     33 C         -53.3021  -26.6360   16.9021 C.2       11 UNK         0.4932 
     34 O         -54.2071  -25.8035   16.9618 O.2       11 UNK        -0.5029 
     35 CA        -51.8455  -26.1728   17.0585 C.3       10 UNK         0.0280 
     36 CB        -51.3142  -26.4472   18.4784 C.3       10 UNK        -0.1976 
     37 N         -50.9327  -26.6865   16.0293 N.am      10 UNK        -0.4242 
     38 C         -50.4910  -27.9353   15.8162 C.2       10 UNK         0.5072 
     39 O         -50.8814  -28.9224   16.4410 O.2       10 UNK        -0.5224 
     40 CA        -49.4295  -28.1093   14.7135 C.3       9 UNK         0.0343 
     41 CB        -50.0990  -28.3311   13.3472 C.3       9 UNK        -0.2003 
     42 N         -48.5081  -26.9704   14.6351 N.am      9 UNK        -0.4272 
     43 C         -47.6465  -26.6215   15.6046 C.2       9 UNK         0.4988 
     44 O         -47.4366  -27.2948   16.6140 O.2       9 UNK        -0.5108 
     45 CA        -46.9248  -25.2751   15.4396 C.3       8 UNK         0.0248 
     46 CB        -45.6608  -25.4279   14.5769 C.3       8 UNK        -0.2001 
     47 N         -47.8118  -24.2600   14.8643 N.am      8 UNK        -0.4140 
     48 C         -48.7503  -23.5969   15.5579 C.2       8 UNK         0.5028 
     49 O         -48.9111  -23.7129   16.7728 O.2       8 UNK        -0.5428 
     50 CA        -49.6782  -22.6504   14.7727 C.3       7 UNK         0.0264 
     51 CB        -49.1172  -21.2194   14.7816 C.3       7 UNK        -0.1988 
     52 N         -49.9072  -23.0701   13.3877 N.am      7 UNK        -0.4454 
     53 C         -50.6130  -24.1522   13.0248 C.2       7 UNK         0.5027 
     54 O         -51.1878  -24.8891   13.8245 O.2       7 UNK        -0.5083 
     55 CA        -50.6250  -24.5068   11.5223 C.3       6 UNK         0.0844 
     56 C56       -51.8230  -23.8279   10.8097 C.3       14 UNK        -0.0967 
     57 S57       -51.8081  -24.0444    8.9925 S.3       14 UNK        -0.2604 
     58 C58       -53.4707  -24.7249    8.6561 C.3       14 UNK         0.0134 
     59 N         -49.3462  -24.2076   10.8698 N.am      6 UNK        -0.4116 
     60 C         -48.1498  -24.7006   11.2115 C.2       5 UNK         0.5034 
     61 O         -47.9998  -25.5047   12.1322 O.2       5 UNK        -0.5045 
     62 CA        -46.9154  -24.2034   10.4318 C.3       5 UNK         0.0224 
     63 CB        -45.9225  -25.3463   10.1610 C.3       5 UNK        -0.1978 
     64 N         -47.2297  -23.5240    9.1670 N.am      5 UNK        -0.4737 
     65 C         -47.6840  -22.2651    9.0589 C.2       4 UNK         0.5027 
     66 O         -47.9351  -21.5608   10.0372 O.2       4 UNK        -0.5211 
     67 CA        -47.9033  -21.7095    7.6406 C.3       4 UNK         0.0297 
     68 CB        -47.7812  -20.1754    7.5798 C.3       4 UNK        -0.1993 
     69 N         -46.9476  -22.3100    6.7126 N.am      4 UNK        -0.4486 
     70 C         -47.2502  -22.8998    5.5516 C.2       3 UNK         0.4961 
     71 O         -48.3780  -22.9154    5.0561 O.2       3 UNK        -0.5105 
     72 CA        -46.1037  -23.6332    4.8264 C.3       3 UNK         0.0299 
     73 CB        -44.6946  -23.3047    5.3739 C.3       3 UNK        -0.1972 
     74 N         -46.3086  -25.0870    4.8127 N.am      3 UNK        -0.4305 
     75 C         -46.5339  -25.8807    5.8707 C.2       2 UNK         0.5006 
     76 O         -46.6279  -25.4837    7.0359 O.2       2 UNK        -0.5106 
     77 CA        -46.6399  -27.3798    5.5767 C.3       2 UNK         0.0296 
     78 CB        -45.2421  -28.0014    5.3925 C.3       2 UNK        -0.2002 
     79 N         -47.3327  -28.0330    6.6839 N.am      2 UNK        -0.4032 
     80 C         -47.9836  -29.2004    6.6094 C.2       1 UNK         0.5000 
     81 O         -48.0555  -29.8678    5.5750 O.2       1 UNK        -0.5238 
     82 H82       -46.6991  -29.4744   11.8317 H         1 UNK         0.0889 
     83 H83       -47.3457  -27.9433   11.2408 H         1 UNK         0.0889 
     84 H84       -45.6491  -28.3440   10.9756 H         1 UNK         0.0889 
     85 H85       -48.7755  -28.4570    9.5698 H         1 UNK         0.3028 
     86 H86       -48.4477  -30.7970    7.9202 H         1 UNK         0.0864 
     87 H87       -50.5142  -28.5405    7.8407 H         1 UNK         0.0720 
     88 H88       -50.5645  -29.9342    6.7962 H         1 UNK         0.0720 
     89 H89       -50.9978  -28.7278   10.5399 H         1 UNK         0.0814 
     90 H90       -52.2829  -29.8320   10.9602 H         1 UNK         0.0814 
     91 H91       -51.7645  -26.6416    9.7867 H         1 UNK         0.1469 
     92 H92       -55.4896  -26.2173    7.7018 H         1 UNK         0.1381 
     93 H93       -54.1220  -30.0956    8.9022 H         1 UNK         0.1206 
     94 H94       -56.0009  -29.9087    7.3811 H         1 UNK         0.0813 
     95 H95       -56.2971  -28.3881    6.5851 H         1 UNK         0.0813 
     96 H96       -58.3221  -30.6897    9.4614 H         1 UNK         0.0638 
     97 H97       -56.6091  -30.4623    9.6923 H         1 UNK         0.0638 
     98 H98       -58.7367  -28.8485   11.1768 H         1 UNK         0.0568 
     99 H99       -58.1989  -31.1800   14.1430 H         1 UNK         0.3450 
    100 H100      -57.4854  -29.6064   13.8580 H         1 UNK         0.3450 
    101 H101      -57.0821  -27.5882   11.8709 H         1 UNK         0.2987 
    102 H102      -53.6710  -27.8370   12.1429 H         1 UNK         0.0766 
    103 H103      -54.4407  -25.5966   12.7713 H         1 UNK         0.0798 
    104 H104      -56.1025  -26.1421   12.9384 H         1 UNK         0.0798 
    105 H105      -55.3257  -26.1245   11.3530 H         1 UNK         0.0798 
    106 H106      -53.4469  -28.0768   14.3412 H         1 UNK         0.3198 
    107 H107      -55.5326  -28.1476   17.1371 H         1 UNK         0.0843 
    108 H108      -55.6769  -30.5504   16.4658 H         1 UNK         0.0831 
    109 H109      -54.4142  -30.3060   17.6614 H         1 UNK         0.0831 
    110 H110      -53.9920  -30.5296   15.9634 H         1 UNK         0.0831 
    111 H111      -52.6851  -28.5426   16.6695 H         1 UNK         0.3133 
    112 H112      -51.8467  -25.0904   16.9189 H         1 UNK         0.0566 
    113 H113      -50.3085  -26.0454   18.6054 H         1 UNK         0.0814 
    114 H114      -51.9496  -25.9752   19.2287 H         1 UNK         0.0814 
    115 H115      -51.2808  -27.5129   18.7064 H         1 UNK         0.0814 
    116 H116      -50.6523  -25.9869   15.3480 H         1 UNK         0.3091 
    117 H117      -48.8428  -28.9979   14.9556 H         1 UNK         0.0702 
    118 H118      -49.3579  -28.5054   12.5681 H         1 UNK         0.0785 
    119 H119      -50.7067  -27.4771   13.0487 H         1 UNK         0.0785 
    120 H120      -50.7526  -29.2042   13.3718 H         1 UNK         0.0785 
    121 H121      -48.5480  -26.3964   13.7987 H         1 UNK         0.2998 
    122 H122      -46.6121  -24.9392   16.4308 H         1 UNK         0.0697 
    123 H123      -45.8830  -25.8245   13.5867 H         1 UNK         0.0825 
    124 H124      -44.9556  -26.1152   15.0461 H         1 UNK         0.0825 
    125 H125      -45.1472  -24.4748   14.4505 H         1 UNK         0.0825 
    126 H126      -47.7787  -24.1516   13.8603 H         1 UNK         0.3029 
    127 H127      -50.6428  -22.6422   15.2857 H         1 UNK         0.0897 
    128 H128      -49.8051  -20.5202   14.3055 H         1 UNK         0.0792 
    129 H129      -48.9583  -20.8693   15.8027 H         1 UNK         0.0792 
    130 H130      -48.1598  -21.1559   14.2627 H         1 UNK         0.0792 
    131 H131      -49.4687  -22.5167   12.6644 H         1 UNK         0.3086 
    132 H132      -50.7575  -25.5872   11.4619 H         1 UNK         0.0583 
    133 H133      -52.7602  -24.2128   11.2166 H         1 UNK         0.1020 
    134 H134      -51.8301  -22.7537   11.0064 H         1 UNK         0.1020 
    135 H135      -54.1991  -24.2588    9.3210 H         1 UNK         0.0694 
    136 H136      -53.7425  -24.4137    7.6463 H         1 UNK         0.0694 
    137 H137      -49.3846  -23.5542   10.1013 H         1 UNK         0.2989 
    138 H138      -46.4148  -23.4840   11.0835 H         1 UNK         0.1055 
    139 H139      -45.5580  -25.7810   11.0922 H         1 UNK         0.0806 
    140 H140      -45.0506  -24.9944    9.6095 H         1 UNK         0.0806 
    141 H141      -46.3815  -26.1479    9.5830 H         1 UNK         0.0806 
    142 H142      -47.0814  -24.0715    8.3215 H         1 UNK         0.3061 
    143 H143      -48.9230  -21.9842    7.3620 H         1 UNK         0.0734 
    144 H144      -48.5204  -19.6960    8.2229 H         1 UNK         0.0832 
    145 H145      -46.7963  -19.8369    7.9036 H         1 UNK         0.0832 
    146 H146      -47.9474  -19.8053    6.5680 H         1 UNK         0.0832 
    147 H147      -45.9956  -22.3811    7.0453 H         1 UNK         0.3156 
    148 H148      -46.1390  -23.3016    3.7875 H         1 UNK         0.0589 
    149 H149      -44.5507  -23.6616    6.3946 H         1 UNK         0.0808 
    150 H150      -43.9231  -23.7674    4.7583 H         1 UNK         0.0808 
    151 H151      -44.5044  -22.2305    5.3618 H         1 UNK         0.0808 
    152 H152      -46.2817  -25.5161    3.8980 H         1 UNK         0.3098 
    153 H153      -47.2239  -27.5080    4.6627 H         1 UNK         0.0720 
    154 H154      -44.6986  -27.5203    4.5784 H         1 UNK         0.0791 
    155 H155      -45.3064  -29.0628    5.1524 H         1 UNK         0.0791 
    156 H156      -44.6374  -27.8999    6.2948 H         1 UNK         0.0791 
    157 H157      -47.3368  -27.5037    7.5462 H         1 UNK         0.3028 
@<TRIPOS>BOND
     1    1    2 1    
     2    1   82 1    
     3    1   83 1    
     4    1   84 1    
     5    2    3 2    
     6    2    4 am   BACKBONE|DICT|INTERRES
     7    4    5 1    
     8    4   85 1    
     9    5    6 1    
    10    5   80 1    
    11    5   86 1    
    12    6    7 1    
    13    6   87 1    
    14    6   88 1    
    15    7    8 1    
    16    8    9 1    
    17    8   89 1    
    18    8   90 1    
    19    9   10 ar   
    20    9   14 ar   
    21   10   11 ar   
    22   10   91 1    
    23   11   12 ar   
    24   11   58 1    
    25   12   13 ar   
    26   12   92 1    
    27   13   14 ar   
    28   13   15 1    
    29   14   93 1    
    30   15   16 1    
    31   15   94 1    
    32   15   95 1    
    33   16   17 1    
    34   17   18 1    
    35   17   96 1    
    36   17   97 1    
    37   18   19 1    
    38   18   22 1    
    39   18   98 1    
    40   19   20 am   BACKBONE|DICT|INTERRES
    41   19   21 2    
    42   20   99 1    
    43   20  100 1    
    44   22   23 am   BACKBONE|DICT|INTERRES
    45   22  101 1    
    46   23   24 2    
    47   23   25 1    
    48   25   26 1    
    49   25   27 1    
    50   25  102 1    
    51   26  103 1    
    52   26  104 1    
    53   26  105 1    
    54   27   28 am   BACKBONE|DICT|INTERRES
    55   27  106 1    
    56   28   29 2    
    57   28   30 1    
    58   30   31 1    
    59   30   32 1    
    60   30  107 1    
    61   31  108 1    
    62   31  109 1    
    63   31  110 1    
    64   32   33 am   BACKBONE|DICT|INTERRES
    65   32  111 1    
    66   33   34 2    
    67   33   35 1    
    68   35   36 1    
    69   35   37 1    
    70   35  112 1    
    71   36  113 1    
    72   36  114 1    
    73   36  115 1    
    74   37   38 am   BACKBONE|DICT|INTERRES
    75   37  116 1    
    76   38   39 2    
    77   38   40 1    
    78   40   41 1    
    79   40   42 1    
    80   40  117 1    
    81   41  118 1    
    82   41  119 1    
    83   41  120 1    
    84   42   43 am   BACKBONE|DICT|INTERRES
    85   42  121 1    
    86   43   44 2    
    87   43   45 1    
    88   45   46 1    
    89   45   47 1    
    90   45  122 1    
    91   46  123 1    
    92   46  124 1    
    93   46  125 1    
    94   47   48 am   BACKBONE|DICT|INTERRES
    95   47  126 1    
    96   48   49 2    
    97   48   50 1    
    98   50   51 1    
    99   50   52 1    
   100   50  127 1    
   101   51  128 1    
   102   51  129 1    
   103   51  130 1    
   104   52   53 am   BACKBONE|DICT|INTERRES
   105   52  131 1    
   106   53   54 2    
   107   53   55 1    
   108   55   56 1    
   109   55   59 1    
   110   55  132 1    
   111   56   57 1    
   112   56  133 1    
   113   56  134 1    
   114   57   58 1    
   115   58  135 1    
   116   58  136 1    
   117   59   60 am   BACKBONE|DICT|INTERRES
   118   59  137 1    
   119   60   61 2    
   120   60   62 1    
   121   62   63 1    
   122   62   64 1    
   123   62  138 1    
   124   63  139 1    
   125   63  140 1    
   126   63  141 1    
   127   64   65 am   BACKBONE|DICT|INTERRES
   128   64  142 1    
   129   65   66 2    
   130   65   67 1    
   131   67   68 1    
   132   67   69 1    
   133   67  143 1    
   134   68  144 1    
   135   68  145 1    
   136   68  146 1    
   137   69   70 am   BACKBONE|DICT|INTERRES
   138   69  147 1    
   139   70   71 2    
   140   70   72 1    
   141   72   73 1    
   142   72   74 1    
   143   72  148 1    
   144   73  149 1    
   145   73  150 1    
   146   73  151 1    
   147   74   75 am   BACKBONE|DICT|INTERRES
   148   74  152 1    
   149   75   76 2    
   150   75   77 1    
   151   77   78 1    
   152   77   79 1    
   153   77  153 1    
   154   78  154 1    
   155   78  155 1    
   156   78  156 1    
   157   79   80 am   BACKBONE|DICT|INTERRES
   158   79  157 1    
   159   80   81 2    
@<TRIPOS>SUBSTRUCTURE
     1 UNK         1 GROUP             0       ****    0 ROOT    
