@<TRIPOS>MOLECULE
3R207
157   159    1
SMALL
USER_CHARGES


@<TRIPOS>ATOM
      1 CA        -51.4555  -31.0641    9.4380 C.3       0 UNK        -0.1975 
      2 C         -50.6454  -31.1271    8.1516 C.2       0 UNK         0.4852 
      3 O         -49.9939  -32.1369    7.8841 O.2       0 UNK        -0.5216 
      4 N         -50.6824  -30.0524    7.3533 N.am      1 UNK        -0.4461 
      5 CA        -49.9471  -29.9006    6.0895 C.3       1 UNK         0.0864 
      6 C6        -50.5529  -28.7928    5.1872 C.3       14 UNK        -0.0898 
      7 S7        -50.9552  -27.2492    6.0791 S.3       14 UNK        -0.2598 
      8 C8        -52.7672  -27.3915    6.1212 C.3       14 UNK         0.0286 
      9 C9        -53.3818  -26.4035    7.0949 C.ar      14 UNK        -0.0844 
     10 C10       -53.7487  -25.1273    6.6632 C.ar      14 UNK        -0.0881 
     11 C11       -54.3409  -24.2221    7.5481 C.ar      14 UNK        -0.0643 
     12 C12       -54.6080  -24.6241    8.8617 C.ar      14 UNK        -0.0930 
     13 C13       -54.2066  -25.8840    9.3170 C.ar      14 UNK        -0.0827 
     14 C14       -53.5905  -26.7687    8.4273 C.ar      14 UNK        -0.1249 
     15 C15       -54.3830  -26.2558   10.7833 C.3       14 UNK         0.0141 
     16 S16       -55.9629  -27.1029   11.0996 S.3       14 UNK        -0.2313 
     17 C17       -55.5687  -28.8246   10.6364 C.3       14 UNK        -0.0915 
     18 CA        -55.5597  -29.8006   11.8420 C.3       13 UNK         0.0968 
     19 C         -55.3140  -31.2594   11.3525 C.2       13 UNK         0.5732 
     20 N         -54.1628  -31.8697   11.6152 N.am      13 UNK        -0.7310 
     21 O         -56.1909  -31.8487   10.7253 O.2       13 UNK        -0.5035 
     22 N         -54.6386  -29.3616   12.9018 N.am      13 UNK        -0.4233 
     23 C         -54.6163  -29.8569   14.1456 C.2       13 UNK         0.4989 
     24 O         -55.4744  -30.6255   14.5839 O.2       13 UNK        -0.4996 
     25 CA        -53.4425  -29.4321   15.0551 C.3       12 UNK         0.0216 
     26 CB        -53.0243  -30.5590   16.0229 C.3       12 UNK        -0.1964 
     27 N         -52.2585  -28.9141   14.3518 N.am      12 UNK        -0.4276 
     28 C         -51.5229  -29.5277   13.4097 C.2       12 UNK         0.5020 
     29 O         -51.8101  -30.6202   12.9192 O.2       12 UNK        -0.5489 
     30 CA        -50.2647  -28.7945   12.9208 C.3       11 UNK         0.0294 
     31 CB        -50.6188  -27.7848   11.8160 C.3       11 UNK        -0.2019 
     32 N         -49.5877  -28.1011   14.0220 N.am      11 UNK        -0.4493 
     33 C         -48.4504  -28.5158   14.5982 C.2       11 UNK         0.4932 
     34 O         -47.8319  -29.5163   14.2353 O.2       11 UNK        -0.5029 
     35 CA        -47.8862  -27.6826   15.7659 C.3       10 UNK         0.0280 
     36 CB        -46.4024  -27.3377   15.5414 C.3       10 UNK        -0.1976 
     37 N         -48.6330  -26.4399   15.9905 N.am      10 UNK        -0.4242 
     38 C         -49.3420  -26.1547   17.0894 C.2       10 UNK         0.5072 
     39 O         -49.4327  -26.8994   18.0664 O.2       10 UNK        -0.5224 
     40 CA        -50.0898  -24.8072   17.1049 C.3       9 UNK         0.0343 
     41 CB        -49.1612  -23.6918   17.6121 C.3       9 UNK        -0.2003 
     42 N         -50.7034  -24.3754   15.8400 N.am      9 UNK        -0.4272 
     43 C         -51.4680  -25.1038   15.0170 C.2       9 UNK         0.4988 
     44 O         -51.5975  -26.3250   15.1007 O.2       9 UNK        -0.5108 
     45 CA        -52.2224  -24.3740   13.8949 C.3       8 UNK         0.0248 
     46 CB        -53.6214  -23.9438   14.3723 C.3       8 UNK        -0.2001 
     47 N         -51.5218  -23.2612   13.2405 N.am      8 UNK        -0.4140 
     48 C         -51.1545  -22.0660   13.7338 C.2       8 UNK         0.5028 
     49 O         -51.2097  -21.7781   14.9297 O.2       8 UNK        -0.5428 
     50 CA        -50.6541  -21.0014   12.7326 C.3       7 UNK         0.0264 
     51 CB        -49.1758  -20.6458   12.9635 C.3       7 UNK        -0.1988 
     52 N         -50.8737  -21.3917   11.3325 N.am      7 UNK        -0.4454 
     53 C         -52.0755  -21.3101   10.7355 C.2       7 UNK         0.5027 
     54 O         -53.0336  -20.7265   11.2454 O.2       7 UNK        -0.5083 
     55 CA        -52.3010  -22.0344    9.3901 C.3       6 UNK         0.0844 
     56 C56       -52.7339  -21.0554    8.2714 C.3       14 UNK        -0.0967 
     57 S57       -53.1520  -21.8630    6.6850 S.3       14 UNK        -0.2604 
     58 C58       -54.6662  -22.8089    7.0792 C.3       14 UNK         0.0134 
     59 N         -51.2198  -22.9385    8.9824 N.am      6 UNK        -0.4116 
     60 C         -50.9130  -24.0914    9.5930 C.2       5 UNK         0.5034 
     61 O         -51.4788  -24.4906   10.6121 O.2       5 UNK        -0.5045 
     62 CA        -49.7210  -24.9039    9.0439 C.3       5 UNK         0.0224 
     63 CB        -49.1261  -24.3553    7.7283 C.3       5 UNK        -0.1978 
     64 N         -48.6664  -25.0460   10.0581 N.am      5 UNK        -0.4737 
     65 C         -48.1282  -24.0527   10.7850 C.2       4 UNK         0.5027 
     66 O         -48.3799  -22.8598   10.6092 O.2       4 UNK        -0.5211 
     67 CA        -47.1894  -24.4460   11.9365 C.3       4 UNK         0.0297 
     68 CB        -47.9827  -24.5511   13.2490 C.3       4 UNK        -0.1993 
     69 N         -46.4791  -25.7046   11.7149 N.am      4 UNK        -0.4486 
     70 C         -45.4979  -25.8867   10.8238 C.2       3 UNK         0.4961 
     71 O         -45.0710  -25.0057   10.0765 O.2       3 UNK        -0.5105 
     72 CA        -44.8755  -27.2923   10.7558 C.3       3 UNK         0.0299 
     73 CB        -45.1445  -28.1677   12.0022 C.3       3 UNK        -0.1972 
     74 N         -45.2691  -28.0045    9.5388 N.am      3 UNK        -0.4305 
     75 C         -46.5115  -28.3111    9.1391 C.2       2 UNK         0.5006 
     76 O         -47.5447  -27.9766    9.7298 O.2       2 UNK        -0.5106 
     77 CA        -46.5949  -29.1720    7.8735 C.3       2 UNK         0.0296 
     78 CB        -45.9754  -30.5667    8.1104 C.3       2 UNK        -0.2002 
     79 N         -47.9915  -29.3135    7.4794 N.am      2 UNK        -0.4032 
     80 C         -48.4258  -29.7142    6.2786 C.2       1 UNK         0.5000 
     81 O         -47.6739  -29.9571    5.3316 O.2       1 UNK        -0.5238 
     82 H82       -52.1151  -31.9285    9.5066 H         1 UNK         0.0889 
     83 H83       -52.0716  -30.1672    9.4935 H         1 UNK         0.0889 
     84 H84       -50.7914  -31.0753   10.3020 H         1 UNK         0.0889 
     85 H85       -51.2228  -29.2434    7.6239 H         1 UNK         0.3028 
     86 H86       -50.0532  -30.8424    5.5462 H         1 UNK         0.0864 
     87 H87       -51.4583  -29.1768    4.7149 H         1 UNK         0.0720 
     88 H88       -49.8883  -28.5500    4.3555 H         1 UNK         0.0720 
     89 H89       -53.1644  -27.2294    5.1178 H         1 UNK         0.0814 
     90 H90       -53.0551  -28.4059    6.4020 H         1 UNK         0.0814 
     91 H91       -53.5568  -24.8289    5.6414 H         1 UNK         0.1469 
     92 H92       -55.0810  -23.9367    9.5492 H         1 UNK         0.1381 
     93 H93       -53.2663  -27.7406    8.7681 H         1 UNK         0.1206 
     94 H94       -54.3445  -25.3528   11.3946 H         1 UNK         0.0813 
     95 H95       -53.5503  -26.8742   11.1195 H         1 UNK         0.0813 
     96 H96       -56.3124  -29.1371    9.9010 H         1 UNK         0.0638 
     97 H97       -54.6082  -28.8625   10.1246 H         1 UNK         0.0638 
     98 H98       -56.5632  -29.7941   12.2715 H         1 UNK         0.0568 
     99 H99       -53.4205  -31.3988   12.1248 H         1 UNK         0.3450 
    100 H100      -54.0298  -32.8170   11.3018 H         1 UNK         0.3450 
    101 H101      -53.8980  -28.7397   12.6220 H         1 UNK         0.2987 
    102 H102      -53.8186  -28.6029   15.6562 H         1 UNK         0.0766 
    103 H103      -52.2183  -30.2362   16.6820 H         1 UNK         0.0798 
    104 H104      -53.8559  -30.8641   16.6592 H         1 UNK         0.0798 
    105 H105      -52.6832  -31.4443   15.4848 H         1 UNK         0.0798 
    106 H106      -51.9704  -27.9826   14.6519 H         1 UNK         0.3198 
    107 H107      -49.6044  -29.5451   12.4805 H         1 UNK         0.0843 
    108 H108      -51.2489  -26.9760   12.1837 H         1 UNK         0.0831 
    109 H109      -51.1497  -28.2677   10.9951 H         1 UNK         0.0831 
    110 H110      -49.7189  -27.3387   11.3954 H         1 UNK         0.0831 
    111 H111      -50.0925  -27.3329   14.4518 H         1 UNK         0.3133 
    112 H112      -47.9456  -28.3235   16.6477 H         1 UNK         0.0566 
    113 H113      -46.2547  -26.7312   14.6492 H         1 UNK         0.0814 
    114 H114      -45.8009  -28.2404   15.4250 H         1 UNK         0.0814 
    115 H115      -45.9927  -26.7890   16.3896 H         1 UNK         0.0814 
    116 H116      -48.6148  -25.7531   15.2520 H         1 UNK         0.3091 
    117 H117      -50.9081  -24.9124   17.8198 H         1 UNK         0.0702 
    118 H118      -49.7077  -22.7613   17.7678 H         1 UNK         0.0785 
    119 H119      -48.3521  -23.4905   16.9088 H         1 UNK         0.0785 
    120 H120      -48.7064  -23.9619   18.5664 H         1 UNK         0.0785 
    121 H121      -50.7112  -23.3713   15.6667 H         1 UNK         0.2998 
    122 H122      -52.3734  -25.1115   13.1065 H         1 UNK         0.0697 
    123 H123      -53.5693  -23.1953   15.1638 H         1 UNK         0.0825 
    124 H124      -54.1789  -24.7949   14.7661 H         1 UNK         0.0825 
    125 H125      -54.2069  -23.5252   13.5534 H         1 UNK         0.0825 
    126 H126      -51.3851  -23.4151   12.2453 H         1 UNK         0.3029 
    127 H127      -51.2315  -20.0965   12.9355 H         1 UNK         0.0897 
    128 H128      -48.8606  -19.8333   12.3088 H         1 UNK         0.0792 
    129 H129      -49.0107  -20.3145   13.9896 H         1 UNK         0.0792 
    130 H130      -48.5113  -21.4882   12.7865 H         1 UNK         0.0792 
    131 H131      -50.1093  -21.8786   10.8702 H         1 UNK         0.3086 
    132 H132      -53.1605  -22.6623    9.6003 H         1 UNK         0.0583 
    133 H133      -53.6000  -20.4700    8.5872 H         1 UNK         0.1020 
    134 H134      -51.9396  -20.3317    8.0799 H         1 UNK         0.1020 
    135 H135      -55.2577  -22.2709    7.8215 H         1 UNK         0.0694 
    136 H136      -55.2834  -22.8707    6.1818 H         1 UNK         0.0694 
    137 H137      -50.6919  -22.6655    8.1671 H         1 UNK         0.2989 
    138 H138      -50.1075  -25.9051    8.8454 H         1 UNK         0.1055 
    139 H139      -48.3445  -25.0168    7.3543 H         1 UNK         0.0806 
    140 H140      -48.6849  -23.3658    7.8538 H         1 UNK         0.0806 
    141 H141      -49.8852  -24.2923    6.9470 H         1 UNK         0.0806 
    142 H142      -48.3671  -25.9954   10.2504 H         1 UNK         0.3061 
    143 H143      -46.4504  -23.6487   12.0423 H         1 UNK         0.0734 
    144 H144      -48.5588  -23.6472   13.4390 H         1 UNK         0.0832 
    145 H145      -48.6890  -25.3810   13.2209 H         1 UNK         0.0832 
    146 H146      -47.3139  -24.6806   14.0988 H         1 UNK         0.0832 
    147 H147      -46.7820  -26.5076   12.2449 H         1 UNK         0.3156 
    148 H148      -43.7965  -27.1436   10.6910 H         1 UNK         0.0589 
    149 H149      -46.1999  -28.4146   12.1242 H         1 UNK         0.0808 
    150 H150      -44.5995  -29.1095   11.9388 H         1 UNK         0.0808 
    151 H151      -44.8064  -27.6703   12.9117 H         1 UNK         0.0808 
    152 H152      -44.5018  -28.2973    8.9500 H         1 UNK         0.3098 
    153 H153      -46.0530  -28.6559    7.0782 H         1 UNK         0.0720 
    154 H154      -46.0159  -31.1817    7.2113 H         1 UNK         0.0791 
    155 H155      -44.9257  -30.4983    8.3972 H         1 UNK         0.0791 
    156 H156      -46.4967  -31.1048    8.9033 H         1 UNK         0.0791 
    157 H157      -48.6563  -29.0698    8.2027 H         1 UNK         0.3028 
@<TRIPOS>BOND
     1    1    2 1    
     2    1   82 1    
     3    1   83 1    
     4    1   84 1    
     5    2    3 2    
     6    2    4 am   BACKBONE|DICT|INTERRES
     7    4    5 1    
     8    4   85 1    
     9    5    6 1    
    10    5   80 1    
    11    5   86 1    
    12    6    7 1    
    13    6   87 1    
    14    6   88 1    
    15    7    8 1    
    16    8    9 1    
    17    8   89 1    
    18    8   90 1    
    19    9   10 ar   
    20    9   14 ar   
    21   10   11 ar   
    22   10   91 1    
    23   11   12 ar   
    24   11   58 1    
    25   12   13 ar   
    26   12   92 1    
    27   13   14 ar   
    28   13   15 1    
    29   14   93 1    
    30   15   16 1    
    31   15   94 1    
    32   15   95 1    
    33   16   17 1    
    34   17   18 1    
    35   17   96 1    
    36   17   97 1    
    37   18   19 1    
    38   18   22 1    
    39   18   98 1    
    40   19   20 am   BACKBONE|DICT|INTERRES
    41   19   21 2    
    42   20   99 1    
    43   20  100 1    
    44   22   23 am   BACKBONE|DICT|INTERRES
    45   22  101 1    
    46   23   24 2    
    47   23   25 1    
    48   25   26 1    
    49   25   27 1    
    50   25  102 1    
    51   26  103 1    
    52   26  104 1    
    53   26  105 1    
    54   27   28 am   BACKBONE|DICT|INTERRES
    55   27  106 1    
    56   28   29 2    
    57   28   30 1    
    58   30   31 1    
    59   30   32 1    
    60   30  107 1    
    61   31  108 1    
    62   31  109 1    
    63   31  110 1    
    64   32   33 am   BACKBONE|DICT|INTERRES
    65   32  111 1    
    66   33   34 2    
    67   33   35 1    
    68   35   36 1    
    69   35   37 1    
    70   35  112 1    
    71   36  113 1    
    72   36  114 1    
    73   36  115 1    
    74   37   38 am   BACKBONE|DICT|INTERRES
    75   37  116 1    
    76   38   39 2    
    77   38   40 1    
    78   40   41 1    
    79   40   42 1    
    80   40  117 1    
    81   41  118 1    
    82   41  119 1    
    83   41  120 1    
    84   42   43 am   BACKBONE|DICT|INTERRES
    85   42  121 1    
    86   43   44 2    
    87   43   45 1    
    88   45   46 1    
    89   45   47 1    
    90   45  122 1    
    91   46  123 1    
    92   46  124 1    
    93   46  125 1    
    94   47   48 am   BACKBONE|DICT|INTERRES
    95   47  126 1    
    96   48   49 2    
    97   48   50 1    
    98   50   51 1    
    99   50   52 1    
   100   50  127 1    
   101   51  128 1    
   102   51  129 1    
   103   51  130 1    
   104   52   53 am   BACKBONE|DICT|INTERRES
   105   52  131 1    
   106   53   54 2    
   107   53   55 1    
   108   55   56 1    
   109   55   59 1    
   110   55  132 1    
   111   56   57 1    
   112   56  133 1    
   113   56  134 1    
   114   57   58 1    
   115   58  135 1    
   116   58  136 1    
   117   59   60 am   BACKBONE|DICT|INTERRES
   118   59  137 1    
   119   60   61 2    
   120   60   62 1    
   121   62   63 1    
   122   62   64 1    
   123   62  138 1    
   124   63  139 1    
   125   63  140 1    
   126   63  141 1    
   127   64   65 am   BACKBONE|DICT|INTERRES
   128   64  142 1    
   129   65   66 2    
   130   65   67 1    
   131   67   68 1    
   132   67   69 1    
   133   67  143 1    
   134   68  144 1    
   135   68  145 1    
   136   68  146 1    
   137   69   70 am   BACKBONE|DICT|INTERRES
   138   69  147 1    
   139   70   71 2    
   140   70   72 1    
   141   72   73 1    
   142   72   74 1    
   143   72  148 1    
   144   73  149 1    
   145   73  150 1    
   146   73  151 1    
   147   74   75 am   BACKBONE|DICT|INTERRES
   148   74  152 1    
   149   75   76 2    
   150   75   77 1    
   151   77   78 1    
   152   77   79 1    
   153   77  153 1    
   154   78  154 1    
   155   78  155 1    
   156   78  156 1    
   157   79   80 am   BACKBONE|DICT|INTERRES
   158   79  157 1    
   159   80   81 2    
@<TRIPOS>SUBSTRUCTURE
     1 UNK         1 GROUP             0       ****    0 ROOT    
