@<TRIPOS>MOLECULE
3R207
157   159    1
SMALL
USER_CHARGES


@<TRIPOS>ATOM
      1 CA        -46.7147  -27.4580    4.4841 C.3       0 UNK        -0.1975 
      2 C         -48.0397  -28.2033    4.4208 C.2       0 UNK         0.4852 
      3 O         -48.9073  -27.8444    3.6242 O.2       0 UNK        -0.5216 
      4 N         -48.2010  -29.2375    5.2570 N.am      1 UNK        -0.4461 
      5 CA        -49.4180  -30.0522    5.3858 C.3       1 UNK         0.0864 
      6 C6        -49.1473  -31.3947    6.1143 C.3       14 UNK        -0.0898 
      7 S7        -48.1015  -31.2522    7.6074 S.3       14 UNK        -0.2598 
      8 C8        -49.1478  -31.9997    8.8957 C.3       14 UNK         0.0286 
      9 C9        -50.0733  -30.9840    9.5481 C.ar      14 UNK        -0.0844 
     10 C10       -49.5324  -29.9505   10.3178 C.ar      14 UNK        -0.0881 
     11 C11       -50.3646  -29.0434   10.9779 C.ar      14 UNK        -0.0643 
     12 C12       -51.7508  -29.1739   10.8630 C.ar      14 UNK        -0.0930 
     13 C13       -52.3046  -30.1987   10.0904 C.ar      14 UNK        -0.0827 
     14 C14       -51.4621  -31.0986    9.4289 C.ar      14 UNK        -0.1249 
     15 C15       -53.8144  -30.3434   10.0018 C.3       14 UNK         0.0141 
     16 S16       -54.5219  -29.2311    8.7501 S.3       14 UNK        -0.2313 
     17 C17       -56.2910  -29.3237    9.1882 C.3       14 UNK        -0.0915 
     18 CA        -56.8751  -27.9695    9.6734 C.3       13 UNK         0.0968 
     19 C         -58.3862  -28.1228   10.0195 C.2       13 UNK         0.5732 
     20 N         -58.7981  -28.0304   11.2800 N.am      13 UNK        -0.7310 
     21 O         -59.2008  -28.3267    9.1225 O.2       13 UNK        -0.5035 
     22 N         -56.0727  -27.3672   10.7496 N.am      13 UNK        -0.4233 
     23 C         -56.1546  -26.0877   11.1353 C.2       13 UNK         0.4989 
     24 O         -56.8166  -25.2394   10.5348 O.2       13 UNK        -0.4996 
     25 CA        -55.3698  -25.6812   12.4006 C.3       12 UNK         0.0216 
     26 CB        -56.0878  -24.5721   13.1977 C.3       12 UNK        -0.1964 
     27 N         -55.0120  -26.7913   13.2957 N.am      12 UNK        -0.4276 
     28 C         -55.8391  -27.6609   13.8997 C.2       12 UNK         0.5020 
     29 O         -57.0535  -27.7022   13.6947 O.2       12 UNK        -0.5489 
     30 CA        -55.2143  -28.6834   14.8693 C.3       11 UNK         0.0294 
     31 CB        -55.1562  -30.0743   14.2163 C.3       11 UNK        -0.2019 
     32 N         -53.8713  -28.3186   15.3294 N.am      11 UNK        -0.4493 
     33 C         -53.5939  -27.3312   16.1918 C.2       11 UNK         0.4932 
     34 O         -54.4529  -26.6535   16.7569 O.2       11 UNK        -0.5029 
     35 CA        -52.1059  -27.0204   16.4494 C.3       10 UNK         0.0280 
     36 CB        -51.1388  -28.1432   16.0074 C.3       10 UNK        -0.1976 
     37 N         -51.7163  -25.7443   15.8409 N.am      10 UNK        -0.4242 
     38 C         -51.8217  -25.3953   14.5517 C.2       10 UNK         0.5072 
     39 O         -52.2756  -26.1350   13.6777 O.2       10 UNK        -0.5224 
     40 CA        -51.3295  -23.9971   14.1425 C.3       9 UNK         0.0343 
     41 CB        -52.4737  -22.9681   14.1966 C.3       9 UNK        -0.2003 
     42 N         -50.1298  -23.5160   14.8414 N.am      9 UNK        -0.4272 
     43 C         -49.9692  -23.1690   16.1277 C.2       9 UNK         0.4988 
     44 O         -50.8657  -23.2545   16.9677 O.2       9 UNK        -0.5108 
     45 CA        -48.5689  -22.6895   16.5699 C.3       8 UNK         0.0248 
     46 CB        -48.0949  -23.4549   17.8183 C.3       8 UNK        -0.2001 
     47 N         -47.5533  -22.8355   15.5233 N.am      8 UNK        -0.4140 
     48 C         -47.3447  -22.0020   14.4973 C.2       8 UNK         0.5028 
     49 O         -47.9229  -20.9236   14.3662 O.2       8 UNK        -0.5428 
     50 CA        -46.3883  -22.4868   13.3920 C.3       7 UNK         0.0264 
     51 CB        -44.9184  -22.1768   13.7347 C.3       7 UNK        -0.1988 
     52 N         -46.5865  -23.8984   13.0211 N.am      7 UNK        -0.4454 
     53 C         -46.3165  -25.0088   13.7290 C.2       7 UNK         0.5027 
     54 O         -45.8175  -24.9948   14.8547 O.2       7 UNK        -0.5083 
     55 CA        -46.7319  -26.3589   13.1161 C.3       6 UNK         0.0844 
     56 C56       -48.0994  -26.7987   13.6982 C.3       14 UNK        -0.0967 
     57 S57       -48.6365  -28.4305   13.0861 S.3       14 UNK        -0.2604 
     58 C58       -49.7720  -27.8931   11.7734 C.3       14 UNK         0.0134 
     59 N         -46.7422  -26.2872   11.6523 N.am      6 UNK        -0.4116 
     60 C         -45.7014  -26.5833   10.8627 C.2       5 UNK         0.5034 
     61 O         -44.6123  -26.9809   11.2775 O.2       5 UNK        -0.5045 
     62 CA        -45.9053  -26.4013    9.3481 C.3       5 UNK         0.0224 
     63 CB        -46.3371  -27.7277    8.7004 C.3       5 UNK        -0.1978 
     64 N         -46.8874  -25.3598    9.0306 N.am      5 UNK        -0.4737 
     65 C         -46.6592  -24.0453    9.1701 C.2       4 UNK         0.5027 
     66 O         -45.5754  -23.5793    9.5202 O.2       4 UNK        -0.5211 
     67 CA        -47.8297  -23.0795    8.9036 C.3       4 UNK         0.0297 
     68 CB        -47.7414  -22.5211    7.4744 C.3       4 UNK        -0.1993 
     69 N         -49.1611  -23.6571    9.1099 N.am      4 UNK        -0.4486 
     70 C         -49.6211  -24.1720   10.2579 C.2       3 UNK         0.4961 
     71 O         -48.9631  -24.2324   11.2990 O.2       3 UNK        -0.5105 
     72 CA        -51.0431  -24.7634   10.2254 C.3       3 UNK         0.0299 
     73 CB        -52.0801  -23.6348   10.3552 C.3       3 UNK        -0.1972 
     74 N         -51.3893  -25.5922    9.0589 N.am      3 UNK        -0.4305 
     75 C         -50.6184  -26.4622    8.3874 C.2       2 UNK         0.5006 
     76 O         -49.4101  -26.6213    8.5782 O.2       2 UNK        -0.5106 
     77 CA        -51.3171  -27.2745    7.2915 C.3       2 UNK         0.0296 
     78 CB        -51.8837  -26.3616    6.1842 C.3       2 UNK        -0.2002 
     79 N         -50.3485  -28.2047    6.7238 N.am      2 UNK        -0.4032 
     80 C         -50.6187  -29.2876    5.9874 C.2       1 UNK         0.5000 
     81 O         -51.7613  -29.6752    5.7345 O.2       1 UNK        -0.5238 
     82 H82       -46.2865  -27.3672    3.4862 H         1 UNK         0.0889 
     83 H83       -45.9890  -27.9695    5.1161 H         1 UNK         0.0889 
     84 H84       -46.8676  -26.4553    4.8827 H         1 UNK         0.0889 
     85 H85       -47.4535  -29.4983    5.8857 H         1 UNK         0.3028 
     86 H86       -49.7275  -30.3066    4.3694 H         1 UNK         0.0864 
     87 H87       -50.0823  -31.9058    6.3520 H         1 UNK         0.0720 
     88 H88       -48.6237  -32.0646    5.4306 H         1 UNK         0.0720 
     89 H89       -49.7066  -32.8420    8.4851 H         1 UNK         0.0814 
     90 H90       -48.4984  -32.4194    9.6652 H         1 UNK         0.0814 
     91 H91       -48.4591  -29.8542   10.4082 H         1 UNK         0.1469 
     92 H92       -52.4006  -28.4720   11.3678 H         1 UNK         0.1381 
     93 H93       -51.8884  -31.8969    8.8369 H         1 UNK         0.1206 
     94 H94       -54.2542  -30.1261   10.9753 H         1 UNK         0.0813 
     95 H95       -54.0877  -31.3726    9.7639 H         1 UNK         0.0813 
     96 H96       -56.4418  -30.0956    9.9452 H         1 UNK         0.0638 
     97 H97       -56.8273  -29.6672    8.3016 H         1 UNK         0.0638 
     98 H98       -56.8322  -27.2823    8.8262 H         1 UNK         0.0568 
     99 H99       -58.1415  -27.8707   12.0382 H         1 UNK         0.3450 
    100 H100      -59.7795  -28.1294   11.4831 H         1 UNK         0.3450 
    101 H101      -55.5136  -27.9998   11.2986 H         1 UNK         0.2987 
    102 H102      -54.4233  -25.2727   12.0466 H         1 UNK         0.0766 
    103 H103      -56.2065  -23.6686   12.5984 H         1 UNK         0.0798 
    104 H104      -55.5253  -24.2964   14.0898 H         1 UNK         0.0798 
    105 H105      -57.0826  -24.8865   13.5153 H         1 UNK         0.0798 
    106 H106      -54.0207  -26.8331   13.5276 H         1 UNK         0.3198 
    107 H107      -55.8708  -28.7408   15.7404 H         1 UNK         0.0843 
    108 H108      -56.1380  -30.3779   13.8495 H         1 UNK         0.0831 
    109 H109      -54.8324  -30.8325   14.9297 H         1 UNK         0.0831 
    110 H110      -54.4692  -30.0963   13.3704 H         1 UNK         0.0831 
    111 H111      -53.0952  -28.8072   14.9064 H         1 UNK         0.3133 
    112 H112      -51.9982  -26.8968   17.5280 H         1 UNK         0.0566 
    113 H113      -50.1148  -27.9107   16.3001 H         1 UNK         0.0814 
    114 H114      -51.3947  -29.0934   16.4780 H         1 UNK         0.0814 
    115 H115      -51.1385  -28.2945   14.9274 H         1 UNK         0.0814 
    116 H116      -51.4049  -25.0172   16.4800 H         1 UNK         0.3091 
    117 H117      -51.0217  -24.0843   13.1025 H         1 UNK         0.0702 
    118 H118      -52.8694  -22.8494   15.2057 H         1 UNK         0.0785 
    119 H119      -53.3016  -23.2764   13.5575 H         1 UNK         0.0785 
    120 H120      -52.1436  -21.9897   13.8475 H         1 UNK         0.0785 
    121 H121      -49.3173  -23.4169   14.2504 H         1 UNK         0.2998 
    122 H122      -48.6575  -21.6325   16.8290 H         1 UNK         0.0697 
    123 H123      -48.0147  -24.5261   17.6284 H         1 UNK         0.0825 
    124 H124      -48.7878  -23.3215   18.6503 H         1 UNK         0.0825 
    125 H125      -47.1204  -23.1002   18.1544 H         1 UNK         0.0825 
    126 H126      -46.9962  -23.6865   15.5390 H         1 UNK         0.3029 
    127 H127      -46.6380  -21.9166   12.4952 H         1 UNK         0.0897 
    128 H128      -44.2522  -22.4839   12.9284 H         1 UNK         0.0792 
    129 H129      -44.7743  -21.1060   13.8843 H         1 UNK         0.0792 
    130 H130      -44.5925  -22.6751   14.6480 H         1 UNK         0.0792 
    131 H131      -47.0987  -24.0287   12.1550 H         1 UNK         0.3086 
    132 H132      -45.9887  -27.0948   13.4310 H         1 UNK         0.0583 
    133 H133      -48.0422  -26.8655   14.7867 H         1 UNK         0.1020 
    134 H134      -48.8722  -26.0571   13.4868 H         1 UNK         0.1020 
    135 H135      -50.5641  -27.3039   12.2297 H         1 UNK         0.0694 
    136 H136      -49.2438  -27.2335   11.0883 H         1 UNK         0.0694 
    137 H137      -47.5871  -25.9344   11.2227 H         1 UNK         0.2989 
    138 H138      -44.9439  -26.1086    8.9196 H         1 UNK         0.1055 
    139 H139      -45.5851  -28.5021    8.8576 H         1 UNK         0.0806 
    140 H140      -47.2736  -28.0972    9.1189 H         1 UNK         0.0806 
    141 H141      -46.4715  -27.6187    7.6249 H         1 UNK         0.0806 
    142 H142      -47.8182  -25.6779    8.7645 H         1 UNK         0.3061 
    143 H143      -47.7255  -22.2478    9.6036 H         1 UNK         0.0734 
    144 H144      -46.7703  -22.0568    7.2960 H         1 UNK         0.0832 
    145 H145      -47.8693  -23.3050    6.7266 H         1 UNK         0.0832 
    146 H146      -48.4993  -21.7579    7.2968 H         1 UNK         0.0832 
    147 H147      -49.7701  -23.6868    8.3054 H         1 UNK         0.3156 
    148 H148      -51.1428  -25.4048   11.1000 H         1 UNK         0.0589 
    149 H149      -53.0810  -24.0293   10.5262 H         1 UNK         0.0808 
    150 H150      -51.8488  -22.9718   11.1896 H         1 UNK         0.0808 
    151 H151      -52.1160  -23.0167    9.4573 H         1 UNK         0.0808 
    152 H152      -52.3597  -25.5475    8.7841 H         1 UNK         0.3098 
    153 H153      -52.1215  -27.8460    7.7562 H         1 UNK         0.0720 
    154 H154      -52.3736  -26.9422    5.4024 H         1 UNK         0.0791 
    155 H155      -51.0981  -25.7694    5.7130 H         1 UNK         0.0791 
    156 H156      -52.6295  -25.6689    6.5748 H         1 UNK         0.0791 
    157 H157      -49.3879  -27.9891    6.9595 H         1 UNK         0.3028 
@<TRIPOS>BOND
     1    1    2 1    
     2    1   82 1    
     3    1   83 1    
     4    1   84 1    
     5    2    3 2    
     6    2    4 am   BACKBONE|DICT|INTERRES
     7    4    5 1    
     8    4   85 1    
     9    5    6 1    
    10    5   80 1    
    11    5   86 1    
    12    6    7 1    
    13    6   87 1    
    14    6   88 1    
    15    7    8 1    
    16    8    9 1    
    17    8   89 1    
    18    8   90 1    
    19    9   10 ar   
    20    9   14 ar   
    21   10   11 ar   
    22   10   91 1    
    23   11   12 ar   
    24   11   58 1    
    25   12   13 ar   
    26   12   92 1    
    27   13   14 ar   
    28   13   15 1    
    29   14   93 1    
    30   15   16 1    
    31   15   94 1    
    32   15   95 1    
    33   16   17 1    
    34   17   18 1    
    35   17   96 1    
    36   17   97 1    
    37   18   19 1    
    38   18   22 1    
    39   18   98 1    
    40   19   20 am   BACKBONE|DICT|INTERRES
    41   19   21 2    
    42   20   99 1    
    43   20  100 1    
    44   22   23 am   BACKBONE|DICT|INTERRES
    45   22  101 1    
    46   23   24 2    
    47   23   25 1    
    48   25   26 1    
    49   25   27 1    
    50   25  102 1    
    51   26  103 1    
    52   26  104 1    
    53   26  105 1    
    54   27   28 am   BACKBONE|DICT|INTERRES
    55   27  106 1    
    56   28   29 2    
    57   28   30 1    
    58   30   31 1    
    59   30   32 1    
    60   30  107 1    
    61   31  108 1    
    62   31  109 1    
    63   31  110 1    
    64   32   33 am   BACKBONE|DICT|INTERRES
    65   32  111 1    
    66   33   34 2    
    67   33   35 1    
    68   35   36 1    
    69   35   37 1    
    70   35  112 1    
    71   36  113 1    
    72   36  114 1    
    73   36  115 1    
    74   37   38 am   BACKBONE|DICT|INTERRES
    75   37  116 1    
    76   38   39 2    
    77   38   40 1    
    78   40   41 1    
    79   40   42 1    
    80   40  117 1    
    81   41  118 1    
    82   41  119 1    
    83   41  120 1    
    84   42   43 am   BACKBONE|DICT|INTERRES
    85   42  121 1    
    86   43   44 2    
    87   43   45 1    
    88   45   46 1    
    89   45   47 1    
    90   45  122 1    
    91   46  123 1    
    92   46  124 1    
    93   46  125 1    
    94   47   48 am   BACKBONE|DICT|INTERRES
    95   47  126 1    
    96   48   49 2    
    97   48   50 1    
    98   50   51 1    
    99   50   52 1    
   100   50  127 1    
   101   51  128 1    
   102   51  129 1    
   103   51  130 1    
   104   52   53 am   BACKBONE|DICT|INTERRES
   105   52  131 1    
   106   53   54 2    
   107   53   55 1    
   108   55   56 1    
   109   55   59 1    
   110   55  132 1    
   111   56   57 1    
   112   56  133 1    
   113   56  134 1    
   114   57   58 1    
   115   58  135 1    
   116   58  136 1    
   117   59   60 am   BACKBONE|DICT|INTERRES
   118   59  137 1    
   119   60   61 2    
   120   60   62 1    
   121   62   63 1    
   122   62   64 1    
   123   62  138 1    
   124   63  139 1    
   125   63  140 1    
   126   63  141 1    
   127   64   65 am   BACKBONE|DICT|INTERRES
   128   64  142 1    
   129   65   66 2    
   130   65   67 1    
   131   67   68 1    
   132   67   69 1    
   133   67  143 1    
   134   68  144 1    
   135   68  145 1    
   136   68  146 1    
   137   69   70 am   BACKBONE|DICT|INTERRES
   138   69  147 1    
   139   70   71 2    
   140   70   72 1    
   141   72   73 1    
   142   72   74 1    
   143   72  148 1    
   144   73  149 1    
   145   73  150 1    
   146   73  151 1    
   147   74   75 am   BACKBONE|DICT|INTERRES
   148   74  152 1    
   149   75   76 2    
   150   75   77 1    
   151   77   78 1    
   152   77   79 1    
   153   77  153 1    
   154   78  154 1    
   155   78  155 1    
   156   78  156 1    
   157   79   80 am   BACKBONE|DICT|INTERRES
   158   79  157 1    
   159   80   81 2    
@<TRIPOS>SUBSTRUCTURE
     1 UNK         1 GROUP             0       ****    0 ROOT    
