@<TRIPOS>MOLECULE
3R207
157   159    1
SMALL
USER_CHARGES


@<TRIPOS>ATOM
      1 CA        -54.6063  -26.5608    3.3874 C.3       0 UNK        -0.1975 
      2 C         -53.9169  -26.5551    4.7441 C.2       0 UNK         0.4852 
      3 O         -54.4014  -25.9066    5.6723 O.2       0 UNK        -0.5216 
      4 N         -52.7974  -27.2794    4.8652 N.am      1 UNK        -0.4461 
      5 CA        -51.9759  -27.3594    6.0777 C.3       1 UNK         0.0864 
      6 C6        -50.9803  -28.5467    6.0163 C.3       14 UNK        -0.0898 
      7 S7        -51.8485  -30.1528    5.9564 S.3       14 UNK        -0.2598 
      8 C8        -51.6799  -30.7562    7.6715 C.3       14 UNK         0.0286 
      9 C9        -52.1279  -29.7238    8.6969 C.ar      14 UNK        -0.0844 
     10 C10       -51.1995  -29.1601    9.5776 C.ar      14 UNK        -0.0881 
     11 C11       -51.5912  -28.1750   10.4896 C.ar      14 UNK        -0.0643 
     12 C12       -52.9263  -27.7619   10.5169 C.ar      14 UNK        -0.0930 
     13 C13       -53.8697  -28.3390    9.6625 C.ar      14 UNK        -0.0827 
     14 C14       -53.4660  -29.3232    8.7571 C.ar      14 UNK        -0.1249 
     15 C15       -55.3193  -27.8833    9.7093 C.3       14 UNK         0.0141 
     16 S16       -56.1212  -28.3025   11.2895 S.3       14 UNK        -0.2313 
     17 C17       -56.3593  -30.1099   11.1674 C.3       14 UNK        -0.0915 
     18 CA        -55.5268  -30.9473   12.1810 C.3       13 UNK         0.0968 
     19 C         -54.1164  -31.3297   11.6421 C.2       13 UNK         0.5732 
     20 N         -53.0193  -30.9023   12.2563 N.am      13 UNK        -0.7310 
     21 O         -54.0214  -32.0707   10.6663 O.2       13 UNK        -0.5035 
     22 N         -55.5402  -30.3627   13.5306 N.am      13 UNK        -0.4233 
     23 C         -55.2578  -31.0320   14.6536 C.2       13 UNK         0.4989 
     24 O         -55.0927  -32.2532   14.6923 O.2       13 UNK        -0.4996 
     25 CA        -55.1462  -30.2036   15.9510 C.3       12 UNK         0.0216 
     26 CB        -54.2861  -30.9108   17.0206 C.3       12 UNK        -0.1964 
     27 N         -54.6759  -28.8205   15.7722 N.am      12 UNK        -0.4276 
     28 C         -53.5405  -28.4057   15.1907 C.2       12 UNK         0.5020 
     29 O         -52.7814  -29.1365   14.5515 O.2       12 UNK        -0.5489 
     30 CA        -53.1910  -26.9166   15.3721 C.3       11 UNK         0.0294 
     31 CB        -51.6771  -26.7226   15.5693 C.3       11 UNK        -0.2019 
     32 N         -53.6541  -26.0836   14.2580 N.am      11 UNK        -0.4493 
     33 C         -54.9426  -25.8412   13.9703 C.2       11 UNK         0.4932 
     34 O         -55.8752  -26.2931   14.6369 O.2       11 UNK        -0.5029 
     35 CA        -55.2485  -24.9314   12.7650 C.3       10 UNK         0.0280 
     36 CB        -56.6001  -24.2051   12.9004 C.3       10 UNK        -0.1976 
     37 N         -54.1908  -23.9432   12.5536 N.am      10 UNK        -0.4242 
     38 C         -53.5320  -23.7473   11.4043 C.2       10 UNK         0.5072 
     39 O         -53.7710  -24.3589   10.3633 O.2       10 UNK        -0.5224 
     40 CA        -52.4029  -22.6954   11.4029 C.3       9 UNK         0.0343 
     41 CB        -52.8836  -21.3972   10.7338 C.3       9 UNK        -0.2003 
     42 N         -51.8168  -22.3710   12.7122 N.am      9 UNK        -0.4272 
     43 C         -51.2505  -23.2549   13.5427 C.2       9 UNK         0.4988 
     44 O         -51.2831  -24.4749   13.3668 O.2       9 UNK        -0.5108 
     45 CA        -50.5605  -22.6990   14.7920 C.3       8 UNK         0.0248 
     46 CB        -51.5808  -22.4387   15.9156 C.3       8 UNK        -0.2001 
     47 N         -49.5813  -23.6938   15.2137 N.am      8 UNK        -0.4140 
     48 C         -48.5154  -23.5043   15.9986 C.2       8 UNK         0.5028 
     49 O         -48.2335  -22.4294   16.5295 O.2       8 UNK        -0.5428 
     50 CA        -47.6037  -24.7263   16.2249 C.3       7 UNK         0.0264 
     51 CB        -48.0322  -25.4860   17.4912 C.3       7 UNK        -0.1988 
     52 N         -47.6019  -25.6500   15.0838 N.am      7 UNK        -0.4454 
     53 C         -46.9631  -25.4176   13.9281 C.2       7 UNK         0.5027 
     54 O         -46.2319  -24.4441   13.7324 O.2       7 UNK        -0.5083 
     55 CA        -47.2584  -26.4006   12.7776 C.3       6 UNK         0.0844 
     56 C56       -48.4243  -25.8488   11.9242 C.3       14 UNK        -0.0967 
     57 S57       -49.0514  -27.0228   10.6787 S.3       14 UNK        -0.2604 
     58 C58       -50.5967  -27.5760   11.4749 C.3       14 UNK         0.0134 
     59 N         -46.0562  -26.6556   11.9799 N.am      6 UNK        -0.4116 
     60 C         -45.0169  -27.3939   12.3983 C.2       5 UNK         0.5034 
     61 O         -44.9809  -27.9483   13.4982 O.2       5 UNK        -0.5045 
     62 CA        -43.8236  -27.5892   11.4417 C.3       5 UNK         0.0224 
     63 CB        -43.8265  -29.0174   10.8706 C.3       5 UNK        -0.1978 
     64 N         -43.7968  -26.6408   10.3276 N.am      5 UNK        -0.4737 
     65 C         -43.3842  -25.3688   10.4078 C.2       4 UNK         0.5027 
     66 O         -42.8965  -24.8725   11.4230 O.2       4 UNK        -0.5211 
     67 CA        -43.5536  -24.4984    9.1442 C.3       4 UNK         0.0297 
     68 CB        -42.2150  -24.3706    8.3991 C.3       4 UNK        -0.1993 
     69 N         -44.5830  -24.9789    8.2098 N.am      4 UNK        -0.4486 
     70 C         -45.8821  -25.1097    8.5102 C.2       3 UNK         0.4961 
     71 O         -46.3478  -24.8394    9.6177 O.2       3 UNK        -0.5105 
     72 CA        -46.7815  -25.7149    7.4192 C.3       3 UNK         0.0299 
     73 CB        -46.4932  -27.2181    7.2584 C.3       3 UNK        -0.1972 
     74 N         -48.1994  -25.5556    7.7384 N.am      3 UNK        -0.4305 
     75 C         -48.8936  -24.4136    7.6570 C.2       2 UNK         0.5006 
     76 O         -48.4277  -23.3554    7.2283 O.2       2 UNK        -0.5106 
     77 CA        -50.3642  -24.4919    8.1199 C.3       2 UNK         0.0296 
     78 CB        -51.1694  -23.2159    7.7942 C.3       2 UNK        -0.2002 
     79 N         -51.0599  -25.6857    7.6155 N.am      2 UNK        -0.4032 
     80 C         -51.2296  -26.0350    6.3294 C.2       1 UNK         0.5000 
     81 O         -50.8039  -25.3870    5.3684 O.2       1 UNK        -0.5238 
     82 H82       -55.6235  -26.9392    3.4852 H         1 UNK         0.0889 
     83 H83       -54.0805  -27.1850    2.6651 H         1 UNK         0.0889 
     84 H84       -54.6557  -25.5481    2.9880 H         1 UNK         0.0889 
     85 H85       -52.4409  -27.7835    4.0664 H         1 UNK         0.3028 
     86 H86       -52.6545  -27.5132    6.9175 H         1 UNK         0.0864 
     87 H87       -50.3027  -28.5396    6.8720 H         1 UNK         0.0720 
     88 H88       -50.3436  -28.4668    5.1332 H         1 UNK         0.0720 
     89 H89       -50.6426  -31.0487    7.8419 H         1 UNK         0.0814 
     90 H90       -52.2770  -31.6613    7.7920 H         1 UNK         0.0814 
     91 H91       -50.1673  -29.4813    9.5512 H         1 UNK         0.1469 
     92 H92       -53.2427  -27.0025   11.2183 H         1 UNK         0.1381 
     93 H93       -54.1860  -29.7675    8.0837 H         1 UNK         0.1206 
     94 H94       -55.8946  -28.3064    8.8845 H         1 UNK         0.0813 
     95 H95       -55.3490  -26.8005    9.5776 H         1 UNK         0.0813 
     96 H96       -56.1880  -30.4409   10.1414 H         1 UNK         0.0638 
     97 H97       -57.4187  -30.2929   11.3519 H         1 UNK         0.0638 
     98 H98       -56.0431  -31.9058   12.2633 H         1 UNK         0.0568 
     99 H99       -52.1232  -31.1609   11.8804 H         1 UNK         0.3450 
    100 H100      -53.0672  -30.2881   13.0650 H         1 UNK         0.3450 
    101 H101      -55.6436  -29.3592   13.5706 H         1 UNK         0.2987 
    102 H102      -56.1621  -30.1296   16.3417 H         1 UNK         0.0766 
    103 H103      -54.6940  -31.8904   17.2731 H         1 UNK         0.0798 
    104 H104      -54.2462  -30.3335   17.9443 H         1 UNK         0.0798 
    105 H105      -53.2625  -31.0623   16.6754 H         1 UNK         0.0798 
    106 H106      -55.2730  -28.1064   16.1706 H         1 UNK         0.3198 
    107 H107      -53.6810  -26.5638   16.2824 H         1 UNK         0.0843 
    108 H108      -51.1189  -26.9438   14.6588 H         1 UNK         0.0831 
    109 H109      -51.2970  -27.3804   16.3522 H         1 UNK         0.0831 
    110 H110      -51.4493  -25.7021   15.8716 H         1 UNK         0.0831 
    111 H111      -52.9314  -25.6607   13.6845 H         1 UNK         0.3133 
    112 H112      -55.3135  -25.5922   11.9008 H         1 UNK         0.0566 
    113 H113      -56.6266  -23.5649   13.7829 H         1 UNK         0.0814 
    114 H114      -57.4222  -24.9170   12.9855 H         1 UNK         0.0814 
    115 H115      -56.8038  -23.5839   12.0281 H         1 UNK         0.0814 
    116 H116      -53.9122  -23.4028   13.3604 H         1 UNK         0.3091 
    117 H117      -51.5975  -23.1103   10.7944 H         1 UNK         0.0702 
    118 H118      -53.6544  -20.9013   11.3250 H         1 UNK         0.0785 
    119 H119      -53.3078  -21.5966    9.7486 H         1 UNK         0.0785 
    120 H120      -52.0620  -20.6948   10.5919 H         1 UNK         0.0785 
    121 H121      -51.7708  -21.3899   12.9490 H         1 UNK         0.2998 
    122 H122      -50.0426  -21.7736   14.5315 H         1 UNK         0.0697 
    123 H123      -52.1275  -23.3436   16.1839 H         1 UNK         0.0825 
    124 H124      -52.3150  -21.6906   15.6143 H         1 UNK         0.0825 
    125 H125      -51.0936  -22.0649   16.8163 H         1 UNK         0.0825 
    126 H126      -49.7284  -24.5986   14.7860 H         1 UNK         0.3029 
    127 H127      -46.5867  -24.3566   16.3755 H         1 UNK         0.0897 
    128 H128      -49.0427  -25.8871   17.4027 H         1 UNK         0.0792 
    129 H129      -48.0185  -24.8289   18.3621 H         1 UNK         0.0792 
    130 H130      -47.3578  -26.3158   17.7037 H         1 UNK         0.0792 
    131 H131      -48.1599  -26.4872   15.1758 H         1 UNK         0.3086 
    132 H132      -47.5775  -27.3507   13.2123 H         1 UNK         0.0583 
    133 H133      -49.2494  -25.5637   12.5703 H         1 UNK         0.1020 
    134 H134      -48.1326  -24.9280   11.4173 H         1 UNK         0.1020 
    135 H135      -50.3637  -28.3142   12.2434 H         1 UNK         0.0694 
    136 H136      -51.0620  -26.7331   11.9860 H         1 UNK         0.0694 
    137 H137      -46.0058  -26.1708   11.0903 H         1 UNK         0.2989 
    138 H138      -42.9140  -27.4585   12.0325 H         1 UNK         0.1055 
    139 H139      -44.7158  -29.2108   10.2691 H         1 UNK         0.0806 
    140 H140      -43.8078  -29.7588   11.6709 H         1 UNK         0.0806 
    141 H141      -42.9512  -29.1977   10.2461 H         1 UNK         0.0806 
    142 H142      -44.1715  -26.9612    9.4468 H         1 UNK         0.3061 
    143 H143      -43.8548  -23.5037    9.4798 H         1 UNK         0.0734 
    144 H144      -41.8718  -25.3328    8.0168 H         1 UNK         0.0832 
    145 H145      -42.2908  -23.6805    7.5586 H         1 UNK         0.0832 
    146 H146      -41.4360  -23.9871    9.0597 H         1 UNK         0.0832 
    147 H147      -44.2705  -25.2311    7.2825 H         1 UNK         0.3156 
    148 H148      -46.5751  -25.2070    6.4748 H         1 UNK         0.0589 
    149 H149      -47.1274  -27.6623    6.4906 H         1 UNK         0.0808 
    150 H150      -45.4597  -27.3966    6.9594 H         1 UNK         0.0808 
    151 H151      -46.6638  -27.7636    8.1881 H         1 UNK         0.0808 
    152 H152      -48.6474  -26.3463    8.1786 H         1 UNK         0.3098 
    153 H153      -50.3352  -24.5921    9.2058 H         1 UNK         0.0720 
    154 H154      -51.1954  -23.0159    6.7226 H         1 UNK         0.0791 
    155 H155      -50.7315  -22.3424    8.2788 H         1 UNK         0.0791 
    156 H156      -52.1987  -23.2992    8.1433 H         1 UNK         0.0791 
    157 H157      -51.4403  -26.2953    8.3277 H         1 UNK         0.3028 
@<TRIPOS>BOND
     1    1    2 1    
     2    1   82 1    
     3    1   83 1    
     4    1   84 1    
     5    2    3 2    
     6    2    4 am   BACKBONE|DICT|INTERRES
     7    4    5 1    
     8    4   85 1    
     9    5    6 1    
    10    5   80 1    
    11    5   86 1    
    12    6    7 1    
    13    6   87 1    
    14    6   88 1    
    15    7    8 1    
    16    8    9 1    
    17    8   89 1    
    18    8   90 1    
    19    9   10 ar   
    20    9   14 ar   
    21   10   11 ar   
    22   10   91 1    
    23   11   12 ar   
    24   11   58 1    
    25   12   13 ar   
    26   12   92 1    
    27   13   14 ar   
    28   13   15 1    
    29   14   93 1    
    30   15   16 1    
    31   15   94 1    
    32   15   95 1    
    33   16   17 1    
    34   17   18 1    
    35   17   96 1    
    36   17   97 1    
    37   18   19 1    
    38   18   22 1    
    39   18   98 1    
    40   19   20 am   BACKBONE|DICT|INTERRES
    41   19   21 2    
    42   20   99 1    
    43   20  100 1    
    44   22   23 am   BACKBONE|DICT|INTERRES
    45   22  101 1    
    46   23   24 2    
    47   23   25 1    
    48   25   26 1    
    49   25   27 1    
    50   25  102 1    
    51   26  103 1    
    52   26  104 1    
    53   26  105 1    
    54   27   28 am   BACKBONE|DICT|INTERRES
    55   27  106 1    
    56   28   29 2    
    57   28   30 1    
    58   30   31 1    
    59   30   32 1    
    60   30  107 1    
    61   31  108 1    
    62   31  109 1    
    63   31  110 1    
    64   32   33 am   BACKBONE|DICT|INTERRES
    65   32  111 1    
    66   33   34 2    
    67   33   35 1    
    68   35   36 1    
    69   35   37 1    
    70   35  112 1    
    71   36  113 1    
    72   36  114 1    
    73   36  115 1    
    74   37   38 am   BACKBONE|DICT|INTERRES
    75   37  116 1    
    76   38   39 2    
    77   38   40 1    
    78   40   41 1    
    79   40   42 1    
    80   40  117 1    
    81   41  118 1    
    82   41  119 1    
    83   41  120 1    
    84   42   43 am   BACKBONE|DICT|INTERRES
    85   42  121 1    
    86   43   44 2    
    87   43   45 1    
    88   45   46 1    
    89   45   47 1    
    90   45  122 1    
    91   46  123 1    
    92   46  124 1    
    93   46  125 1    
    94   47   48 am   BACKBONE|DICT|INTERRES
    95   47  126 1    
    96   48   49 2    
    97   48   50 1    
    98   50   51 1    
    99   50   52 1    
   100   50  127 1    
   101   51  128 1    
   102   51  129 1    
   103   51  130 1    
   104   52   53 am   BACKBONE|DICT|INTERRES
   105   52  131 1    
   106   53   54 2    
   107   53   55 1    
   108   55   56 1    
   109   55   59 1    
   110   55  132 1    
   111   56   57 1    
   112   56  133 1    
   113   56  134 1    
   114   57   58 1    
   115   58  135 1    
   116   58  136 1    
   117   59   60 am   BACKBONE|DICT|INTERRES
   118   59  137 1    
   119   60   61 2    
   120   60   62 1    
   121   62   63 1    
   122   62   64 1    
   123   62  138 1    
   124   63  139 1    
   125   63  140 1    
   126   63  141 1    
   127   64   65 am   BACKBONE|DICT|INTERRES
   128   64  142 1    
   129   65   66 2    
   130   65   67 1    
   131   67   68 1    
   132   67   69 1    
   133   67  143 1    
   134   68  144 1    
   135   68  145 1    
   136   68  146 1    
   137   69   70 am   BACKBONE|DICT|INTERRES
   138   69  147 1    
   139   70   71 2    
   140   70   72 1    
   141   72   73 1    
   142   72   74 1    
   143   72  148 1    
   144   73  149 1    
   145   73  150 1    
   146   73  151 1    
   147   74   75 am   BACKBONE|DICT|INTERRES
   148   74  152 1    
   149   75   76 2    
   150   75   77 1    
   151   77   78 1    
   152   77   79 1    
   153   77  153 1    
   154   78  154 1    
   155   78  155 1    
   156   78  156 1    
   157   79   80 am   BACKBONE|DICT|INTERRES
   158   79  157 1    
   159   80   81 2    
@<TRIPOS>SUBSTRUCTURE
     1 UNK         1 GROUP             0       ****    0 ROOT    
