@<TRIPOS>MOLECULE
3R207
157   159    1
SMALL
USER_CHARGES


@<TRIPOS>ATOM
      1 CA        -46.4364  -31.4393   10.8566 C.3       0 UNK        -0.1975 
      2 C         -46.7523  -30.0876   10.2345 C.2       0 UNK         0.4852 
      3 O         -46.8178  -29.0892   10.9481 O.2       0 UNK        -0.5216 
      4 N         -46.9257  -30.0438    8.9066 N.am      1 UNK        -0.4461 
      5 CA        -47.2554  -28.8782    8.0695 C.3       1 UNK         0.0864 
      6 C6        -48.6061  -28.2051    8.4409 C.3       14 UNK        -0.0898 
      7 S7        -49.4789  -27.5986    6.9580 S.3       14 UNK        -0.2598 
      8 C8        -50.9001  -28.7287    6.8513 C.3       14 UNK         0.0286 
      9 C9        -52.0462  -28.2466    7.7253 C.ar      14 UNK        -0.0844 
     10 C10       -52.9092  -27.2524    7.2545 C.ar      14 UNK        -0.0881 
     11 C11       -53.9533  -26.7811    8.0547 C.ar      14 UNK        -0.0643 
     12 C12       -54.1474  -27.3305    9.3256 C.ar      14 UNK        -0.0930 
     13 C13       -53.2755  -28.3077    9.8136 C.ar      14 UNK        -0.0827 
     14 C14       -52.2333  -28.7716    9.0069 C.ar      14 UNK        -0.1249 
     15 C15       -53.4318  -28.8211   11.2321 C.3       14 UNK         0.0141 
     16 S16       -54.5174  -30.2756   11.2971 S.3       14 UNK        -0.2313 
     17 C17       -54.7100  -30.4719   13.1002 C.3       14 UNK        -0.0915 
     18 CA        -56.0266  -29.8322   13.6170 C.3       13 UNK         0.0968 
     19 C         -56.3294  -30.2283   15.0919 C.2       13 UNK         0.5732 
     20 N         -56.5846  -29.2992   16.0070 N.am      13 UNK        -0.7310 
     21 O         -56.3486  -31.4136   15.4145 O.2       13 UNK        -0.5035 
     22 N         -56.0342  -28.3814   13.3894 N.am      13 UNK        -0.4233 
     23 C         -57.1080  -27.6572   13.0536 C.2       13 UNK         0.4989 
     24 O         -58.2163  -28.1427   12.8196 O.2       13 UNK        -0.4996 
     25 CA        -56.9048  -26.1291   12.9711 C.3       12 UNK         0.0216 
     26 CB        -58.2182  -25.3402   13.1578 C.3       12 UNK        -0.1964 
     27 N         -55.8667  -25.6300   13.8832 N.am      12 UNK        -0.4276 
     28 C         -55.8336  -25.7680   15.2173 C.2       12 UNK         0.5020 
     29 O         -56.7026  -26.3391   15.8799 O.2       12 UNK        -0.5489 
     30 CA        -54.5778  -25.2387   15.9265 C.3       11 UNK         0.0294 
     31 CB        -54.9493  -24.3576   17.1310 C.3       11 UNK        -0.2019 
     32 N         -53.6933  -26.3215   16.3751 N.am      11 UNK        -0.4493 
     33 C         -53.1592  -27.2726   15.5973 C.2       11 UNK         0.4932 
     34 O         -53.3709  -27.3811   14.3862 O.2       11 UNK        -0.5029 
     35 CA        -52.2160  -28.2706   16.2750 C.3       10 UNK         0.0280 
     36 CB        -52.9936  -29.4882   16.8093 C.3       10 UNK        -0.1976 
     37 N         -51.2362  -28.6680   15.2704 N.am      10 UNK        -0.4242 
     38 C         -50.1156  -29.3740   15.4557 C.2       10 UNK         0.5072 
     39 O         -49.7636  -29.8503   16.5354 O.2       10 UNK        -0.5224 
     40 CA        -49.2222  -29.5453   14.2160 C.3       9 UNK         0.0343 
     41 CB        -49.8716  -30.4803   13.1814 C.3       9 UNK        -0.2003 
     42 N         -48.9256  -28.2474   13.6036 N.am      9 UNK        -0.4272 
     43 C         -48.0095  -27.3913   14.0795 C.2       9 UNK         0.4988 
     44 O         -47.2668  -27.6365   15.0314 O.2       9 UNK        -0.5108 
     45 CA        -47.9186  -26.0180   13.3929 C.3       8 UNK         0.0248 
     46 CB        -47.1752  -26.1165   12.0546 C.3       8 UNK        -0.2001 
     47 N         -49.2267  -25.3886   13.1925 N.am      8 UNK        -0.4140 
     48 C         -49.9931  -24.9272   14.1956 C.2       8 UNK         0.5028 
     49 O         -49.6669  -24.9950   15.3811 O.2       8 UNK        -0.5428 
     50 CA        -51.3435  -24.2809   13.8447 C.3       7 UNK         0.0264 
     51 CB        -51.5410  -22.9260   14.5486 C.3       7 UNK        -0.1988 
     52 N         -51.5260  -24.1117   12.4056 N.am      7 UNK        -0.4454 
     53 C         -52.6115  -24.4773   11.7147 C.2       7 UNK         0.5027 
     54 O         -53.6367  -24.9024   12.2531 O.2       7 UNK        -0.5083 
     55 CA        -52.5570  -24.3588   10.1707 C.3       6 UNK         0.0844 
     56 C56       -53.9165  -23.8822    9.5894 C.3       14 UNK        -0.0967 
     57 S57       -54.0012  -24.0279    7.7709 S.3       14 UNK        -0.2604 
     58 C58       -54.8323  -25.6396    7.5664 C.3       14 UNK         0.0134 
     59 N         -51.4254  -23.5748    9.6502 N.am      6 UNK        -0.4116 
     60 C         -50.1434  -23.9641    9.6384 C.2       5 UNK         0.5034 
     61 O         -49.7378  -24.9993   10.1715 O.2       5 UNK        -0.5045 
     62 CA        -49.1347  -22.9907    9.0151 C.3       5 UNK         0.0224 
     63 CB        -48.1998  -22.4112   10.0893 C.3       5 UNK        -0.1978 
     64 N         -48.3328  -23.6569    7.9908 N.am      5 UNK        -0.4737 
     65 C         -48.7182  -23.8028    6.7144 C.2       4 UNK         0.5027 
     66 O         -49.8105  -23.4158    6.2957 O.2       4 UNK        -0.5211 
     67 CA        -47.7210  -24.4627    5.7340 C.3       4 UNK         0.0297 
     68 CB        -47.9008  -23.9727    4.2813 C.3       4 UNK        -0.1993 
     69 N         -46.3195  -24.3534    6.1551 N.am      4 UNK        -0.4486 
     70 C         -45.6119  -23.2290    6.3573 C.2       3 UNK         0.4961 
     71 O         -46.0280  -22.1021    6.0842 O.2       3 UNK        -0.5105 
     72 CA        -44.2066  -23.3789    6.9842 C.3       3 UNK         0.0299 
     73 CB        -43.8820  -22.2229    7.9547 C.3       3 UNK        -0.1972 
     74 N         -43.9661  -24.6758    7.6355 N.am      3 UNK        -0.4305 
     75 C         -44.6569  -25.2134    8.6519 C.2       2 UNK         0.5006 
     76 O         -45.6062  -24.6653    9.2164 O.2       2 UNK        -0.5106 
     77 CA        -44.2490  -26.6373    9.0612 C.3       2 UNK         0.0296 
     78 CB        -43.6113  -26.6487   10.4593 C.3       2 UNK        -0.2002 
     79 N         -45.3903  -27.5556    9.0204 N.am      2 UNK        -0.4032 
     80 C         -46.1109  -27.8466    7.9273 C.2       1 UNK         0.5000 
     81 O         -45.8805  -27.3554    6.8189 O.2       1 UNK        -0.5238 
     82 H82       -47.1541  -31.6691   11.6431 H         1 UNK         0.0889 
     83 H83       -45.4414  -31.4220   11.3003 H         1 UNK         0.0889 
     84 H84       -46.4685  -32.2444   10.1230 H         1 UNK         0.0889 
     85 H85       -46.8171  -30.9045    8.3876 H         1 UNK         0.3028 
     86 H86       -47.3679  -29.3188    7.0772 H         1 UNK         0.0864 
     87 H87       -48.4680  -27.3743    9.1351 H         1 UNK         0.0720 
     88 H88       -49.2528  -28.9116    8.9615 H         1 UNK         0.0720 
     89 H89       -50.5987  -29.7420    7.1214 H         1 UNK         0.0814 
     90 H90       -51.2314  -28.7785    5.8130 H         1 UNK         0.0814 
     91 H91       -52.7485  -26.8212    6.2756 H         1 UNK         0.1469 
     92 H92       -54.9461  -26.9638    9.9554 H         1 UNK         0.1381 
     93 H93       -51.5597  -29.5287    9.3841 H         1 UNK         0.1206 
     94 H94       -53.8317  -28.0249   11.8595 H         1 UNK         0.0813 
     95 H95       -52.4576  -29.0735   11.6477 H         1 UNK         0.0813 
     96 H96       -53.8429  -30.0522   13.6125 H         1 UNK         0.0638 
     97 H97       -54.6953  -31.5435   13.3065 H         1 UNK         0.0638 
     98 H98       -56.8401  -30.2745   13.0393 H         1 UNK         0.0568 
     99 H99       -56.6111  -28.3115   15.7747 H         1 UNK         0.3450 
    100 H100      -56.7890  -29.5910   16.9487 H         1 UNK         0.3450 
    101 H101      -55.1684  -27.9001   13.6097 H         1 UNK         0.2987 
    102 H102      -56.5394  -25.9301   11.9626 H         1 UNK         0.0766 
    103 H103      -58.9502  -25.6096   12.3955 H         1 UNK         0.0798 
    104 H104      -58.0502  -24.2663   13.0772 H         1 UNK         0.0798 
    105 H105      -58.6727  -25.5370   14.1293 H         1 UNK         0.0798 
    106 H106      -55.0435  -25.2461   13.4176 H         1 UNK         0.3198 
    107 H107      -54.0289  -24.6125   15.2234 H         1 UNK         0.0843 
    108 H108      -55.4643  -24.9271   17.9059 H         1 UNK         0.0831 
    109 H109      -55.6131  -23.5461   16.8295 H         1 UNK         0.0831 
    110 H110      -54.0659  -23.9017   17.5784 H         1 UNK         0.0831 
    111 H111      -53.4821  -26.3386   17.3624 H         1 UNK         0.3133 
    112 H112      -51.6958  -27.7712   17.0947 H         1 UNK         0.0566 
    113 H113      -53.4432  -30.0653   16.0020 H         1 UNK         0.0814 
    114 H114      -53.7983  -29.1794   17.4778 H         1 UNK         0.0814 
    115 H115      -52.3471  -30.1586   17.3753 H         1 UNK         0.0814 
    116 H116      -51.4532  -28.3112   14.3485 H         1 UNK         0.3091 
    117 H117      -48.2831  -30.0043   14.5336 H         1 UNK         0.0702 
    118 H118      -49.2505  -30.5798   12.2916 H         1 UNK         0.0785 
    119 H119      -50.8517  -30.1277   12.8648 H         1 UNK         0.0785 
    120 H120      -50.0075  -31.4798   13.5965 H         1 UNK         0.0785 
    121 H121      -49.4666  -27.9768   12.7963 H         1 UNK         0.2998 
    122 H122      -47.3315  -25.3692   14.0467 H         1 UNK         0.0697 
    123 H123      -46.8959  -25.1335   11.6781 H         1 UNK         0.0825 
    124 H124      -47.7765  -26.6082   11.2905 H         1 UNK         0.0825 
    125 H125      -46.2585  -26.6943   12.1663 H         1 UNK         0.0825 
    126 H126      -49.5532  -25.3291   12.2343 H         1 UNK         0.3029 
    127 H127      -52.0874  -24.9791   14.2213 H         1 UNK         0.0897 
    128 H128      -50.7917  -22.1982   14.2358 H         1 UNK         0.0792 
    129 H129      -51.4666  -23.0296   15.6320 H         1 UNK         0.0792 
    130 H130      -52.5249  -22.5087   14.3335 H         1 UNK         0.0792 
    131 H131      -50.7321  -23.7660   11.8859 H         1 UNK         0.3086 
    132 H132      -52.3876  -25.3793    9.8292 H         1 UNK         0.0583 
    133 H133      -54.7507  -24.4446   10.0125 H         1 UNK         0.1020 
    134 H134      -54.0984  -22.8411    9.8612 H         1 UNK         0.1020 
    135 H135      -55.7878  -25.6311    8.0932 H         1 UNK         0.0694 
    136 H136      -55.0667  -25.7855    6.5109 H         1 UNK         0.0694 
    137 H137      -51.6719  -22.7035    9.2035 H         1 UNK         0.2989 
    138 H138      -49.6735  -22.1578    8.5571 H         1 UNK         0.1055 
    139 H139      -47.5031  -21.6915    9.6588 H         1 UNK         0.0806 
    140 H140      -47.6114  -23.1891   10.5758 H         1 UNK         0.0806 
    141 H141      -48.7642  -21.8926   10.8653 H         1 UNK         0.0806 
    142 H142      -47.4378  -24.0326    8.2870 H         1 UNK         0.3061 
    143 H143      -47.9451  -25.5282    5.7436 H         1 UNK         0.0734 
    144 H144      -47.7658  -22.8941    4.1975 H         1 UNK         0.0832 
    145 H145      -47.1917  -24.4546    3.6085 H         1 UNK         0.0832 
    146 H146      -48.9013  -24.2030    3.9131 H         1 UNK         0.0832 
    147 H147      -45.8902  -25.2355    6.4154 H         1 UNK         0.3156 
    148 H148      -43.5010  -23.3220    6.1542 H         1 UNK         0.0589 
    149 H149      -42.8858  -22.3313    8.3835 H         1 UNK         0.0808 
    150 H150      -44.5976  -22.1724    8.7762 H         1 UNK         0.0808 
    151 H151      -43.9082  -21.2601    7.4429 H         1 UNK         0.0808 
    152 H152      -43.2249  -25.2287    7.2261 H         1 UNK         0.3098 
    153 H153      -43.5100  -27.0162    8.3520 H         1 UNK         0.0720 
    154 H154      -42.6823  -26.0771   10.4637 H         1 UNK         0.0791 
    155 H155      -43.3704  -27.6617   10.7824 H         1 UNK         0.0791 
    156 H156      -44.2643  -26.2012   11.2074 H         1 UNK         0.0791 
    157 H157      -45.6941  -27.9724    9.8964 H         1 UNK         0.3028 
@<TRIPOS>BOND
     1    1    2 1    
     2    1   82 1    
     3    1   83 1    
     4    1   84 1    
     5    2    3 2    
     6    2    4 am   BACKBONE|DICT|INTERRES
     7    4    5 1    
     8    4   85 1    
     9    5    6 1    
    10    5   80 1    
    11    5   86 1    
    12    6    7 1    
    13    6   87 1    
    14    6   88 1    
    15    7    8 1    
    16    8    9 1    
    17    8   89 1    
    18    8   90 1    
    19    9   10 ar   
    20    9   14 ar   
    21   10   11 ar   
    22   10   91 1    
    23   11   12 ar   
    24   11   58 1    
    25   12   13 ar   
    26   12   92 1    
    27   13   14 ar   
    28   13   15 1    
    29   14   93 1    
    30   15   16 1    
    31   15   94 1    
    32   15   95 1    
    33   16   17 1    
    34   17   18 1    
    35   17   96 1    
    36   17   97 1    
    37   18   19 1    
    38   18   22 1    
    39   18   98 1    
    40   19   20 am   BACKBONE|DICT|INTERRES
    41   19   21 2    
    42   20   99 1    
    43   20  100 1    
    44   22   23 am   BACKBONE|DICT|INTERRES
    45   22  101 1    
    46   23   24 2    
    47   23   25 1    
    48   25   26 1    
    49   25   27 1    
    50   25  102 1    
    51   26  103 1    
    52   26  104 1    
    53   26  105 1    
    54   27   28 am   BACKBONE|DICT|INTERRES
    55   27  106 1    
    56   28   29 2    
    57   28   30 1    
    58   30   31 1    
    59   30   32 1    
    60   30  107 1    
    61   31  108 1    
    62   31  109 1    
    63   31  110 1    
    64   32   33 am   BACKBONE|DICT|INTERRES
    65   32  111 1    
    66   33   34 2    
    67   33   35 1    
    68   35   36 1    
    69   35   37 1    
    70   35  112 1    
    71   36  113 1    
    72   36  114 1    
    73   36  115 1    
    74   37   38 am   BACKBONE|DICT|INTERRES
    75   37  116 1    
    76   38   39 2    
    77   38   40 1    
    78   40   41 1    
    79   40   42 1    
    80   40  117 1    
    81   41  118 1    
    82   41  119 1    
    83   41  120 1    
    84   42   43 am   BACKBONE|DICT|INTERRES
    85   42  121 1    
    86   43   44 2    
    87   43   45 1    
    88   45   46 1    
    89   45   47 1    
    90   45  122 1    
    91   46  123 1    
    92   46  124 1    
    93   46  125 1    
    94   47   48 am   BACKBONE|DICT|INTERRES
    95   47  126 1    
    96   48   49 2    
    97   48   50 1    
    98   50   51 1    
    99   50   52 1    
   100   50  127 1    
   101   51  128 1    
   102   51  129 1    
   103   51  130 1    
   104   52   53 am   BACKBONE|DICT|INTERRES
   105   52  131 1    
   106   53   54 2    
   107   53   55 1    
   108   55   56 1    
   109   55   59 1    
   110   55  132 1    
   111   56   57 1    
   112   56  133 1    
   113   56  134 1    
   114   57   58 1    
   115   58  135 1    
   116   58  136 1    
   117   59   60 am   BACKBONE|DICT|INTERRES
   118   59  137 1    
   119   60   61 2    
   120   60   62 1    
   121   62   63 1    
   122   62   64 1    
   123   62  138 1    
   124   63  139 1    
   125   63  140 1    
   126   63  141 1    
   127   64   65 am   BACKBONE|DICT|INTERRES
   128   64  142 1    
   129   65   66 2    
   130   65   67 1    
   131   67   68 1    
   132   67   69 1    
   133   67  143 1    
   134   68  144 1    
   135   68  145 1    
   136   68  146 1    
   137   69   70 am   BACKBONE|DICT|INTERRES
   138   69  147 1    
   139   70   71 2    
   140   70   72 1    
   141   72   73 1    
   142   72   74 1    
   143   72  148 1    
   144   73  149 1    
   145   73  150 1    
   146   73  151 1    
   147   74   75 am   BACKBONE|DICT|INTERRES
   148   74  152 1    
   149   75   76 2    
   150   75   77 1    
   151   77   78 1    
   152   77   79 1    
   153   77  153 1    
   154   78  154 1    
   155   78  155 1    
   156   78  156 1    
   157   79   80 am   BACKBONE|DICT|INTERRES
   158   79  157 1    
   159   80   81 2    
@<TRIPOS>SUBSTRUCTURE
     1 UNK         1 GROUP             0       ****    0 ROOT    
