@<TRIPOS>MOLECULE
3R207
157   159    1
SMALL
USER_CHARGES


@<TRIPOS>ATOM
      1 CA        -46.6818  -31.1709    4.6640 C.3       0 UNK        -0.1975 
      2 C         -46.9705  -29.7287    5.0510 C.2       0 UNK         0.4852 
      3 O         -46.3039  -29.1975    5.9394 O.2       0 UNK        -0.5216 
      4 N         -47.9359  -29.0932    4.3653 N.am      1 UNK        -0.4461 
      5 CA        -48.4939  -27.7421    4.5774 C.3       1 UNK         0.0864 
      6 C6        -49.5889  -27.6952    5.6829 C.3       14 UNK        -0.0898 
      7 S7        -48.9950  -28.0099    7.3855 S.3       14 UNK        -0.2598 
      8 C8        -50.1612  -29.2886    7.9598 C.3       14 UNK         0.0286 
      9 C9        -51.4872  -28.7620    8.5142 C.ar      14 UNK        -0.0844 
     10 C10       -51.9785  -27.4777    8.2337 C.ar      14 UNK        -0.0881 
     11 C11       -53.1959  -27.0445    8.7654 C.ar      14 UNK        -0.0643 
     12 C12       -53.9281  -27.9042    9.5874 C.ar      14 UNK        -0.0930 
     13 C13       -53.4510  -29.1821    9.8839 C.ar      14 UNK        -0.0827 
     14 C14       -52.2381  -29.6074    9.3378 C.ar      14 UNK        -0.1249 
     15 C15       -54.2439  -30.0867   10.8108 C.3       14 UNK         0.0141 
     16 S16       -55.7137  -30.7636    9.9790 S.3       14 UNK        -0.2313 
     17 C17       -56.8892  -30.7438   11.3692 C.3       14 UNK        -0.0915 
     18 CA        -57.5554  -29.3397   11.5467 C.3       13 UNK         0.0968 
     19 C         -59.0566  -29.2971   11.1252 C.2       13 UNK         0.5732 
     20 N         -59.9048  -28.5128   11.7799 N.am      13 UNK        -0.7310 
     21 O         -59.4566  -29.9533   10.1662 O.2       13 UNK        -0.5035 
     22 N         -57.2467  -28.7379   12.8549 N.am      13 UNK        -0.4233 
     23 C         -57.6203  -29.2013   14.0527 C.2       13 UNK         0.4989 
     24 O         -58.2951  -30.2189   14.2189 O.2       13 UNK        -0.4996 
     25 CA        -57.1231  -28.3948   15.2668 C.3       12 UNK         0.0216 
     26 CB        -57.8109  -28.8168   16.5791 C.3       12 UNK        -0.1964 
     27 N         -55.6722  -28.5119   15.4324 N.am      12 UNK        -0.4276 
     28 C         -54.7523  -27.8657   14.7054 C.2       12 UNK         0.5020 
     29 O         -55.0252  -27.0994   13.7774 O.2       12 UNK        -0.5489 
     30 CA        -53.2806  -28.1342   15.0663 C.3       11 UNK         0.0294 
     31 CB        -52.5403  -28.7945   13.8910 C.3       11 UNK        -0.2019 
     32 N         -52.5806  -26.9094   15.4605 N.am      11 UNK        -0.4493 
     33 C         -52.8745  -26.1710   16.5425 C.2       11 UNK         0.4932 
     34 O         -53.7800  -26.4481   17.3316 O.2       11 UNK        -0.5029 
     35 CA        -51.9888  -24.9328   16.7965 C.3       10 UNK         0.0280 
     36 CB        -52.1521  -24.3483   18.2159 C.3       10 UNK        -0.1976 
     37 N         -50.5756  -25.1783   16.4886 N.am      10 UNK        -0.4242 
     38 C         -49.7647  -26.0936   17.0438 C.2       10 UNK         0.5072 
     39 O         -50.0813  -26.8063   17.9973 O.2       10 UNK        -0.5224 
     40 CA        -48.3677  -26.2676   16.4224 C.3       9 UNK         0.0343 
     41 CB        -48.2050  -27.6867   15.8474 C.3       9 UNK        -0.2003 
     42 N         -48.1071  -25.2971   15.3538 N.am      9 UNK        -0.4272 
     43 C         -47.2038  -24.3106   15.4237 C.2       9 UNK         0.4988 
     44 O         -46.4915  -24.0976   16.4056 O.2       9 UNK        -0.5108 
     45 CA        -47.0528  -23.4108   14.1874 C.3       8 UNK         0.0248 
     46 CB        -46.1110  -24.0595   13.1606 C.3       8 UNK        -0.2001 
     47 N         -48.3184  -23.0680   13.5354 N.am      8 UNK        -0.4140 
     48 C         -49.2420  -22.2401   14.0443 C.2       8 UNK         0.5028 
     49 O         -49.1876  -21.7652   15.1785 O.2       8 UNK        -0.5428 
     50 CA        -50.4201  -21.8714   13.1316 C.3       7 UNK         0.0264 
     51 CB        -49.9729  -20.8845   12.0394 C.3       7 UNK        -0.1988 
     52 N         -50.9841  -23.0650   12.5037 N.am      7 UNK        -0.4454 
     53 C         -52.1348  -23.6452   12.8694 C.2       7 UNK         0.5027 
     54 O         -52.8851  -23.1823   13.7291 O.2       7 UNK        -0.5083 
     55 CA        -52.5246  -24.9761   12.1872 C.3       6 UNK         0.0844 
     56 C56       -53.6263  -24.7588   11.1176 C.3       14 UNK        -0.0967 
     57 S57       -52.9847  -24.3481    9.4526 S.3       14 UNK        -0.2604 
     58 C58       -53.7323  -25.6587    8.4297 C.3       14 UNK         0.0134 
     59 N         -51.3797  -25.7406   11.6773 N.am      6 UNK        -0.4116 
     60 C         -50.3758  -26.2172   12.4217 C.2       5 UNK         0.5034 
     61 O         -50.3497  -26.1453   13.6499 O.2       5 UNK        -0.5045 
     62 CA        -49.1679  -26.8200   11.6846 C.3       5 UNK         0.0224 
     63 CB        -49.3192  -28.3425   11.5660 C.3       5 UNK        -0.1978 
     64 N         -48.8862  -26.2392   10.3629 N.am      5 UNK        -0.4737 
     65 C         -48.6473  -24.9403   10.1254 C.2       4 UNK         0.5027 
     66 O         -48.7803  -24.0623   10.9792 O.2       4 UNK        -0.5211 
     67 CA        -48.1550  -24.5701    8.7130 C.3       4 UNK         0.0297 
     68 CB        -47.7878  -23.0775    8.5854 C.3       4 UNK        -0.1993 
     69 N         -47.0386  -25.4097    8.2603 N.am      4 UNK        -0.4486 
     70 C         -45.8675  -25.6302    8.8820 C.2       3 UNK         0.4961 
     71 O         -45.5373  -25.1070    9.9458 O.2       3 UNK        -0.5105 
     72 CA        -44.8910  -26.6161    8.2134 C.3       3 UNK         0.0299 
     73 CB        -45.0601  -28.0179    8.8213 C.3       3 UNK        -0.1972 
     74 N         -45.0515  -26.6983    6.7598 N.am      3 UNK        -0.4305 
     75 C         -44.7041  -25.7266    5.9001 C.2       2 UNK         0.5006 
     76 O         -44.1179  -24.6970    6.2366 O.2       2 UNK        -0.5106 
     77 CA        -45.0853  -25.9136    4.4162 C.3       2 UNK         0.0296 
     78 CB        -43.8866  -26.4497    3.6168 C.3       2 UNK        -0.2002 
     79 N         -46.2355  -26.7985    4.2093 N.am      2 UNK        -0.4032 
     80 C         -47.4672  -26.5878    4.6963 C.2       1 UNK         0.5000 
     81 O         -47.7942  -25.5360    5.2503 O.2       1 UNK        -0.5238 
     82 H82       -45.6447  -31.2731    4.3460 H         1 UNK         0.0889 
     83 H83       -47.3223  -31.5137    3.8516 H         1 UNK         0.0889 
     84 H84       -46.8413  -31.8247    5.5209 H         1 UNK         0.0889 
     85 H85       -48.3948  -29.6095    3.6272 H         1 UNK         0.3028 
     86 H86       -49.0097  -27.5212    3.6415 H         1 UNK         0.0864 
     87 H87       -50.3704  -28.4150    5.4368 H         1 UNK         0.0720 
     88 H88       -50.0890  -26.7254    5.6734 H         1 UNK         0.0720 
     89 H89       -49.6541  -29.8558    8.7417 H         1 UNK         0.0814 
     90 H90       -50.3595  -29.9977    7.1552 H         1 UNK         0.0814 
     91 H91       -51.4272  -26.8009    7.5991 H         1 UNK         0.1469 
     92 H92       -54.8761  -27.5845    9.9968 H         1 UNK         0.1381 
     93 H93       -51.8708  -30.5993    9.5642 H         1 UNK         0.1206 
     94 H94       -53.6290  -30.9085   11.1807 H         1 UNK         0.0813 
     95 H95       -54.5409  -29.5074   11.6862 H         1 UNK         0.0813 
     96 H96       -57.6272  -31.5303   11.2021 H         1 UNK         0.0638 
     97 H97       -56.3534  -31.0553   12.2673 H         1 UNK         0.0638 
     98 H98       -57.0917  -28.6474   10.8436 H         1 UNK         0.0568 
     99 H99       -59.5916  -27.9563   12.5584 H         1 UNK         0.3450 
    100 H100      -60.8700  -28.4821   11.4919 H         1 UNK         0.3450 
    101 H101      -56.6447  -27.9205   12.8425 H         1 UNK         0.2987 
    102 H102      -57.3711  -27.3462   15.0873 H         1 UNK         0.0766 
    103 H103      -58.8950  -28.7249   16.4985 H         1 UNK         0.0798 
    104 H104      -57.4959  -28.1872   17.4116 H         1 UNK         0.0798 
    105 H105      -57.5901  -29.8528   16.8396 H         1 UNK         0.0798 
    106 H106      -55.3578  -29.1348   16.1628 H         1 UNK         0.3198 
    107 H107      -53.2394  -28.8185   15.9164 H         1 UNK         0.0843 
    108 H108      -52.5934  -28.1891   12.9854 H         1 UNK         0.0831 
    109 H109      -52.9750  -29.7668   13.6574 H         1 UNK         0.0831 
    110 H110      -51.4884  -28.9598   14.1245 H         1 UNK         0.0831 
    111 H111      -51.8117  -26.6127   14.8668 H         1 UNK         0.3133 
    112 H112      -52.3246  -24.1711   16.0938 H         1 UNK         0.0566 
    113 H113      -51.5244  -23.4685   18.3569 H         1 UNK         0.0814 
    114 H114      -51.8919  -25.0740   18.9870 H         1 UNK         0.0814 
    115 H115      -53.1832  -24.0412   18.3949 H         1 UNK         0.0814 
    116 H116      -50.2077  -24.6609   15.7040 H         1 UNK         0.3091 
    117 H117      -47.6465  -26.1492   17.2334 H         1 UNK         0.0702 
    118 H118      -47.2137  -27.8283   15.4167 H         1 UNK         0.0785 
    119 H119      -48.9411  -27.8988   15.0717 H         1 UNK         0.0785 
    120 H120      -48.3290  -28.4407   16.6259 H         1 UNK         0.0785 
    121 H121      -48.6684  -25.4036   14.5165 H         1 UNK         0.2998 
    122 H122      -46.5916  -22.4778   14.5187 H         1 UNK         0.0697 
    123 H123      -46.5198  -24.9879   12.7614 H         1 UNK         0.0825 
    124 H124      -45.1442  -24.2946   13.6076 H         1 UNK         0.0825 
    125 H125      -45.9238  -23.3943   12.3172 H         1 UNK         0.0825 
    126 H126      -48.4431  -23.4078   12.5817 H         1 UNK         0.3029 
    127 H127      -51.1709  -21.3698   13.7462 H         1 UNK         0.0897 
    128 H128      -49.2220  -21.3187   11.3777 H         1 UNK         0.0792 
    129 H129      -49.5401  -19.9850   12.4795 H         1 UNK         0.0792 
    130 H130      -50.8162  -20.5706   11.4240 H         1 UNK         0.0792 
    131 H131      -50.4028  -23.5188   11.8038 H         1 UNK         0.3086 
    132 H132      -52.9679  -25.5832   12.9776 H         1 UNK         0.0583 
    133 H133      -54.2372  -25.6576   11.0650 H         1 UNK         0.1020 
    134 H134      -54.3287  -23.9794   11.4208 H         1 UNK         0.1020 
    135 H135      -54.8172  -25.6291    8.5431 H         1 UNK         0.0694 
    136 H136      -53.5337  -25.4382    7.3797 H         1 UNK         0.0694 
    137 H137      -51.3265  -25.8329   10.6727 H         1 UNK         0.2989 
    138 H138      -48.2913  -26.6222   12.3040 H         1 UNK         0.1055 
    139 H139      -50.2146  -28.6133   11.0094 H         1 UNK         0.0806 
    140 H140      -48.4604  -28.7944   11.0693 H         1 UNK         0.0806 
    141 H141      -49.4015  -28.8027   12.5515 H         1 UNK         0.0806 
    142 H142      -48.7692  -26.8889    9.5958 H         1 UNK         0.3061 
    143 H143      -48.9861  -24.7676    8.0341 H         1 UNK         0.0734 
    144 H144      -46.9770  -22.8025    9.2609 H         1 UNK         0.0832 
    145 H145      -47.4772  -22.8325    7.5698 H         1 UNK         0.0832 
    146 H146      -48.6416  -22.4428    8.8262 H         1 UNK         0.0832 
    147 H147      -47.1944  -25.8770    7.3748 H         1 UNK         0.3156 
    148 H148      -43.8759  -26.2734    8.4250 H         1 UNK         0.0589 
    149 H149      -44.9075  -27.9968    9.9013 H         1 UNK         0.0808 
    150 H150      -46.0591  -28.4174    8.6407 H         1 UNK         0.0808 
    151 H151      -44.3394  -28.7215    8.4045 H         1 UNK         0.0808 
    152 H152      -45.5119  -27.5347    6.4032 H         1 UNK         0.3098 
    153 H153      -45.3503  -24.9303    4.0221 H         1 UNK         0.0720 
    154 H154      -43.0198  -25.7965    3.7280 H         1 UNK         0.0791 
    155 H155      -44.1120  -26.5068    2.5517 H         1 UNK         0.0791 
    156 H156      -43.5903  -27.4443    3.9530 H         1 UNK         0.0791 
    157 H157      -46.0478  -27.6950    3.7846 H         1 UNK         0.3028 
@<TRIPOS>BOND
     1    1    2 1    
     2    1   82 1    
     3    1   83 1    
     4    1   84 1    
     5    2    3 2    
     6    2    4 am   BACKBONE|DICT|INTERRES
     7    4    5 1    
     8    4   85 1    
     9    5    6 1    
    10    5   80 1    
    11    5   86 1    
    12    6    7 1    
    13    6   87 1    
    14    6   88 1    
    15    7    8 1    
    16    8    9 1    
    17    8   89 1    
    18    8   90 1    
    19    9   10 ar   
    20    9   14 ar   
    21   10   11 ar   
    22   10   91 1    
    23   11   12 ar   
    24   11   58 1    
    25   12   13 ar   
    26   12   92 1    
    27   13   14 ar   
    28   13   15 1    
    29   14   93 1    
    30   15   16 1    
    31   15   94 1    
    32   15   95 1    
    33   16   17 1    
    34   17   18 1    
    35   17   96 1    
    36   17   97 1    
    37   18   19 1    
    38   18   22 1    
    39   18   98 1    
    40   19   20 am   BACKBONE|DICT|INTERRES
    41   19   21 2    
    42   20   99 1    
    43   20  100 1    
    44   22   23 am   BACKBONE|DICT|INTERRES
    45   22  101 1    
    46   23   24 2    
    47   23   25 1    
    48   25   26 1    
    49   25   27 1    
    50   25  102 1    
    51   26  103 1    
    52   26  104 1    
    53   26  105 1    
    54   27   28 am   BACKBONE|DICT|INTERRES
    55   27  106 1    
    56   28   29 2    
    57   28   30 1    
    58   30   31 1    
    59   30   32 1    
    60   30  107 1    
    61   31  108 1    
    62   31  109 1    
    63   31  110 1    
    64   32   33 am   BACKBONE|DICT|INTERRES
    65   32  111 1    
    66   33   34 2    
    67   33   35 1    
    68   35   36 1    
    69   35   37 1    
    70   35  112 1    
    71   36  113 1    
    72   36  114 1    
    73   36  115 1    
    74   37   38 am   BACKBONE|DICT|INTERRES
    75   37  116 1    
    76   38   39 2    
    77   38   40 1    
    78   40   41 1    
    79   40   42 1    
    80   40  117 1    
    81   41  118 1    
    82   41  119 1    
    83   41  120 1    
    84   42   43 am   BACKBONE|DICT|INTERRES
    85   42  121 1    
    86   43   44 2    
    87   43   45 1    
    88   45   46 1    
    89   45   47 1    
    90   45  122 1    
    91   46  123 1    
    92   46  124 1    
    93   46  125 1    
    94   47   48 am   BACKBONE|DICT|INTERRES
    95   47  126 1    
    96   48   49 2    
    97   48   50 1    
    98   50   51 1    
    99   50   52 1    
   100   50  127 1    
   101   51  128 1    
   102   51  129 1    
   103   51  130 1    
   104   52   53 am   BACKBONE|DICT|INTERRES
   105   52  131 1    
   106   53   54 2    
   107   53   55 1    
   108   55   56 1    
   109   55   59 1    
   110   55  132 1    
   111   56   57 1    
   112   56  133 1    
   113   56  134 1    
   114   57   58 1    
   115   58  135 1    
   116   58  136 1    
   117   59   60 am   BACKBONE|DICT|INTERRES
   118   59  137 1    
   119   60   61 2    
   120   60   62 1    
   121   62   63 1    
   122   62   64 1    
   123   62  138 1    
   124   63  139 1    
   125   63  140 1    
   126   63  141 1    
   127   64   65 am   BACKBONE|DICT|INTERRES
   128   64  142 1    
   129   65   66 2    
   130   65   67 1    
   131   67   68 1    
   132   67   69 1    
   133   67  143 1    
   134   68  144 1    
   135   68  145 1    
   136   68  146 1    
   137   69   70 am   BACKBONE|DICT|INTERRES
   138   69  147 1    
   139   70   71 2    
   140   70   72 1    
   141   72   73 1    
   142   72   74 1    
   143   72  148 1    
   144   73  149 1    
   145   73  150 1    
   146   73  151 1    
   147   74   75 am   BACKBONE|DICT|INTERRES
   148   74  152 1    
   149   75   76 2    
   150   75   77 1    
   151   77   78 1    
   152   77   79 1    
   153   77  153 1    
   154   78  154 1    
   155   78  155 1    
   156   78  156 1    
   157   79   80 am   BACKBONE|DICT|INTERRES
   158   79  157 1    
   159   80   81 2    
@<TRIPOS>SUBSTRUCTURE
     1 UNK         1 GROUP             0       ****    0 ROOT    
