@<TRIPOS>MOLECULE
3R207
157   159    1
SMALL
USER_CHARGES


@<TRIPOS>ATOM
      1 CA        -45.0337  -31.6577    8.5578 C.3       0 UNK        -0.1975 
      2 C         -45.8697  -30.5480    7.9389 C.2       0 UNK         0.4852 
      3 O         -45.8678  -29.4294    8.4509 O.2       0 UNK        -0.5216 
      4 N         -46.5686  -30.8484    6.8350 N.am      1 UNK        -0.4461 
      5 CA        -47.4872  -29.9918    6.0631 C.3       1 UNK         0.0864 
      6 C6        -48.6823  -29.4197    6.8714 C.3       14 UNK        -0.0898 
      7 S7        -49.6126  -30.6409    7.8562 S.3       14 UNK        -0.2598 
      8 C8        -50.1862  -29.5977    9.2408 C.3       14 UNK         0.0286 
      9 C9        -51.4257  -28.7833    8.8830 C.ar      14 UNK        -0.0844 
     10 C10       -51.3382  -27.7059    7.9972 C.ar      14 UNK        -0.0881 
     11 C11       -52.4716  -26.9603    7.6592 C.ar      14 UNK        -0.0643 
     12 C12       -53.7001  -27.2888    8.2394 C.ar      14 UNK        -0.0930 
     13 C13       -53.8106  -28.3556    9.1378 C.ar      14 UNK        -0.0827 
     14 C14       -52.6649  -29.1034    9.4465 C.ar      14 UNK        -0.1249 
     15 C15       -55.1965  -28.6940    9.6941 C.3       14 UNK         0.0141 
     16 S16       -55.2222  -29.7428   11.1890 S.3       14 UNK        -0.2313 
     17 C17       -54.8613  -28.5421   12.5154 C.3       14 UNK        -0.0915 
     18 CA        -56.1203  -28.1162   13.3248 C.3       13 UNK         0.0968 
     19 C         -56.6453  -29.2253   14.2919 C.2       13 UNK         0.5732 
     20 N         -56.7683  -28.9900   15.5941 N.am      13 UNK        -0.7310 
     21 O         -56.9793  -30.3233   13.8553 O.2       13 UNK        -0.5035 
     22 N         -55.8845  -26.8294   13.9930 N.am      13 UNK        -0.4233 
     23 C         -56.8264  -25.9092   14.2410 C.2       13 UNK         0.4989 
     24 O         -57.9811  -25.9865   13.8179 O.2       13 UNK        -0.4996 
     25 CA        -56.4085  -24.6989   15.1059 C.3       12 UNK         0.0216 
     26 CB        -57.6065  -24.0264   15.8105 C.3       12 UNK        -0.1964 
     27 N         -55.3407  -25.0037   16.0711 N.am      12 UNK        -0.4276 
     28 C         -55.3937  -25.9162   17.0522 C.2       12 UNK         0.5020 
     29 O         -56.3754  -26.6212   17.2952 O.2       12 UNK        -0.5489 
     30 CA        -54.0987  -26.1356   17.8495 C.3       11 UNK         0.0294 
     31 CB        -54.3528  -26.0100   19.3612 C.3       11 UNK        -0.2019 
     32 N         -53.4913  -27.4401   17.5653 N.am      11 UNK        -0.4493 
     33 C         -53.1425  -27.8825   16.3507 C.2       11 UNK         0.4932 
     34 O         -53.3545  -27.2714   15.2973 O.2       11 UNK        -0.5029 
     35 CA        -52.3967  -29.2177   16.2893 C.3       10 UNK         0.0280 
     36 CB        -53.3376  -30.3955   15.9913 C.3       10 UNK        -0.1976 
     37 N         -51.4329  -29.0469   15.2161 N.am      10 UNK        -0.4242 
     38 C         -50.1661  -29.4631   15.2118 C.2       10 UNK         0.5072 
     39 O         -49.7090  -30.3217   15.9675 O.2       10 UNK        -0.5224 
     40 CA        -49.2420  -28.7258   14.2260 C.3       9 UNK         0.0343 
     41 CB        -49.3835  -29.3210   12.8156 C.3       9 UNK        -0.2003 
     42 N         -49.4988  -27.2769   14.1733 N.am      9 UNK        -0.4272 
     43 C         -49.4419  -26.4351   15.2211 C.2       9 UNK         0.4988 
     44 O         -49.1093  -26.7792   16.3556 O.2       9 UNK        -0.5108 
     45 CA        -49.8264  -24.9657   14.9874 C.3       8 UNK         0.0248 
     46 CB        -48.5905  -24.1483   14.5760 C.3       8 UNK        -0.2001 
     47 N         -50.8648  -24.8163   13.9656 N.am      8 UNK        -0.4140 
     48 C         -52.1180  -24.3899   14.1860 C.2       8 UNK         0.5028 
     49 O         -52.5666  -24.1172   15.3025 O.2       8 UNK        -0.5428 
     50 CA        -53.0647  -24.2563   12.9736 C.3       7 UNK         0.0264 
     51 CB        -53.7551  -22.8740   12.9345 C.3       7 UNK        -0.1988 
     52 N         -52.4633  -24.5886   11.6744 N.am      7 UNK        -0.4454 
     53 C         -51.5150  -23.9130   11.0081 C.2       7 UNK         0.5027 
     54 O         -51.0267  -22.8421   11.3725 O.2       7 UNK        -0.5083 
     55 CA        -50.9908  -24.5908    9.7311 C.3       6 UNK         0.0844 
     56 C56       -51.4857  -23.8543    8.4644 C.3       14 UNK        -0.0967 
     57 S57       -50.9816  -24.6947    6.9267 S.3       14 UNK        -0.2604 
     58 C58       -52.3847  -25.8248    6.6424 C.3       14 UNK         0.0134 
     59 N         -49.5348  -24.7414    9.7731 N.am      6 UNK        -0.4116 
     60 C         -48.8668  -25.4428   10.6999 C.2       5 UNK         0.5034 
     61 O         -49.4196  -26.0440   11.6244 O.2       5 UNK        -0.5045 
     62 CA        -47.3345  -25.4987   10.5928 C.3       5 UNK         0.0224 
     63 CB        -46.8769  -26.9070   10.1886 C.3       5 UNK        -0.1978 
     64 N         -46.7908  -24.5301    9.6374 N.am      5 UNK        -0.4737 
     65 C         -46.4646  -23.2678    9.9514 C.2       4 UNK         0.5027 
     66 O         -46.6004  -22.7943   11.0795 O.2       4 UNK        -0.5211 
     67 CA        -45.8694  -22.3804    8.8410 C.3       4 UNK         0.0297 
     68 CB        -44.3468  -22.2568    9.0165 C.3       4 UNK        -0.1993 
     69 N         -46.1529  -22.8608    7.4873 N.am      4 UNK        -0.4486 
     70 C         -47.3519  -22.8067    6.8921 C.2       3 UNK         0.4961 
     71 O         -48.3444  -22.2906    7.4050 O.2       3 UNK        -0.5105 
     72 CA        -47.4674  -23.4629    5.5019 C.3       3 UNK         0.0299 
     73 CB        -47.2747  -22.4124    4.3967 C.3       3 UNK        -0.1972 
     74 N         -46.5383  -24.5809    5.2798 N.am      3 UNK        -0.4305 
     75 C         -46.5129  -25.7061    6.0073 C.2       2 UNK         0.5006 
     76 O         -47.2361  -25.8999    6.9871 O.2       2 UNK        -0.5106 
     77 CA        -45.4632  -26.7599    5.6184 C.3       2 UNK         0.0296 
     78 CB        -44.1343  -26.4764    6.3379 C.3       2 UNK        -0.2002 
     79 N         -45.9355  -28.0856    6.0093 N.am      2 UNK        -0.4032 
     80 C         -46.7990  -28.8310    5.3112 C.2       1 UNK         0.5000 
     81 O         -47.0960  -28.6104    4.1353 O.2       1 UNK        -0.5238 
     82 H82       -45.1185  -32.5920    8.0031 H         1 UNK         0.0889 
     83 H83       -45.3572  -31.8407    9.5821 H         1 UNK         0.0889 
     84 H84       -43.9833  -31.3683    8.5784 H         1 UNK         0.0889 
     85 H85       -46.4870  -31.7873    6.4701 H         1 UNK         0.3028 
     86 H86       -47.9037  -30.6471    5.2963 H         1 UNK         0.0864 
     87 H87       -48.3337  -28.6292    7.5380 H         1 UNK         0.0720 
     88 H88       -49.3902  -28.9503    6.1858 H         1 UNK         0.0720 
     89 H89       -49.3881  -28.9325    9.5738 H         1 UNK         0.0814 
     90 H90       -50.3999  -30.2518   10.0871 H         1 UNK         0.0814 
     91 H91       -50.3854  -27.4367    7.5667 H         1 UNK         0.1469 
     92 H92       -54.5826  -26.7220    7.9749 H         1 UNK         0.1381 
     93 H93       -52.7293  -29.9458   10.1199 H         1 UNK         0.1206 
     94 H94       -55.7521  -29.2133    8.9123 H         1 UNK         0.0813 
     95 H95       -55.7495  -27.7768    9.9035 H         1 UNK         0.0813 
     96 H96       -54.0988  -28.9628   13.1707 H         1 UNK         0.0638 
     97 H97       -54.3966  -27.6681   12.0563 H         1 UNK         0.0638 
     98 H98       -56.9227  -27.9611   12.6013 H         1 UNK         0.0568 
     99 H99       -56.5578  -28.0846   16.0012 H         1 UNK         0.3450 
    100 H100      -57.1253  -29.7238   16.1837 H         1 UNK         0.3450 
    101 H101      -54.9764  -26.7407   14.4408 H         1 UNK         0.2987 
    102 H102      -55.9981  -23.9714   14.4084 H         1 UNK         0.0766 
    103 H103      -58.1241  -24.7166   16.4775 H         1 UNK         0.0798 
    104 H104      -57.2883  -23.1661   16.3993 H         1 UNK         0.0798 
    105 H105      -58.3375  -23.6667   15.0853 H         1 UNK         0.0798 
    106 H106      -54.4465  -24.5453   15.9061 H         1 UNK         0.3198 
    107 H107      -53.3752  -25.3684   17.5659 H         1 UNK         0.0843 
    108 H108      -54.8025  -25.0455   19.6010 H         1 UNK         0.0831 
    109 H109      -53.4252  -26.0832   19.9291 H         1 UNK         0.0831 
    110 H110      -55.0316  -26.7836   19.7228 H         1 UNK         0.0831 
    111 H111      -53.2992  -28.0263   18.3647 H         1 UNK         0.3133 
    112 H112      -51.8784  -29.3854   17.2361 H         1 UNK         0.0566 
    113 H113      -52.7872  -31.3351   15.9436 H         1 UNK         0.0814 
    114 H114      -54.0928  -30.4988   16.7714 H         1 UNK         0.0814 
    115 H115      -53.8621  -30.2708   15.0451 H         1 UNK         0.0814 
    116 H116      -51.6925  -28.3070   14.5745 H         1 UNK         0.3091 
    117 H117      -48.2132  -28.8682   14.5623 H         1 UNK         0.0702 
    118 H118      -48.6643  -28.8818   12.1269 H         1 UNK         0.0785 
    119 H119      -50.3809  -29.1554   12.4061 H         1 UNK         0.0785 
    120 H120      -49.2062  -30.3973   12.8241 H         1 UNK         0.0785 
    121 H121      -49.6774  -26.8889   13.2506 H         1 UNK         0.2998 
    122 H122      -50.1839  -24.5717   15.9412 H         1 UNK         0.0697 
    123 H123      -48.1679  -24.4949   13.6330 H         1 UNK         0.0825 
    124 H124      -47.8062  -24.2192   15.3308 H         1 UNK         0.0825 
    125 H125      -48.8358  -23.0923   14.4618 H         1 UNK         0.0825 
    126 H126      -50.5905  -25.0389   13.0161 H         1 UNK         0.3029 
    127 H127      -53.8410  -25.0043   13.1354 H         1 UNK         0.0897 
    128 H128      -54.5197  -22.8351   12.1588 H         1 UNK         0.0792 
    129 H129      -54.2411  -22.6413   13.8816 H         1 UNK         0.0792 
    130 H130      -53.0482  -22.0658   12.7492 H         1 UNK         0.0792 
    131 H131      -52.7665  -25.4694   11.2803 H         1 UNK         0.3086 
    132 H132      -51.3982  -25.6009    9.7168 H         1 UNK         0.0583 
    133 H133      -52.5728  -23.7539    8.4726 H         1 UNK         0.1020 
    134 H134      -51.0880  -22.8375    8.4381 H         1 UNK         0.1020 
    135 H135      -53.3084  -25.2443    6.6235 H         1 UNK         0.0694 
    136 H136      -52.2780  -26.2630    5.6494 H         1 UNK         0.0694 
    137 H137      -49.0134  -24.2670    9.0498 H         1 UNK         0.2989 
    138 H138      -46.9315  -25.2894   11.5860 H         1 UNK         0.1055 
    139 H139      -45.7961  -26.9559   10.0556 H         1 UNK         0.0806 
    140 H140      -47.3420  -27.2317    9.2581 H         1 UNK         0.0806 
    141 H141      -47.1374  -27.6379   10.9527 H         1 UNK         0.0806 
    142 H142      -46.7057  -24.8470    8.6767 H         1 UNK         0.3061 
    143 H143      -46.3078  -21.3858    8.9490 H         1 UNK         0.0734 
    144 H144      -44.0988  -21.8682   10.0054 H         1 UNK         0.0832 
    145 H145      -43.8480  -23.2213    8.9122 H         1 UNK         0.0832 
    146 H146      -43.9157  -21.5726    8.2855 H         1 UNK         0.0832 
    147 H147      -45.3926  -23.2984    6.9880 H         1 UNK         0.3156 
    148 H148      -48.4800  -23.8615    5.4164 H         1 UNK         0.0589 
    149 H149      -46.2670  -21.9951    4.4058 H         1 UNK         0.0808 
    150 H150      -47.4558  -22.8362    3.4087 H         1 UNK         0.0808 
    151 H151      -47.9720  -21.5826    4.5224 H         1 UNK         0.0808 
    152 H152      -45.9004  -24.4907    4.5014 H         1 UNK         0.3098 
    153 H153      -45.3017  -26.7320    4.5387 H         1 UNK         0.0720 
    154 H154      -43.3818  -27.2237    6.0856 H         1 UNK         0.0791 
    155 H155      -44.2546  -26.4778    7.4226 H         1 UNK         0.0791 
    156 H156      -43.7313  -25.5036    6.0536 H         1 UNK         0.0791 
    157 H157      -45.8081  -28.3451    6.9862 H         1 UNK         0.3028 
@<TRIPOS>BOND
     1    1    2 1    
     2    1   82 1    
     3    1   83 1    
     4    1   84 1    
     5    2    3 2    
     6    2    4 am   BACKBONE|DICT|INTERRES
     7    4    5 1    
     8    4   85 1    
     9    5    6 1    
    10    5   80 1    
    11    5   86 1    
    12    6    7 1    
    13    6   87 1    
    14    6   88 1    
    15    7    8 1    
    16    8    9 1    
    17    8   89 1    
    18    8   90 1    
    19    9   10 ar   
    20    9   14 ar   
    21   10   11 ar   
    22   10   91 1    
    23   11   12 ar   
    24   11   58 1    
    25   12   13 ar   
    26   12   92 1    
    27   13   14 ar   
    28   13   15 1    
    29   14   93 1    
    30   15   16 1    
    31   15   94 1    
    32   15   95 1    
    33   16   17 1    
    34   17   18 1    
    35   17   96 1    
    36   17   97 1    
    37   18   19 1    
    38   18   22 1    
    39   18   98 1    
    40   19   20 am   BACKBONE|DICT|INTERRES
    41   19   21 2    
    42   20   99 1    
    43   20  100 1    
    44   22   23 am   BACKBONE|DICT|INTERRES
    45   22  101 1    
    46   23   24 2    
    47   23   25 1    
    48   25   26 1    
    49   25   27 1    
    50   25  102 1    
    51   26  103 1    
    52   26  104 1    
    53   26  105 1    
    54   27   28 am   BACKBONE|DICT|INTERRES
    55   27  106 1    
    56   28   29 2    
    57   28   30 1    
    58   30   31 1    
    59   30   32 1    
    60   30  107 1    
    61   31  108 1    
    62   31  109 1    
    63   31  110 1    
    64   32   33 am   BACKBONE|DICT|INTERRES
    65   32  111 1    
    66   33   34 2    
    67   33   35 1    
    68   35   36 1    
    69   35   37 1    
    70   35  112 1    
    71   36  113 1    
    72   36  114 1    
    73   36  115 1    
    74   37   38 am   BACKBONE|DICT|INTERRES
    75   37  116 1    
    76   38   39 2    
    77   38   40 1    
    78   40   41 1    
    79   40   42 1    
    80   40  117 1    
    81   41  118 1    
    82   41  119 1    
    83   41  120 1    
    84   42   43 am   BACKBONE|DICT|INTERRES
    85   42  121 1    
    86   43   44 2    
    87   43   45 1    
    88   45   46 1    
    89   45   47 1    
    90   45  122 1    
    91   46  123 1    
    92   46  124 1    
    93   46  125 1    
    94   47   48 am   BACKBONE|DICT|INTERRES
    95   47  126 1    
    96   48   49 2    
    97   48   50 1    
    98   50   51 1    
    99   50   52 1    
   100   50  127 1    
   101   51  128 1    
   102   51  129 1    
   103   51  130 1    
   104   52   53 am   BACKBONE|DICT|INTERRES
   105   52  131 1    
   106   53   54 2    
   107   53   55 1    
   108   55   56 1    
   109   55   59 1    
   110   55  132 1    
   111   56   57 1    
   112   56  133 1    
   113   56  134 1    
   114   57   58 1    
   115   58  135 1    
   116   58  136 1    
   117   59   60 am   BACKBONE|DICT|INTERRES
   118   59  137 1    
   119   60   61 2    
   120   60   62 1    
   121   62   63 1    
   122   62   64 1    
   123   62  138 1    
   124   63  139 1    
   125   63  140 1    
   126   63  141 1    
   127   64   65 am   BACKBONE|DICT|INTERRES
   128   64  142 1    
   129   65   66 2    
   130   65   67 1    
   131   67   68 1    
   132   67   69 1    
   133   67  143 1    
   134   68  144 1    
   135   68  145 1    
   136   68  146 1    
   137   69   70 am   BACKBONE|DICT|INTERRES
   138   69  147 1    
   139   70   71 2    
   140   70   72 1    
   141   72   73 1    
   142   72   74 1    
   143   72  148 1    
   144   73  149 1    
   145   73  150 1    
   146   73  151 1    
   147   74   75 am   BACKBONE|DICT|INTERRES
   148   74  152 1    
   149   75   76 2    
   150   75   77 1    
   151   77   78 1    
   152   77   79 1    
   153   77  153 1    
   154   78  154 1    
   155   78  155 1    
   156   78  156 1    
   157   79   80 am   BACKBONE|DICT|INTERRES
   158   79  157 1    
   159   80   81 2    
@<TRIPOS>SUBSTRUCTURE
     1 UNK         1 GROUP             0       ****    0 ROOT    
