@<TRIPOS>MOLECULE
3R207
157   159    1
SMALL
USER_CHARGES


@<TRIPOS>ATOM
      1 CA        -45.9931  -26.9904   11.9358 C.3       0 UNK        -0.1975 
      2 C         -46.9932  -26.9537   10.7898 C.2       0 UNK         0.4852 
      3 O         -47.5476  -25.8918   10.5048 O.2       0 UNK        -0.5216 
      4 N         -47.2146  -28.1075   10.1441 N.am      1 UNK        -0.4461 
      5 CA        -48.0210  -28.3025    8.9281 C.3       1 UNK         0.0864 
      6 C6        -49.5206  -27.9211    9.0718 C.3       14 UNK        -0.0898 
      7 S7        -50.3343  -28.9887   10.3055 S.3       14 UNK        -0.2598 
      8 C8        -52.0883  -28.8253    9.8598 C.3       14 UNK         0.0286 
      9 C9        -52.6473  -27.4692   10.2574 C.ar      14 UNK        -0.0844 
     10 C10       -52.9193  -26.5036    9.2839 C.ar      14 UNK        -0.0881 
     11 C11       -53.4479  -25.2626    9.6496 C.ar      14 UNK        -0.0643 
     12 C12       -53.7252  -25.0006   10.9945 C.ar      14 UNK        -0.0930 
     13 C13       -53.4334  -25.9469   11.9782 C.ar      14 UNK        -0.0827 
     14 C14       -52.8967  -27.1811   11.6029 C.ar      14 UNK        -0.1249 
     15 C15       -53.6613  -25.6115   13.4458 C.3       14 UNK         0.0141 
     16 S16       -54.7972  -26.7663   14.2749 S.3       14 UNK        -0.2313 
     17 C17       -56.3569  -26.4670   13.3790 C.3       14 UNK        -0.0915 
     18 CA        -57.3587  -27.6445   13.5499 C.3       13 UNK         0.0968 
     19 C         -58.7671  -27.3328   12.9568 C.2       13 UNK         0.5732 
     20 N         -59.5115  -28.3189   12.4701 N.am      13 UNK        -0.7310 
     21 O         -59.2144  -26.1879   12.9697 O.2       13 UNK        -0.5035 
     22 N         -56.7880  -28.9444   13.1509 N.am      13 UNK        -0.4233 
     23 C         -56.4240  -29.3200   11.9199 C.2       13 UNK         0.4989 
     24 O         -56.5452  -28.6132   10.9180 O.2       13 UNK        -0.4996 
     25 CA        -55.8430  -30.7440   11.7939 C.3       12 UNK         0.0216 
     26 CB        -55.6453  -31.1705   10.3262 C.3       12 UNK        -0.1964 
     27 N         -54.5744  -30.9216   12.5083 N.am      12 UNK        -0.4276 
     28 C         -54.4072  -30.9887   13.8365 C.2       12 UNK         0.5020 
     29 O         -55.3345  -30.8568   14.6399 O.2       12 UNK        -0.5489 
     30 CA        -52.9856  -31.3118   14.3427 C.3       11 UNK         0.0294 
     31 CB        -51.8717  -31.0190   13.3150 C.3       11 UNK        -0.2019 
     32 N         -52.6841  -30.6081   15.5925 N.am      11 UNK        -0.4493 
     33 C         -52.9186  -31.0973   16.8203 C.2       11 UNK         0.4932 
     34 O         -53.4274  -32.2013   17.0235 O.2       11 UNK        -0.5029 
     35 CA        -52.4821  -30.2628   18.0429 C.3       10 UNK         0.0280 
     36 CB        -51.3518  -30.9781   18.8038 C.3       10 UNK        -0.1976 
     37 N         -52.0287  -28.9135   17.7041 N.am      10 UNK        -0.4242 
     38 C         -52.8217  -27.8434   17.5641 C.2       10 UNK         0.5072 
     39 O         -54.0336  -27.8592   17.7826 O.2       10 UNK        -0.5224 
     40 CA        -52.1550  -26.5256   17.1115 C.3       9 UNK         0.0343 
     41 CB        -51.9682  -25.5821   18.3108 C.3       9 UNK        -0.2003 
     42 N         -50.8663  -26.6698   16.4173 N.am      9 UNK        -0.4272 
     43 C         -50.6446  -27.3964   15.3142 C.2       9 UNK         0.4988 
     44 O         -51.5085  -28.0746   14.7610 O.2       9 UNK        -0.5108 
     45 CA        -49.2165  -27.3670   14.7502 C.3       8 UNK         0.0248 
     46 CB        -48.9212  -28.5885   13.8633 C.3       8 UNK        -0.2001 
     47 N         -48.9843  -26.1392   13.9879 N.am      8 UNK        -0.4140 
     48 C         -48.6606  -24.9609   14.5381 C.2       8 UNK         0.5028 
     49 O         -48.5517  -24.7922   15.7542 O.2       8 UNK        -0.5428 
     50 CA        -48.3949  -23.7738   13.5984 C.3       7 UNK         0.0264 
     51 CB        -46.8882  -23.4779   13.5107 C.3       7 UNK        -0.1988 
     52 N         -48.9106  -23.9756   12.2423 N.am      7 UNK        -0.4454 
     53 C         -50.0782  -23.4894   11.7979 C.2       7 UNK         0.5027 
     54 O         -50.8930  -22.9151   12.5232 O.2       7 UNK        -0.5083 
     55 CA        -50.3606  -23.6568   10.2864 C.3       6 UNK         0.0844 
     56 C56       -51.5216  -22.7599    9.7651 C.3       14 UNK        -0.0967 
     57 S57       -52.1312  -23.3404    8.1422 S.3       14 UNK        -0.2604 
     58 C58       -53.6816  -24.1856    8.6005 C.3       14 UNK         0.0134 
     59 N         -49.1445  -23.5086    9.4765 N.am      6 UNK        -0.4116 
     60 C         -48.3754  -22.4128    9.3789 C.2       5 UNK         0.5034 
     61 O         -48.5500  -21.3786   10.0248 O.2       5 UNK        -0.5045 
     62 CA        -47.2237  -22.4686    8.3618 C.3       5 UNK         0.0224 
     63 CB        -45.9401  -22.9973    9.0215 C.3       5 UNK        -0.1978 
     64 N         -47.5416  -23.2721    7.1763 N.am      5 UNK        -0.4737 
     65 C         -48.4912  -22.9546    6.2802 C.2       4 UNK         0.5027 
     66 O         -49.1584  -21.9205    6.3371 O.2       4 UNK        -0.5211 
     67 CA        -48.7235  -23.9550    5.1292 C.3       4 UNK         0.0297 
     68 CB        -49.5396  -23.3606    3.9614 C.3       4 UNK        -0.1993 
     69 N         -47.4762  -24.5582    4.6501 N.am      4 UNK        -0.4486 
     70 C         -46.4069  -23.9225    4.1435 C.2       3 UNK         0.4961 
     71 O         -46.3873  -22.7206    3.8737 O.2       3 UNK        -0.5105 
     72 CA        -45.1365  -24.7691    3.9082 C.3       3 UNK         0.0299 
     73 CB        -43.8466  -23.9631    4.1728 C.3       3 UNK        -0.1972 
     74 N         -45.1061  -26.0391    4.6507 N.am      3 UNK        -0.4305 
     75 C         -45.1658  -26.2064    5.9807 C.2       2 UNK         0.5006 
     76 O         -45.2553  -25.2878    6.7971 O.2       2 UNK        -0.5106 
     77 CA        -45.1215  -27.6608    6.4699 C.3       2 UNK         0.0296 
     78 CB        -43.6820  -28.0495    6.8449 C.3       2 UNK        -0.2002 
     79 N         -46.0003  -27.9289    7.6111 N.am      2 UNK        -0.4032 
     80 C         -47.3252  -27.7167    7.6783 C.2       1 UNK         0.5000 
     81 O         -47.9804  -27.1515    6.7982 O.2       1 UNK        -0.5238 
     82 H82       -46.4723  -26.7116   12.8721 H         1 UNK         0.0889 
     83 H83       -45.1848  -26.2851   11.7447 H         1 UNK         0.0889 
     84 H84       -45.5536  -27.9794   12.0638 H         1 UNK         0.0889 
     85 H85       -46.7567  -28.9427   10.4817 H         1 UNK         0.3028 
     86 H86       -47.9996  -29.3787    8.7473 H         1 UNK         0.0864 
     87 H87       -50.0421  -28.0507    8.1220 H         1 UNK         0.0720 
     88 H88       -49.6487  -26.8754    9.3519 H         1 UNK         0.0720 
     89 H89       -52.6519  -29.6049   10.3722 H         1 UNK         0.0814 
     90 H90       -52.2177  -29.0088    8.7921 H         1 UNK         0.0814 
     91 H91       -52.7059  -26.7080    8.2438 H         1 UNK         0.1469 
     92 H92       -54.1353  -24.0420   11.2803 H         1 UNK         0.1381 
     93 H93       -52.6719  -27.9146   12.3636 H         1 UNK         0.1206 
     94 H94       -52.6992  -25.6318   13.9576 H         1 UNK         0.0813 
     95 H95       -54.0456  -24.5971   13.5621 H         1 UNK         0.0813 
     96 H96       -56.7794  -25.5367   13.7618 H         1 UNK         0.0638 
     97 H97       -56.1486  -26.2992   12.3217 H         1 UNK         0.0638 
     98 H98       -57.5446  -27.7423   14.6198 H         1 UNK         0.0568 
     99 H99       -60.4255  -28.1109   12.1002 H         1 UNK         0.3450 
    100 H100      -59.1662  -29.2648   12.4651 H         1 UNK         0.3450 
    101 H101      -56.5703  -29.5861   13.9087 H         1 UNK         0.2987 
    102 H102      -56.5743  -31.4244   12.2355 H         1 UNK         0.0766 
    103 H103      -56.5826  -31.1050    9.7719 H         1 UNK         0.0798 
    104 H104      -55.3017  -32.2025   10.2532 H         1 UNK         0.0798 
    105 H105      -54.9211  -30.5364    9.8135 H         1 UNK         0.0798 
    106 H106      -53.7532  -31.0243   11.9318 H         1 UNK         0.3198 
    107 H107      -52.9680  -32.3876   14.5295 H         1 UNK         0.0843 
    108 H108      -51.8830  -29.9816   12.9829 H         1 UNK         0.0831 
    109 H109      -51.9579  -31.6539   12.4326 H         1 UNK         0.0831 
    110 H110      -50.8872  -31.2136   13.7402 H         1 UNK         0.0831 
    111 H111      -52.3137  -29.6665   15.4889 H         1 UNK         0.3133 
    112 H112      -53.3436  -30.1921   18.7102 H         1 UNK         0.0566 
    113 H113      -51.0671  -30.4286   19.7014 H         1 UNK         0.0814 
    114 H114      -50.4613  -31.0986   18.1856 H         1 UNK         0.0814 
    115 H115      -51.6629  -31.9738   19.1231 H         1 UNK         0.0814 
    116 H116      -51.0451  -28.8008   17.5081 H         1 UNK         0.3091 
    117 H117      -52.8429  -26.0474   16.4134 H         1 UNK         0.0702 
    118 H118      -51.2608  -25.9873   19.0354 H         1 UNK         0.0785 
    119 H119      -52.9128  -25.4197   18.8322 H         1 UNK         0.0785 
    120 H120      -51.6038  -24.6045   17.9944 H         1 UNK         0.0785 
    121 H121      -50.0999  -26.1030   16.7607 H         1 UNK         0.2998 
    122 H122      -48.5227  -27.4049   15.5930 H         1 UNK         0.0697 
    123 H123      -47.8839  -28.6064   13.5327 H         1 UNK         0.0825 
    124 H124      -49.5582  -28.6033   12.9812 H         1 UNK         0.0825 
    125 H125      -49.1002  -29.5167   14.4072 H         1 UNK         0.0825 
    126 H126      -49.1167  -26.1873   12.9882 H         1 UNK         0.3029 
    127 H127      -48.8747  -22.9021   14.0491 H         1 UNK         0.0897 
    128 H128      -46.3379  -24.2941   13.0441 H         1 UNK         0.0792 
    129 H129      -46.4606  -23.3187   14.5017 H         1 UNK         0.0792 
    130 H130      -46.6988  -22.5752   12.9292 H         1 UNK         0.0792 
    131 H131      -48.3162  -24.4768   11.5847 H         1 UNK         0.3086 
    132 H132      -50.6652  -24.6986   10.1797 H         1 UNK         0.0583 
    133 H133      -52.3561  -22.7247   10.4641 H         1 UNK         0.1020 
    134 H134      -51.1959  -21.7237    9.6654 H         1 UNK         0.1020 
    135 H135      -54.4004  -23.4474    8.9598 H         1 UNK         0.0694 
    136 H136      -54.1215  -24.6314    7.7073 H         1 UNK         0.0694 
    137 H137      -48.8718  -24.3203    8.9411 H         1 UNK         0.2989 
    138 H138      -47.0381  -21.4450    8.0287 H         1 UNK         0.1055 
    139 H139      -46.0359  -24.0437    9.3120 H         1 UNK         0.0806 
    140 H140      -45.6964  -22.4286    9.9200 H         1 UNK         0.0806 
    141 H141      -45.0881  -22.9178    8.3460 H         1 UNK         0.0806 
    142 H142      -46.9814  -24.1063    7.0291 H         1 UNK         0.3061 
    143 H143      -49.3093  -24.7702    5.5572 H         1 UNK         0.0734 
    144 H144      -50.5235  -23.0349    4.3013 H         1 UNK         0.0832 
    145 H145      -49.0462  -22.4939    3.5208 H         1 UNK         0.0832 
    146 H146      -49.6976  -24.0955    3.1722 H         1 UNK         0.0832 
    147 H147      -47.3750  -25.5440    4.8541 H         1 UNK         0.3156 
    148 H148      -45.1474  -25.0368    2.8508 H         1 UNK         0.0589 
    149 H149      -43.8019  -23.5992    5.2000 H         1 UNK         0.0808 
    150 H150      -42.9568  -24.5658    3.9914 H         1 UNK         0.0808 
    151 H151      -43.7841  -23.0932    3.5178 H         1 UNK         0.0808 
    152 H152      -45.0422  -26.8679    4.0745 H         1 UNK         0.3098 
    153 H153      -45.4538  -28.3099    5.6572 H         1 UNK         0.0720 
    154 H154      -43.3121  -27.4575    7.6834 H         1 UNK         0.0791 
    155 H155      -43.0009  -27.8881    6.0080 H         1 UNK         0.0791 
    156 H156      -43.6106  -29.1025    7.1183 H         1 UNK         0.0791 
    157 H157      -45.5613  -28.3645    8.4078 H         1 UNK         0.3028 
@<TRIPOS>BOND
     1    1    2 1    
     2    1   82 1    
     3    1   83 1    
     4    1   84 1    
     5    2    3 2    
     6    2    4 am   BACKBONE|DICT|INTERRES
     7    4    5 1    
     8    4   85 1    
     9    5    6 1    
    10    5   80 1    
    11    5   86 1    
    12    6    7 1    
    13    6   87 1    
    14    6   88 1    
    15    7    8 1    
    16    8    9 1    
    17    8   89 1    
    18    8   90 1    
    19    9   10 ar   
    20    9   14 ar   
    21   10   11 ar   
    22   10   91 1    
    23   11   12 ar   
    24   11   58 1    
    25   12   13 ar   
    26   12   92 1    
    27   13   14 ar   
    28   13   15 1    
    29   14   93 1    
    30   15   16 1    
    31   15   94 1    
    32   15   95 1    
    33   16   17 1    
    34   17   18 1    
    35   17   96 1    
    36   17   97 1    
    37   18   19 1    
    38   18   22 1    
    39   18   98 1    
    40   19   20 am   BACKBONE|DICT|INTERRES
    41   19   21 2    
    42   20   99 1    
    43   20  100 1    
    44   22   23 am   BACKBONE|DICT|INTERRES
    45   22  101 1    
    46   23   24 2    
    47   23   25 1    
    48   25   26 1    
    49   25   27 1    
    50   25  102 1    
    51   26  103 1    
    52   26  104 1    
    53   26  105 1    
    54   27   28 am   BACKBONE|DICT|INTERRES
    55   27  106 1    
    56   28   29 2    
    57   28   30 1    
    58   30   31 1    
    59   30   32 1    
    60   30  107 1    
    61   31  108 1    
    62   31  109 1    
    63   31  110 1    
    64   32   33 am   BACKBONE|DICT|INTERRES
    65   32  111 1    
    66   33   34 2    
    67   33   35 1    
    68   35   36 1    
    69   35   37 1    
    70   35  112 1    
    71   36  113 1    
    72   36  114 1    
    73   36  115 1    
    74   37   38 am   BACKBONE|DICT|INTERRES
    75   37  116 1    
    76   38   39 2    
    77   38   40 1    
    78   40   41 1    
    79   40   42 1    
    80   40  117 1    
    81   41  118 1    
    82   41  119 1    
    83   41  120 1    
    84   42   43 am   BACKBONE|DICT|INTERRES
    85   42  121 1    
    86   43   44 2    
    87   43   45 1    
    88   45   46 1    
    89   45   47 1    
    90   45  122 1    
    91   46  123 1    
    92   46  124 1    
    93   46  125 1    
    94   47   48 am   BACKBONE|DICT|INTERRES
    95   47  126 1    
    96   48   49 2    
    97   48   50 1    
    98   50   51 1    
    99   50   52 1    
   100   50  127 1    
   101   51  128 1    
   102   51  129 1    
   103   51  130 1    
   104   52   53 am   BACKBONE|DICT|INTERRES
   105   52  131 1    
   106   53   54 2    
   107   53   55 1    
   108   55   56 1    
   109   55   59 1    
   110   55  132 1    
   111   56   57 1    
   112   56  133 1    
   113   56  134 1    
   114   57   58 1    
   115   58  135 1    
   116   58  136 1    
   117   59   60 am   BACKBONE|DICT|INTERRES
   118   59  137 1    
   119   60   61 2    
   120   60   62 1    
   121   62   63 1    
   122   62   64 1    
   123   62  138 1    
   124   63  139 1    
   125   63  140 1    
   126   63  141 1    
   127   64   65 am   BACKBONE|DICT|INTERRES
   128   64  142 1    
   129   65   66 2    
   130   65   67 1    
   131   67   68 1    
   132   67   69 1    
   133   67  143 1    
   134   68  144 1    
   135   68  145 1    
   136   68  146 1    
   137   69   70 am   BACKBONE|DICT|INTERRES
   138   69  147 1    
   139   70   71 2    
   140   70   72 1    
   141   72   73 1    
   142   72   74 1    
   143   72  148 1    
   144   73  149 1    
   145   73  150 1    
   146   73  151 1    
   147   74   75 am   BACKBONE|DICT|INTERRES
   148   74  152 1    
   149   75   76 2    
   150   75   77 1    
   151   77   78 1    
   152   77   79 1    
   153   77  153 1    
   154   78  154 1    
   155   78  155 1    
   156   78  156 1    
   157   79   80 am   BACKBONE|DICT|INTERRES
   158   79  157 1    
   159   80   81 2    
@<TRIPOS>SUBSTRUCTURE
     1 UNK         1 GROUP             0       ****    0 ROOT    
