@<TRIPOS>MOLECULE
3R207
157   159    1
SMALL
USER_CHARGES


@<TRIPOS>ATOM
      1 CA        -46.4600  -31.8045    8.3633 C.3       0 UNK        -0.1975 
      2 C         -47.6206  -31.0437    7.7399 C.2       0 UNK         0.4852 
      3 O         -48.0525  -31.3808    6.6373 O.2       0 UNK        -0.5216 
      4 N         -48.1240  -30.0146    8.4348 N.am      1 UNK        -0.4461 
      5 CA        -49.2655  -29.1888    8.0129 C.3       1 UNK         0.0864 
      6 C6        -49.8847  -28.4098    9.1984 C.3       14 UNK        -0.0898 
      7 S7        -50.3181  -29.4510   10.6350 S.3       14 UNK        -0.2598 
      8 C8        -52.0393  -29.9406   10.2602 C.3       14 UNK         0.0286 
      9 C9        -52.9966  -28.7698   10.0541 C.ar      14 UNK        -0.0844 
     10 C10       -52.9273  -27.6276   10.8556 C.ar      14 UNK        -0.0881 
     11 C11       -53.7855  -26.5490   10.6353 C.ar      14 UNK        -0.0643 
     12 C12       -54.7631  -26.6370    9.6388 C.ar      14 UNK        -0.0930 
     13 C13       -54.8710  -27.7884    8.8518 C.ar      14 UNK        -0.0827 
     14 C14       -53.9709  -28.8410    9.0555 C.ar      14 UNK        -0.1249 
     15 C15       -55.9194  -27.8677    7.7462 C.3       14 UNK         0.0141 
     16 S16       -56.8002  -29.4661    7.7026 S.3       14 UNK        -0.2313 
     17 C17       -58.1985  -29.2137    8.8523 C.3       14 UNK        -0.0915 
     18 CA        -57.9846  -29.6824   10.3199 C.3       13 UNK         0.0968 
     19 C         -57.4506  -31.1399   10.4572 C.2       13 UNK         0.5732 
     20 N         -56.3446  -31.3910   11.1490 N.am      13 UNK        -0.7310 
     21 O         -58.0699  -32.0678    9.9412 O.2       13 UNK        -0.5035 
     22 N         -57.2445  -28.6810   11.0958 N.am      13 UNK        -0.4233 
     23 C         -57.4114  -28.4625   12.4056 C.2       13 UNK         0.4989 
     24 O         -58.2292  -29.0537   13.1143 O.2       13 UNK        -0.4996 
     25 CA        -56.5111  -27.3839   13.0277 C.3       12 UNK         0.0216 
     26 CB        -57.3451  -26.2955   13.7238 C.3       12 UNK        -0.1964 
     27 N         -55.5223  -27.9096   13.9712 N.am      12 UNK        -0.4276 
     28 C         -54.6751  -28.9283   13.7732 C.2       12 UNK         0.5020 
     29 O         -54.6772  -29.6437   12.7703 O.2       12 UNK        -0.5489 
     30 CA        -53.6230  -29.1574   14.8759 C.3       11 UNK         0.0294 
     31 CB        -52.6229  -30.2719   14.5126 C.3       11 UNK        -0.2019 
     32 N         -52.8663  -27.9387   15.1786 N.am      11 UNK        -0.4493 
     33 C         -53.2712  -26.9221   15.9529 C.2       11 UNK         0.4932 
     34 O         -54.3947  -26.8722   16.4566 O.2       11 UNK        -0.5029 
     35 CA        -52.2813  -25.7566   16.1732 C.3       10 UNK         0.0280 
     36 CB        -52.3858  -25.1521   17.5890 C.3       10 UNK        -0.1976 
     37 N         -50.8877  -26.0837   15.8347 N.am      10 UNK        -0.4242 
     38 C         -50.1007  -26.9996   16.4224 C.2       10 UNK         0.5072 
     39 O         -50.4244  -27.6570   17.4120 O.2       10 UNK        -0.5224 
     40 CA        -48.7427  -27.2783   15.7622 C.3       9 UNK         0.0343 
     41 CB        -48.9072  -28.3244   14.6459 C.3       9 UNK        -0.2003 
     42 N         -48.0944  -26.0804   15.2233 N.am      9 UNK        -0.4272 
     43 C         -47.4541  -25.1733   15.9759 C.2       9 UNK         0.4988 
     44 O         -47.3942  -25.2237   17.2052 O.2       9 UNK        -0.5108 
     45 CA        -46.7328  -24.0311   15.2381 C.3       8 UNK         0.0248 
     46 CB        -45.4610  -24.5447   14.5438 C.3       8 UNK        -0.2001 
     47 N         -47.5876  -23.3509   14.2653 N.am      8 UNK        -0.4140 
     48 C         -48.6357  -22.5798   14.5886 C.2       8 UNK         0.5028 
     49 O         -48.9631  -22.3108   15.7450 O.2       8 UNK        -0.5428 
     50 CA        -49.4741  -22.0243   13.4245 C.3       7 UNK         0.0264 
     51 CB        -48.8810  -20.7061   12.9011 C.3       7 UNK        -0.1988 
     52 N         -49.6156  -22.9732   12.3178 N.am      7 UNK        -0.4454 
     53 C         -50.2486  -24.1517   12.4105 C.2       7 UNK         0.5027 
     54 O         -50.7795  -24.5669   13.4407 O.2       7 UNK        -0.5083 
     55 CA        -50.2331  -25.0493   11.1578 C.3       6 UNK         0.0844 
     56 C56       -51.2495  -24.6310   10.0547 C.3       14 UNK        -0.0967 
     57 S57       -52.8609  -23.9273   10.5755 S.3       14 UNK        -0.2604 
     58 C58       -53.6522  -25.2939   11.4828 C.3       14 UNK         0.0134 
     59 N         -48.8686  -25.1729   10.6317 N.am      6 UNK        -0.4116 
     60 C         -47.8519  -25.7517   11.2948 C.2       5 UNK         0.5034 
     61 O         -47.9727  -26.2915   12.3920 O.2       5 UNK        -0.5045 
     62 CA        -46.4499  -25.6851   10.6639 C.3       5 UNK         0.0224 
     63 CB        -46.1738  -26.9470    9.8349 C.3       5 UNK        -0.1978 
     64 N         -46.2407  -24.4902    9.8437 N.am      5 UNK        -0.4737 
     65 C         -46.3209  -23.2355   10.3133 C.2       4 UNK         0.5027 
     66 O         -46.4837  -22.9706   11.5053 O.2       4 UNK        -0.5211 
     67 CA        -46.2703  -22.0814    9.2956 C.3       4 UNK         0.0297 
     68 CB        -44.8944  -21.3986    9.3346 C.3       4 UNK        -0.1993 
     69 N         -46.5819  -22.4596    7.9120 N.am      4 UNK        -0.4486 
     70 C         -47.7129  -23.0364    7.4786 C.2       3 UNK         0.4961 
     71 O         -48.6442  -23.3552    8.2189 O.2       3 UNK        -0.5105 
     72 CA        -47.8141  -23.3432    5.9704 C.3       3 UNK         0.0299 
     73 CB        -46.7184  -22.6633    5.1171 C.3       3 UNK        -0.1972 
     74 N         -47.8439  -24.7833    5.6823 N.am      3 UNK        -0.4305 
     75 C         -46.9720  -25.7125    6.1006 C.2       2 UNK         0.5006 
     76 O         -46.0514  -25.4974    6.8928 O.2       2 UNK        -0.5106 
     77 CA        -47.1456  -27.1230    5.5178 C.3       2 UNK         0.0296 
     78 CB        -45.8146  -27.6611    4.9636 C.3       2 UNK        -0.2002 
     79 N         -47.6392  -28.0383    6.5424 N.am      2 UNK        -0.4032 
     80 C         -48.9300  -28.2121    6.8593 C.2       1 UNK         0.5000 
     81 O         -49.8484  -27.6255    6.2836 O.2       1 UNK        -0.5238 
     82 H82       -45.5899  -31.7649    7.7084 H         1 UNK         0.0889 
     83 H83       -46.7316  -32.8501    8.5064 H         1 UNK         0.0889 
     84 H84       -46.1749  -31.3931    9.3315 H         1 UNK         0.0889 
     85 H85       -47.7586  -29.8106    9.3542 H         1 UNK         0.3028 
     86 H86       -50.0334  -29.8634    7.6278 H         1 UNK         0.0864 
     87 H87       -50.7672  -27.8572    8.8730 H         1 UNK         0.0720 
     88 H88       -49.1818  -27.6587    9.5528 H         1 UNK         0.0720 
     89 H89       -52.4173  -30.5524   11.0804 H         1 UNK         0.0814 
     90 H90       -52.0268  -30.5815    9.3774 H         1 UNK         0.0814 
     91 H91       -52.1933  -27.5772   11.6461 H         1 UNK         0.1469 
     92 H92       -55.4279  -25.8004    9.4708 H         1 UNK         0.1381 
     93 H93       -54.0323  -29.7240    8.4345 H         1 UNK         0.1206 
     94 H94       -56.6412  -27.0535    7.8250 H         1 UNK         0.0813 
     95 H95       -55.4113  -27.7316    6.7907 H         1 UNK         0.0813 
     96 H96       -59.0429  -29.7618    8.4311 H         1 UNK         0.0638 
     97 H97       -58.5037  -28.1665    8.8293 H         1 UNK         0.0638 
     98 H98       -58.9856  -29.7262   10.7535 H         1 UNK         0.0568 
     99 H99       -55.8235  -30.6465   11.6066 H         1 UNK         0.3450 
    100 H100      -56.0239  -32.3417   11.2288 H         1 UNK         0.3450 
    101 H101      -56.4904  -28.2188   10.6067 H         1 UNK         0.2987 
    102 H102      -55.9580  -26.9037   12.2240 H         1 UNK         0.0766 
    103 H103      -58.0868  -25.8757   13.0429 H         1 UNK         0.0798 
    104 H104      -56.7180  -25.4718   14.0660 H         1 UNK         0.0798 
    105 H105      -57.8816  -26.6902   14.5878 H         1 UNK         0.0798 
    106 H106      -55.4241  -27.4106   14.8502 H         1 UNK         0.3198 
    107 H107      -54.1610  -29.4696   15.7736 H         1 UNK         0.0843 
    108 H108      -52.0518  -30.0252   13.6164 H         1 UNK         0.0831 
    109 H109      -53.1394  -31.2133   14.3202 H         1 UNK         0.0831 
    110 H110      -51.9164  -30.4521   15.3230 H         1 UNK         0.0831 
    111 H111      -51.9453  -27.8743   14.7729 H         1 UNK         0.3133 
    112 H112      -52.5807  -24.9805   15.4678 H         1 UNK         0.0566 
    113 H113      -52.1797  -25.8912   18.3635 H         1 UNK         0.0814 
    114 H114      -53.3868  -24.7608   17.7746 H         1 UNK         0.0814 
    115 H115      -51.6874  -24.3252   17.7185 H         1 UNK         0.0814 
    116 H116      -50.5387  -25.5983   15.0102 H         1 UNK         0.3091 
    117 H117      -48.0877  -27.7066   16.5242 H         1 UNK         0.0702 
    118 H118      -47.9450  -28.5886   14.2066 H         1 UNK         0.0785 
    119 H119      -49.5502  -27.9645   13.8414 H         1 UNK         0.0785 
    120 H120      -49.3498  -29.2439   15.0316 H         1 UNK         0.0785 
    121 H121      -48.0741  -25.9952   14.2088 H         1 UNK         0.2998 
    122 H122      -46.4294  -23.2930   15.9838 H         1 UNK         0.0697 
    123 H123      -44.9315  -23.7386   14.0352 H         1 UNK         0.0825 
    124 H124      -45.6849  -25.3157   13.8072 H         1 UNK         0.0825 
    125 H125      -44.7720  -24.9799   15.2688 H         1 UNK         0.0825 
    126 H126      -47.3466  -23.4504   13.2840 H         1 UNK         0.3029 
    127 H127      -50.4745  -21.8185   13.8119 H         1 UNK         0.0897 
    128 H128      -47.8835  -20.8466   12.4833 H         1 UNK         0.0792 
    129 H129      -48.7963  -19.9726   13.7042 H         1 UNK         0.0792 
    130 H130      -49.5109  -20.2662   12.1276 H         1 UNK         0.0792 
    131 H131      -49.1681  -22.7285   11.4464 H         1 UNK         0.3086 
    132 H132      -50.5231  -26.0444   11.4972 H         1 UNK         0.0583 
    133 H133      -50.8022  -23.8634    9.4243 H         1 UNK         0.1020 
    134 H134      -51.4344  -25.4729    9.3861 H         1 UNK         0.1020 
    135 H135      -53.0915  -25.5014   12.3951 H         1 UNK         0.0694 
    136 H136      -54.6401  -24.9647   11.8065 H         1 UNK         0.0694 
    137 H137      -48.6760  -24.7041    9.7519 H         1 UNK         0.2989 
    138 H138      -45.7251  -25.6516   11.4790 H         1 UNK         0.1055 
    139 H139      -46.2738  -27.8454   10.4456 H         1 UNK         0.0806 
    140 H140      -45.1632  -26.9417    9.4258 H         1 UNK         0.0806 
    141 H141      -46.8706  -27.0349    9.0038 H         1 UNK         0.0806 
    142 H142      -46.1122  -24.6333    8.8466 H         1 UNK         0.3061 
    143 H143      -47.0218  -21.3532    9.6074 H         1 UNK         0.0734 
    144 H144      -44.1015  -22.0700    9.0026 H         1 UNK         0.0832 
    145 H145      -44.8717  -20.5102    8.7031 H         1 UNK         0.0832 
    146 H146      -44.6462  -21.0782   10.3477 H         1 UNK         0.0832 
    147 H147      -45.8635  -22.2755    7.2268 H         1 UNK         0.3156 
    148 H148      -48.7766  -22.9434    5.6479 H         1 UNK         0.0589 
    149 H149      -46.9016  -22.8211    4.0541 H         1 UNK         0.0808 
    150 H150      -45.7226  -23.0517    5.3351 H         1 UNK         0.0808 
    151 H151      -46.7024  -21.5840    5.2758 H         1 UNK         0.0808 
    152 H152      -48.6040  -25.0879    5.0894 H         1 UNK         0.3098 
    153 H153      -47.8573  -27.0857    4.6900 H         1 UNK         0.0720 
    154 H154      -45.0554  -27.7518    5.7418 H         1 UNK         0.0791 
    155 H155      -45.4158  -26.9966    4.1959 H         1 UNK         0.0791 
    156 H156      -45.9443  -28.6426    4.5072 H         1 UNK         0.0791 
    157 H157      -46.9442  -28.5405    7.0742 H         1 UNK         0.3028 
@<TRIPOS>BOND
     1    1    2 1    
     2    1   82 1    
     3    1   83 1    
     4    1   84 1    
     5    2    3 2    
     6    2    4 am   BACKBONE|DICT|INTERRES
     7    4    5 1    
     8    4   85 1    
     9    5    6 1    
    10    5   80 1    
    11    5   86 1    
    12    6    7 1    
    13    6   87 1    
    14    6   88 1    
    15    7    8 1    
    16    8    9 1    
    17    8   89 1    
    18    8   90 1    
    19    9   10 ar   
    20    9   14 ar   
    21   10   11 ar   
    22   10   91 1    
    23   11   12 ar   
    24   11   58 1    
    25   12   13 ar   
    26   12   92 1    
    27   13   14 ar   
    28   13   15 1    
    29   14   93 1    
    30   15   16 1    
    31   15   94 1    
    32   15   95 1    
    33   16   17 1    
    34   17   18 1    
    35   17   96 1    
    36   17   97 1    
    37   18   19 1    
    38   18   22 1    
    39   18   98 1    
    40   19   20 am   BACKBONE|DICT|INTERRES
    41   19   21 2    
    42   20   99 1    
    43   20  100 1    
    44   22   23 am   BACKBONE|DICT|INTERRES
    45   22  101 1    
    46   23   24 2    
    47   23   25 1    
    48   25   26 1    
    49   25   27 1    
    50   25  102 1    
    51   26  103 1    
    52   26  104 1    
    53   26  105 1    
    54   27   28 am   BACKBONE|DICT|INTERRES
    55   27  106 1    
    56   28   29 2    
    57   28   30 1    
    58   30   31 1    
    59   30   32 1    
    60   30  107 1    
    61   31  108 1    
    62   31  109 1    
    63   31  110 1    
    64   32   33 am   BACKBONE|DICT|INTERRES
    65   32  111 1    
    66   33   34 2    
    67   33   35 1    
    68   35   36 1    
    69   35   37 1    
    70   35  112 1    
    71   36  113 1    
    72   36  114 1    
    73   36  115 1    
    74   37   38 am   BACKBONE|DICT|INTERRES
    75   37  116 1    
    76   38   39 2    
    77   38   40 1    
    78   40   41 1    
    79   40   42 1    
    80   40  117 1    
    81   41  118 1    
    82   41  119 1    
    83   41  120 1    
    84   42   43 am   BACKBONE|DICT|INTERRES
    85   42  121 1    
    86   43   44 2    
    87   43   45 1    
    88   45   46 1    
    89   45   47 1    
    90   45  122 1    
    91   46  123 1    
    92   46  124 1    
    93   46  125 1    
    94   47   48 am   BACKBONE|DICT|INTERRES
    95   47  126 1    
    96   48   49 2    
    97   48   50 1    
    98   50   51 1    
    99   50   52 1    
   100   50  127 1    
   101   51  128 1    
   102   51  129 1    
   103   51  130 1    
   104   52   53 am   BACKBONE|DICT|INTERRES
   105   52  131 1    
   106   53   54 2    
   107   53   55 1    
   108   55   56 1    
   109   55   59 1    
   110   55  132 1    
   111   56   57 1    
   112   56  133 1    
   113   56  134 1    
   114   57   58 1    
   115   58  135 1    
   116   58  136 1    
   117   59   60 am   BACKBONE|DICT|INTERRES
   118   59  137 1    
   119   60   61 2    
   120   60   62 1    
   121   62   63 1    
   122   62   64 1    
   123   62  138 1    
   124   63  139 1    
   125   63  140 1    
   126   63  141 1    
   127   64   65 am   BACKBONE|DICT|INTERRES
   128   64  142 1    
   129   65   66 2    
   130   65   67 1    
   131   67   68 1    
   132   67   69 1    
   133   67  143 1    
   134   68  144 1    
   135   68  145 1    
   136   68  146 1    
   137   69   70 am   BACKBONE|DICT|INTERRES
   138   69  147 1    
   139   70   71 2    
   140   70   72 1    
   141   72   73 1    
   142   72   74 1    
   143   72  148 1    
   144   73  149 1    
   145   73  150 1    
   146   73  151 1    
   147   74   75 am   BACKBONE|DICT|INTERRES
   148   74  152 1    
   149   75   76 2    
   150   75   77 1    
   151   77   78 1    
   152   77   79 1    
   153   77  153 1    
   154   78  154 1    
   155   78  155 1    
   156   78  156 1    
   157   79   80 am   BACKBONE|DICT|INTERRES
   158   79  157 1    
   159   80   81 2    
@<TRIPOS>SUBSTRUCTURE
     1 UNK         1 GROUP             0       ****    0 ROOT    
