@<TRIPOS>MOLECULE
3R207
157   159    1
SMALL
USER_CHARGES


@<TRIPOS>ATOM
      1 CA        -45.8856  -29.0232    0.8715 C.3       0 UNK        -0.1975 
      2 C         -46.6281  -28.6513    2.1459 C.2       0 UNK         0.4852 
      3 O         -46.1139  -28.8815    3.2415 O.2       0 UNK        -0.5216 
      4 N         -47.8262  -28.0631    2.0128 N.am      1 UNK        -0.4461 
      5 CA        -48.7419  -27.6264    3.0795 C.3       1 UNK         0.0864 
      6 C6        -49.1624  -28.7795    4.0303 C.3       14 UNK        -0.0898 
      7 S7        -50.8055  -28.5255    4.7799 S.3       14 UNK        -0.2598 
      8 C8        -50.3529  -28.3408    6.5295 C.3       14 UNK         0.0286 
      9 C9        -51.5849  -28.2836    7.4194 C.ar      14 UNK        -0.0844 
     10 C10       -52.1948  -27.0579    7.7065 C.ar      14 UNK        -0.0881 
     11 C11       -53.3195  -26.9996    8.5350 C.ar      14 UNK        -0.0643 
     12 C12       -53.8420  -28.1845    9.0626 C.ar      14 UNK        -0.0930 
     13 C13       -53.2412  -29.4162    8.7845 C.ar      14 UNK        -0.0827 
     14 C14       -52.1108  -29.4592    7.9641 C.ar      14 UNK        -0.1249 
     15 C15       -53.8306  -30.6993    9.3493 C.3       14 UNK         0.0141 
     16 S16       -52.9737  -31.2138   10.8719 S.3       14 UNK        -0.2313 
     17 C17       -54.3211  -32.0816   11.7526 C.3       14 UNK        -0.0915 
     18 CA        -54.9545  -31.2528   12.9076 C.3       13 UNK         0.0968 
     19 C         -54.1476  -31.3444   14.2386 C.2       13 UNK         0.5732 
     20 N         -53.7480  -30.2442   14.8675 N.am      13 UNK        -0.7310 
     21 O         -53.9013  -32.4443   14.7283 O.2       13 UNK        -0.5035 
     22 N         -55.2683  -29.8847   12.4753 N.am      13 UNK        -0.4233 
     23 C         -56.1936  -29.0927   13.0208 C.2       13 UNK         0.4989 
     24 O         -56.9991  -29.4488   13.8834 O.2       13 UNK        -0.4996 
     25 CA        -56.2048  -27.6417   12.5198 C.3       12 UNK         0.0216 
     26 CB        -57.4847  -27.3344   11.7263 C.3       12 UNK        -0.1964 
     27 N         -56.0681  -26.6991   13.6292 N.am      12 UNK        -0.4276 
     28 C         -54.9750  -26.5885   14.3940 C.2       12 UNK         0.5020 
     29 O         -53.9524  -27.2639   14.2451 O.2       12 UNK        -0.5489 
     30 CA        -55.0460  -25.5743   15.5366 C.3       11 UNK         0.0294 
     31 CB        -55.4139  -26.2671   16.8607 C.3       11 UNK        -0.2019 
     32 N         -53.7472  -24.9234   15.6606 N.am      11 UNK        -0.4493 
     33 C         -53.5483  -23.6878   16.1375 C.2       11 UNK         0.4932 
     34 O         -54.4573  -22.9576   16.5367 O.2       11 UNK        -0.5029 
     35 CA        -52.0922  -23.1851   16.1648 C.3       10 UNK         0.0280 
     36 CB        -51.8789  -21.9597   17.0788 C.3       10 UNK        -0.1976 
     37 N         -51.1424  -24.2574   16.4709 N.am      10 UNK        -0.4242 
     38 C         -51.0239  -24.9558   17.6104 C.2       10 UNK         0.5072 
     39 O         -51.6572  -24.7220   18.6403 O.2       10 UNK        -0.5224 
     40 CA        -50.0391  -26.1361   17.5916 C.3       9 UNK         0.0343 
     41 CB        -50.7961  -27.4566   17.3629 C.3       9 UNK        -0.2003 
     42 N         -49.0189  -25.9797   16.5499 N.am      9 UNK        -0.4272 
     43 C         -47.8013  -25.4619   16.7545 C.2       9 UNK         0.4988 
     44 O         -47.3859  -25.0945   17.8543 O.2       9 UNK        -0.5108 
     45 CA        -46.8811  -25.3469   15.5288 C.3       8 UNK         0.0248 
     46 CB        -46.3369  -26.7271   15.1232 C.3       8 UNK        -0.2001 
     47 N         -47.5058  -24.7058   14.3683 N.am      8 UNK        -0.4140 
     48 C         -47.8287  -23.4058   14.2942 C.2       8 UNK         0.5028 
     49 O         -47.7442  -22.6228   15.2403 O.2       8 UNK        -0.5428 
     50 CA        -48.2993  -22.8799   12.9289 C.3       7 UNK         0.0264 
     51 CB        -47.1205  -22.7926   11.9446 C.3       7 UNK        -0.1988 
     52 N         -49.3547  -23.7288   12.3742 N.am      7 UNK        -0.4454 
     53 C         -50.6591  -23.4113   12.3738 C.2       7 UNK         0.5027 
     54 O         -51.0819  -22.2946   12.6751 O.2       7 UNK        -0.5083 
     55 CA        -51.6866  -24.5160   12.0307 C.3       6 UNK         0.0844 
     56 C56       -52.4617  -24.2041   10.7255 C.3       14 UNK        -0.0967 
     57 S57       -53.9725  -25.2183   10.5847 S.3       14 UNK        -0.2604 
     58 C58       -54.0067  -25.6695    8.8186 C.3       14 UNK         0.0134 
     59 N         -51.1006  -25.8600   12.0331 N.am      6 UNK        -0.4116 
     60 C         -50.6950  -26.4972   13.1399 C.2       5 UNK         0.5034 
     61 O         -50.7813  -26.0154   14.2686 O.2       5 UNK        -0.5045 
     62 CA        -50.0055  -27.8602   12.9736 C.3       5 UNK         0.0224 
     63 CB        -51.0470  -28.9813   13.0443 C.3       5 UNK        -0.1978 
     64 N         -49.2263  -27.9900   11.7408 N.am      5 UNK        -0.4737 
     65 C         -48.1912  -27.2132   11.3927 C.2       4 UNK         0.5027 
     66 O         -47.7724  -26.2897   12.0922 O.2       4 UNK        -0.5211 
     67 CA        -47.5471  -27.4628   10.0141 C.3       4 UNK         0.0297 
     68 CB        -48.0512  -28.7440    9.3146 C.3       4 UNK        -0.1993 
     69 N         -47.7032  -26.3128    9.1147 N.am      4 UNK        -0.4486 
     70 C         -48.8268  -25.6355    8.8433 C.2       3 UNK         0.4961 
     71 O         -49.9123  -25.8831    9.3615 O.2       3 UNK        -0.5105 
     72 CA        -48.7542  -24.4941    7.8143 C.3       3 UNK         0.0299 
     73 CB        -48.2499  -23.1957    8.4669 C.3       3 UNK        -0.1972 
     74 N         -48.0151  -24.8009    6.5819 N.am      3 UNK        -0.4305 
     75 C         -46.7155  -25.0735    6.4058 C.2       2 UNK         0.5006 
     76 O         -45.9012  -25.1532    7.3281 O.2       2 UNK        -0.5106 
     77 CA        -46.2601  -25.3043    4.9499 C.3       2 UNK         0.0296 
     78 CB        -44.7469  -25.5702    4.8385 C.3       2 UNK        -0.2002 
     79 N         -46.9755  -26.3986    4.2867 N.am      2 UNK        -0.4032 
     80 C         -48.2394  -26.3803    3.8436 C.2       1 UNK         0.5000 
     81 O         -48.9929  -25.4162    3.9960 O.2       1 UNK        -0.5238 
     82 H82       -46.4517  -28.7622   -0.0224 H         1 UNK         0.0889 
     83 H83       -45.6934  -30.0955    0.8500 H         1 UNK         0.0889 
     84 H84       -44.9282  -28.5044    0.8307 H         1 UNK         0.0889 
     85 H85       -48.1634  -27.8787    1.0775 H         1 UNK         0.3028 
     86 H86       -49.6357  -27.3056    2.5412 H         1 UNK         0.0864 
     87 H87       -49.2275  -29.7124    3.4682 H         1 UNK         0.0720 
     88 H88       -48.4082  -28.9572    4.7993 H         1 UNK         0.0720 
     89 H89       -49.7505  -27.4405    6.6555 H         1 UNK         0.0814 
     90 H90       -49.7235  -29.1810    6.8257 H         1 UNK         0.0814 
     91 H91       -51.7881  -26.1482    7.2874 H         1 UNK         0.1469 
     92 H92       -54.7260  -28.1428    9.6820 H         1 UNK         0.1381 
     93 H93       -51.6445  -30.4100    7.7443 H         1 UNK         0.1206 
     94 H94       -54.8943  -30.5554    9.5453 H         1 UNK         0.0813 
     95 H95       -53.7638  -31.5009    8.6122 H         1 UNK         0.0813 
     96 H96       -55.0977  -32.3489   11.0348 H         1 UNK         0.0638 
     97 H97       -53.9367  -33.0363   12.1159 H         1 UNK         0.0638 
     98 H98       -55.9057  -31.7351   13.1405 H         1 UNK         0.0568 
     99 H99       -53.9298  -29.3202   14.4923 H         1 UNK         0.3450 
    100 H100      -53.2429  -30.3391   15.7329 H         1 UNK         0.3450 
    101 H101      -54.6184  -29.4963   11.8085 H         1 UNK         0.2987 
    102 H102      -55.3505  -27.4908   11.8582 H         1 UNK         0.0766 
    103 H103      -57.4651  -26.3227   11.3200 H         1 UNK         0.0798 
    104 H104      -58.3781  -27.4335   12.3441 H         1 UNK         0.0798 
    105 H105      -57.5936  -28.0181   10.8832 H         1 UNK         0.0798 
    106 H106      -56.8793  -26.1394   13.8487 H         1 UNK         0.3198 
    107 H107      -55.8042  -24.8258   15.2949 H         1 UNK         0.0843 
    108 H108      -54.6694  -27.0132   17.1421 H         1 UNK         0.0831 
    109 H109      -56.3750  -26.7770   16.7825 H         1 UNK         0.0831 
    110 H110      -55.4923  -25.5489   17.6770 H         1 UNK         0.0831 
    111 H111      -52.9668  -25.4663   15.3056 H         1 UNK         0.3133 
    112 H112      -51.8675  -22.8695   15.1470 H         1 UNK         0.0566 
    113 H113      -50.8375  -21.6374   17.0713 H         1 UNK         0.0814 
    114 H114      -52.4812  -21.1147   16.7432 H         1 UNK         0.0814 
    115 H115      -52.1603  -22.1670   18.1115 H         1 UNK         0.0814 
    116 H116      -50.6385  -24.6229   15.6706 H         1 UNK         0.3091 
    117 H117      -49.5641  -26.1872   18.5737 H         1 UNK         0.0702 
    118 H118      -51.5288  -27.6253   18.1532 H         1 UNK         0.0785 
    119 H119      -50.1164  -28.3087   17.3646 H         1 UNK         0.0785 
    120 H120      -51.3375  -27.4614   16.4161 H         1 UNK         0.0785 
    121 H121      -49.3072  -26.2107   15.6063 H         1 UNK         0.2998 
    122 H122      -46.0284  -24.7300   15.8208 H         1 UNK         0.0697 
    123 H123      -47.1284  -27.3920   14.7774 H         1 UNK         0.0825 
    124 H124      -45.8437  -27.2159   15.9645 H         1 UNK         0.0825 
    125 H125      -45.6020  -26.6422   14.3224 H         1 UNK         0.0825 
    126 H126      -47.5844  -25.2772   13.5273 H         1 UNK         0.3029 
    127 H127      -48.6681  -21.8640   13.0873 H         1 UNK         0.0897 
    128 H128      -47.3930  -22.2162   11.0621 H         1 UNK         0.0792 
    129 H129      -46.7831  -23.7763   11.6161 H         1 UNK         0.0792 
    130 H130      -46.2662  -22.2883   12.3987 H         1 UNK         0.0792 
    131 H131      -49.0831  -24.6710   12.1153 H         1 UNK         0.3086 
    132 H132      -52.4140  -24.4882   12.8455 H         1 UNK         0.0583 
    133 H133      -52.7791  -23.1597   10.7047 H         1 UNK         0.1020 
    134 H134      -51.8290  -24.3408    9.8491 H         1 UNK         0.1020 
    135 H135      -55.0488  -25.7477    8.5059 H         1 UNK         0.0694 
    136 H136      -53.5736  -24.8644    8.2231 H         1 UNK         0.0694 
    137 H137      -50.9187  -26.2692   11.1221 H         1 UNK         0.2989 
    138 H138      -49.3159  -27.9836   13.8103 H         1 UNK         0.1055 
    139 H139      -51.5666  -28.9500   14.0016 H         1 UNK         0.0806 
    140 H140      -50.5922  -29.9677   12.9538 H         1 UNK         0.0806 
    141 H141      -51.8006  -28.8781   12.2628 H         1 UNK         0.0806 
    142 H142      -49.5303  -28.6961   11.0861 H         1 UNK         0.3061 
    143 H143      -46.4768  -27.5757   10.1917 H         1 UNK         0.0734 
    144 H144      -47.5436  -28.8947    8.3617 H         1 UNK         0.0832 
    145 H145      -47.8560  -29.6290    9.9217 H         1 UNK         0.0832 
    146 H146      -49.1221  -28.7048    9.1156 H         1 UNK         0.0832 
    147 H147      -46.8607  -25.9914    8.6408 H         1 UNK         0.3156 
    148 H148      -49.7799  -24.3114    7.4898 H         1 UNK         0.0589 
    149 H149      -47.2256  -23.2926    8.8279 H         1 UNK         0.0808 
    150 H150      -48.2811  -22.3612    7.7665 H         1 UNK         0.0808 
    151 H151      -48.8755  -22.9263    9.3189 H         1 UNK         0.0808 
    152 H152      -48.5817  -24.8262    5.7360 H         1 UNK         0.3098 
    153 H153      -46.4722  -24.3822    4.4046 H         1 UNK         0.0720 
    154 H154      -44.4347  -25.6563    3.7975 H         1 UNK         0.0791 
    155 H155      -44.4610  -26.4897    5.3510 H         1 UNK         0.0791 
    156 H156      -44.1712  -24.7558    5.2807 H         1 UNK         0.0791 
    157 H157      -46.4491  -27.2519    4.1124 H         1 UNK         0.3028 
@<TRIPOS>BOND
     1    1    2 1    
     2    1   82 1    
     3    1   83 1    
     4    1   84 1    
     5    2    3 2    
     6    2    4 am   BACKBONE|DICT|INTERRES
     7    4    5 1    
     8    4   85 1    
     9    5    6 1    
    10    5   80 1    
    11    5   86 1    
    12    6    7 1    
    13    6   87 1    
    14    6   88 1    
    15    7    8 1    
    16    8    9 1    
    17    8   89 1    
    18    8   90 1    
    19    9   10 ar   
    20    9   14 ar   
    21   10   11 ar   
    22   10   91 1    
    23   11   12 ar   
    24   11   58 1    
    25   12   13 ar   
    26   12   92 1    
    27   13   14 ar   
    28   13   15 1    
    29   14   93 1    
    30   15   16 1    
    31   15   94 1    
    32   15   95 1    
    33   16   17 1    
    34   17   18 1    
    35   17   96 1    
    36   17   97 1    
    37   18   19 1    
    38   18   22 1    
    39   18   98 1    
    40   19   20 am   BACKBONE|DICT|INTERRES
    41   19   21 2    
    42   20   99 1    
    43   20  100 1    
    44   22   23 am   BACKBONE|DICT|INTERRES
    45   22  101 1    
    46   23   24 2    
    47   23   25 1    
    48   25   26 1    
    49   25   27 1    
    50   25  102 1    
    51   26  103 1    
    52   26  104 1    
    53   26  105 1    
    54   27   28 am   BACKBONE|DICT|INTERRES
    55   27  106 1    
    56   28   29 2    
    57   28   30 1    
    58   30   31 1    
    59   30   32 1    
    60   30  107 1    
    61   31  108 1    
    62   31  109 1    
    63   31  110 1    
    64   32   33 am   BACKBONE|DICT|INTERRES
    65   32  111 1    
    66   33   34 2    
    67   33   35 1    
    68   35   36 1    
    69   35   37 1    
    70   35  112 1    
    71   36  113 1    
    72   36  114 1    
    73   36  115 1    
    74   37   38 am   BACKBONE|DICT|INTERRES
    75   37  116 1    
    76   38   39 2    
    77   38   40 1    
    78   40   41 1    
    79   40   42 1    
    80   40  117 1    
    81   41  118 1    
    82   41  119 1    
    83   41  120 1    
    84   42   43 am   BACKBONE|DICT|INTERRES
    85   42  121 1    
    86   43   44 2    
    87   43   45 1    
    88   45   46 1    
    89   45   47 1    
    90   45  122 1    
    91   46  123 1    
    92   46  124 1    
    93   46  125 1    
    94   47   48 am   BACKBONE|DICT|INTERRES
    95   47  126 1    
    96   48   49 2    
    97   48   50 1    
    98   50   51 1    
    99   50   52 1    
   100   50  127 1    
   101   51  128 1    
   102   51  129 1    
   103   51  130 1    
   104   52   53 am   BACKBONE|DICT|INTERRES
   105   52  131 1    
   106   53   54 2    
   107   53   55 1    
   108   55   56 1    
   109   55   59 1    
   110   55  132 1    
   111   56   57 1    
   112   56  133 1    
   113   56  134 1    
   114   57   58 1    
   115   58  135 1    
   116   58  136 1    
   117   59   60 am   BACKBONE|DICT|INTERRES
   118   59  137 1    
   119   60   61 2    
   120   60   62 1    
   121   62   63 1    
   122   62   64 1    
   123   62  138 1    
   124   63  139 1    
   125   63  140 1    
   126   63  141 1    
   127   64   65 am   BACKBONE|DICT|INTERRES
   128   64  142 1    
   129   65   66 2    
   130   65   67 1    
   131   67   68 1    
   132   67   69 1    
   133   67  143 1    
   134   68  144 1    
   135   68  145 1    
   136   68  146 1    
   137   69   70 am   BACKBONE|DICT|INTERRES
   138   69  147 1    
   139   70   71 2    
   140   70   72 1    
   141   72   73 1    
   142   72   74 1    
   143   72  148 1    
   144   73  149 1    
   145   73  150 1    
   146   73  151 1    
   147   74   75 am   BACKBONE|DICT|INTERRES
   148   74  152 1    
   149   75   76 2    
   150   75   77 1    
   151   77   78 1    
   152   77   79 1    
   153   77  153 1    
   154   78  154 1    
   155   78  155 1    
   156   78  156 1    
   157   79   80 am   BACKBONE|DICT|INTERRES
   158   79  157 1    
   159   80   81 2    
@<TRIPOS>SUBSTRUCTURE
     1 UNK         1 GROUP             0       ****    0 ROOT    
