@<TRIPOS>MOLECULE
3R207
157   159    1
SMALL
USER_CHARGES


@<TRIPOS>ATOM
      1 CA        -47.2893  -25.7255    2.6561 C.3       0 UNK        -0.1975 
      2 C         -47.6971  -25.8196    4.1183 C.2       0 UNK         0.4852 
      3 O         -46.8350  -25.9988    4.9790 O.2       0 UNK        -0.5216 
      4 N         -49.0011  -25.6761    4.4037 N.am      1 UNK        -0.4461 
      5 CA        -49.6323  -25.7966    5.7302 C.3       1 UNK         0.0864 
      6 C6        -49.7275  -27.2663    6.2243 C.3       14 UNK        -0.0898 
      7 S7        -50.6303  -28.3489    5.0623 S.3       14 UNK        -0.2598 
      8 C8        -52.3252  -28.3301    5.7538 C.3       14 UNK         0.0286 
      9 C9        -52.5262  -29.0434    7.0948 C.ar      14 UNK        -0.0844 
     10 C10       -51.5379  -29.8370    7.6940 C.ar      14 UNK        -0.0881 
     11 C11       -51.7606  -30.4436    8.9328 C.ar      14 UNK        -0.0643 
     12 C12       -52.9864  -30.2645    9.5758 C.ar      14 UNK        -0.0930 
     13 C13       -53.9824  -29.4741    8.9994 C.ar      14 UNK        -0.0827 
     14 C14       -53.7520  -28.8832    7.7524 C.ar      14 UNK        -0.1249 
     15 C15       -55.2927  -29.2381    9.7380 C.3       14 UNK         0.0141 
     16 S16       -55.3683  -27.5381   10.3783 S.3       14 UNK        -0.2313 
     17 C17       -56.7811  -27.6116   11.5293 C.3       14 UNK        -0.0915 
     18 CA        -56.3461  -27.2461   12.9777 C.3       13 UNK         0.0968 
     19 C         -57.5298  -26.8779   13.9238 C.2       13 UNK         0.5732 
     20 N         -57.2899  -26.7291   15.2211 N.am      13 UNK        -0.7310 
     21 O         -58.6675  -26.7084   13.4901 O.2       13 UNK        -0.5035 
     22 N         -55.3995  -28.2238   13.5421 N.am      13 UNK        -0.4233 
     23 C         -55.6981  -29.4395   14.0288 C.2       13 UNK         0.4989 
     24 O         -56.8297  -29.9246   14.0307 O.2       13 UNK        -0.4996 
     25 CA        -54.5424  -30.2638   14.6219 C.3       12 UNK         0.0216 
     26 CB        -53.9296  -31.1600   13.5384 C.3       12 UNK        -0.1964 
     27 N         -53.5073  -29.3897   15.1800 N.am      12 UNK        -0.4276 
     28 C         -53.2262  -29.2656   16.4834 C.2       12 UNK         0.5020 
     29 O         -53.6654  -30.0155   17.3565 O.2       12 UNK        -0.5489 
     30 CA        -52.3383  -28.0761   16.9000 C.3       11 UNK         0.0294 
     31 CB        -50.8687  -28.4934   17.0718 C.3       11 UNK        -0.2019 
     32 N         -52.4280  -26.9181   16.0021 N.am      11 UNK        -0.4493 
     33 C         -53.5402  -26.1852   15.8280 C.2       11 UNK         0.4932 
     34 O         -54.6206  -26.4598   16.3529 O.2       11 UNK        -0.5029 
     35 CA        -53.4482  -24.9603   14.8970 C.3       10 UNK         0.0280 
     36 CB        -54.5215  -23.8964   15.2062 C.3       10 UNK        -0.1976 
     37 N         -52.1192  -24.3444   14.8413 N.am      10 UNK        -0.4242 
     38 C         -51.3841  -23.8530   15.8533 C.2       10 UNK         0.5072 
     39 O         -51.7593  -23.8300   17.0261 O.2       10 UNK        -0.5224 
     40 CA        -49.9857  -23.3067   15.5047 C.3       9 UNK         0.0343 
     41 CB        -48.9009  -23.9295   16.4031 C.3       9 UNK        -0.2003 
     42 N         -49.6492  -23.5621   14.1007 N.am      9 UNK        -0.4272 
     43 C         -49.6139  -22.6267   13.1422 C.2       9 UNK         0.4988 
     44 O         -49.7435  -21.4204   13.3529 O.2       9 UNK        -0.5108 
     45 CA        -49.4312  -23.1130   11.6948 C.3       8 UNK         0.0248 
     46 CB        -47.9402  -23.1880   11.3354 C.3       8 UNK        -0.2001 
     47 N         -50.0740  -24.3988   11.3979 N.am      8 UNK        -0.4140 
     48 C         -51.3963  -24.6226   11.4354 C.2       8 UNK         0.5028 
     49 O         -52.2102  -23.8040   11.8603 O.2       8 UNK        -0.5428 
     50 CA        -51.9059  -25.9812   10.9389 C.3       7 UNK         0.0264 
     51 CB        -51.9174  -26.0177    9.4066 C.3       7 UNK        -0.1988 
     52 N         -51.0866  -27.0798   11.4460 N.am      7 UNK        -0.4454 
     53 C         -51.4760  -27.9303   12.4055 C.2       7 UNK         0.5027 
     54 O         -52.5897  -27.9125   12.9366 O.2       7 UNK        -0.5083 
     55 CA        -50.4196  -28.9187   12.9474 C.3       6 UNK         0.0844 
     56 C56       -50.4219  -30.2832   12.2145 C.3       14 UNK        -0.0967 
     57 S57       -49.5617  -30.2832   10.6034 S.3       14 UNK        -0.2604 
     58 C58       -50.6711  -31.2902    9.5706 C.3       14 UNK         0.0134 
     59 N         -49.0772  -28.3421   13.0335 N.am      6 UNK        -0.4116 
     60 C         -48.7452  -27.2099   13.6657 C.2       5 UNK         0.5034 
     61 O         -49.5324  -26.5388   14.3358 O.2       5 UNK        -0.5045 
     62 CA        -47.3041  -26.7071   13.4696 C.3       5 UNK         0.0224 
     63 CB        -46.4244  -27.1563   14.6461 C.3       5 UNK        -0.1978 
     64 N         -46.6661  -27.1029   12.2016 N.am      5 UNK        -0.4737 
     65 C         -47.1452  -26.8668   10.9707 C.2       4 UNK         0.5027 
     66 O         -48.2490  -26.3659   10.7545 O.2       4 UNK        -0.5211 
     67 CA        -46.2658  -27.2920    9.7905 C.3       4 UNK         0.0297 
     68 CB        -46.9472  -28.4013    8.9744 C.3       4 UNK        -0.1993 
     69 N         -46.0309  -26.1443    8.9141 N.am      4 UNK        -0.4486 
     70 C         -44.8230  -25.6085    8.6795 C.2       3 UNK         0.4961 
     71 O         -43.7963  -25.9853    9.2474 O.2       3 UNK        -0.5105 
     72 CA        -44.6952  -24.4901    7.6266 C.3       3 UNK         0.0299 
     73 CB        -43.8894  -24.9863    6.4136 C.3       3 UNK        -0.1972 
     74 N         -45.9871  -23.9867    7.1605 N.am      3 UNK        -0.4305 
     75 C         -46.6252  -22.9372    7.6986 C.2       2 UNK         0.5006 
     76 O         -46.1457  -22.2412    8.5943 O.2       2 UNK        -0.5106 
     77 CA        -48.0321  -22.5837    7.1696 C.3       2 UNK         0.0296 
     78 CB        -47.9871  -21.2786    6.3571 C.3       2 UNK        -0.2002 
     79 N         -48.6831  -23.6206    6.3615 N.am      2 UNK        -0.4032 
     80 C         -48.9854  -24.8591    6.7773 C.2       1 UNK         0.5000 
     81 O         -48.7141  -25.2716    7.9046 O.2       1 UNK        -0.5238 
     82 H82       -48.1452  -25.5569    2.0029 H         1 UNK         0.0889 
     83 H83       -46.8020  -26.6491    2.3449 H         1 UNK         0.0889 
     84 H84       -46.5864  -24.9049    2.5152 H         1 UNK         0.0889 
     85 H85       -49.6470  -25.5252    3.6410 H         1 UNK         0.3028 
     86 H86       -50.6532  -25.4296    5.6143 H         1 UNK         0.0864 
     87 H87       -48.7281  -27.6817    6.3636 H         1 UNK         0.0720 
     88 H88       -50.2125  -27.3183    7.1999 H         1 UNK         0.0720 
     89 H89       -52.9913  -28.7894    5.0224 H         1 UNK         0.0814 
     90 H90       -52.6449  -27.2913    5.8493 H         1 UNK         0.0814 
     91 H91       -50.5824  -29.9837    7.2120 H         1 UNK         0.1469 
     92 H92       -53.1618  -30.7369   10.5290 H         1 UNK         0.1381 
     93 H93       -54.5225  -28.2671    7.3088 H         1 UNK         0.1206 
     94 H94       -56.1352  -29.4138    9.0676 H         1 UNK         0.0813 
     95 H95       -55.3978  -29.9407   10.5664 H         1 UNK         0.0813 
     96 H96       -57.2516  -28.5955   11.5004 H         1 UNK         0.0638 
     97 H97       -57.5245  -26.9053   11.1562 H         1 UNK         0.0638 
     98 H98       -55.7844  -26.3141   12.9059 H         1 UNK         0.0568 
     99 H99       -56.3491  -26.8098   15.5952 H         1 UNK         0.3450 
    100 H100      -58.0519  -26.4911   15.8349 H         1 UNK         0.3450 
    101 H101      -54.4240  -27.9577   13.4754 H         1 UNK         0.2987 
    102 H102      -54.9600  -30.9051   15.4009 H         1 UNK         0.0766 
    103 H103      -53.0722  -31.7178   13.9152 H         1 UNK         0.0798 
    104 H104      -53.6074  -30.5662   12.6862 H         1 UNK         0.0798 
    105 H105      -54.6586  -31.8847   13.1734 H         1 UNK         0.0798 
    106 H106      -53.0858  -28.7285   14.5337 H         1 UNK         0.3198 
    107 H107      -52.7001  -27.7477   17.8771 H         1 UNK         0.0843 
    108 H108      -50.4115  -28.8009   16.1340 H         1 UNK         0.0831 
    109 H109      -50.7817  -29.3314   17.7648 H         1 UNK         0.0831 
    110 H110      -50.2720  -27.6765   17.4783 H         1 UNK         0.0831 
    111 H111      -51.5803  -26.6366   15.5245 H         1 UNK         0.3133 
    112 H112      -53.6412  -25.3378   13.8921 H         1 UNK         0.0566 
    113 H113      -54.4536  -23.0549   14.5167 H         1 UNK         0.0814 
    114 H114      -55.5266  -24.3084   15.1106 H         1 UNK         0.0814 
    115 H115      -54.4232  -23.5088   16.2208 H         1 UNK         0.0814 
    116 H116      -51.7467  -24.2391   13.9054 H         1 UNK         0.3091 
    117 H117      -50.0088  -22.2335   15.7034 H         1 UNK         0.0702 
    118 H118      -47.9082  -23.5675   16.1354 H         1 UNK         0.0785 
    119 H119      -48.8903  -25.0173   16.3382 H         1 UNK         0.0785 
    120 H120      -49.0668  -23.6711   17.4497 H         1 UNK         0.0785 
    121 H121      -49.5424  -24.5390   13.8498 H         1 UNK         0.2998 
    122 H122      -49.8946  -22.3715   11.0406 H         1 UNK         0.0697 
    123 H123      -47.3867  -23.8352   12.0140 H         1 UNK         0.0825 
    124 H124      -47.4776  -22.2010   11.3764 H         1 UNK         0.0825 
    125 H125      -47.7984  -23.5730   10.3264 H         1 UNK         0.0825 
    126 H126      -49.4579  -25.1328   11.0456 H         1 UNK         0.3029 
    127 H127      -52.9370  -26.0873   11.2813 H         1 UNK         0.0897 
    128 H128      -52.3217  -26.9607    9.0465 H         1 UNK         0.0792 
    129 H129      -50.9151  -25.9087    8.9986 H         1 UNK         0.0792 
    130 H130      -52.5345  -25.2179    8.9959 H         1 UNK         0.0792 
    131 H131      -50.1326  -27.1330   11.1027 H         1 UNK         0.3086 
    132 H132      -50.7221  -29.1274   13.9725 H         1 UNK         0.0583 
    133 H133      -51.4369  -30.6550   12.0940 H         1 UNK         0.1020 
    134 H134      -49.9239  -31.0238   12.8423 H         1 UNK         0.1020 
    135 H135      -50.0774  -31.7702    8.7912 H         1 UNK         0.0694 
    136 H136      -51.1037  -32.1003   10.1597 H         1 UNK         0.0694 
    137 H137      -48.3683  -28.8001   12.4795 H         1 UNK         0.2989 
    138 H138      -47.3490  -25.6176   13.4844 H         1 UNK         0.1055 
    139 H139      -46.8627  -26.8559   15.5994 H         1 UNK         0.0806 
    140 H140      -45.4321  -26.7075   14.5952 H         1 UNK         0.0806 
    141 H141      -46.3034  -28.2401   14.6703 H         1 UNK         0.0806 
    142 H142      -45.7552  -27.5334   12.2811 H         1 UNK         0.3061 
    143 H143      -45.3242  -27.6901   10.1736 H         1 UNK         0.0734 
    144 H144      -46.3865  -28.6320    8.0686 H         1 UNK         0.0832 
    145 H145      -47.0126  -29.3214    9.5545 H         1 UNK         0.0832 
    146 H146      -47.9603  -28.1241    8.6786 H         1 UNK         0.0832 
    147 H147      -46.8642  -25.7429    8.4899 H         1 UNK         0.3156 
    148 H148      -44.1286  -23.6776    8.0862 H         1 UNK         0.0589 
    149 H149      -44.3601  -25.8486    5.9406 H         1 UNK         0.0808 
    150 H150      -43.7825  -24.2060    5.6600 H         1 UNK         0.0808 
    151 H151      -42.8841  -25.2889    6.7100 H         1 UNK         0.0808 
    152 H152      -46.4430  -24.5318    6.4353 H         1 UNK         0.3098 
    153 H153      -48.6619  -22.4175    8.0462 H         1 UNK         0.0720 
    154 H154      -48.9870  -20.9554    6.0665 H         1 UNK         0.0791 
    155 H155      -47.3908  -21.3892    5.4504 H         1 UNK         0.0791 
    156 H156      -47.5459  -20.4687    6.9400 H         1 UNK         0.0791 
    157 H157      -48.9061  -23.3744    5.4080 H         1 UNK         0.3028 
@<TRIPOS>BOND
     1    1    2 1    
     2    1   82 1    
     3    1   83 1    
     4    1   84 1    
     5    2    3 2    
     6    2    4 am   BACKBONE|DICT|INTERRES
     7    4    5 1    
     8    4   85 1    
     9    5    6 1    
    10    5   80 1    
    11    5   86 1    
    12    6    7 1    
    13    6   87 1    
    14    6   88 1    
    15    7    8 1    
    16    8    9 1    
    17    8   89 1    
    18    8   90 1    
    19    9   10 ar   
    20    9   14 ar   
    21   10   11 ar   
    22   10   91 1    
    23   11   12 ar   
    24   11   58 1    
    25   12   13 ar   
    26   12   92 1    
    27   13   14 ar   
    28   13   15 1    
    29   14   93 1    
    30   15   16 1    
    31   15   94 1    
    32   15   95 1    
    33   16   17 1    
    34   17   18 1    
    35   17   96 1    
    36   17   97 1    
    37   18   19 1    
    38   18   22 1    
    39   18   98 1    
    40   19   20 am   BACKBONE|DICT|INTERRES
    41   19   21 2    
    42   20   99 1    
    43   20  100 1    
    44   22   23 am   BACKBONE|DICT|INTERRES
    45   22  101 1    
    46   23   24 2    
    47   23   25 1    
    48   25   26 1    
    49   25   27 1    
    50   25  102 1    
    51   26  103 1    
    52   26  104 1    
    53   26  105 1    
    54   27   28 am   BACKBONE|DICT|INTERRES
    55   27  106 1    
    56   28   29 2    
    57   28   30 1    
    58   30   31 1    
    59   30   32 1    
    60   30  107 1    
    61   31  108 1    
    62   31  109 1    
    63   31  110 1    
    64   32   33 am   BACKBONE|DICT|INTERRES
    65   32  111 1    
    66   33   34 2    
    67   33   35 1    
    68   35   36 1    
    69   35   37 1    
    70   35  112 1    
    71   36  113 1    
    72   36  114 1    
    73   36  115 1    
    74   37   38 am   BACKBONE|DICT|INTERRES
    75   37  116 1    
    76   38   39 2    
    77   38   40 1    
    78   40   41 1    
    79   40   42 1    
    80   40  117 1    
    81   41  118 1    
    82   41  119 1    
    83   41  120 1    
    84   42   43 am   BACKBONE|DICT|INTERRES
    85   42  121 1    
    86   43   44 2    
    87   43   45 1    
    88   45   46 1    
    89   45   47 1    
    90   45  122 1    
    91   46  123 1    
    92   46  124 1    
    93   46  125 1    
    94   47   48 am   BACKBONE|DICT|INTERRES
    95   47  126 1    
    96   48   49 2    
    97   48   50 1    
    98   50   51 1    
    99   50   52 1    
   100   50  127 1    
   101   51  128 1    
   102   51  129 1    
   103   51  130 1    
   104   52   53 am   BACKBONE|DICT|INTERRES
   105   52  131 1    
   106   53   54 2    
   107   53   55 1    
   108   55   56 1    
   109   55   59 1    
   110   55  132 1    
   111   56   57 1    
   112   56  133 1    
   113   56  134 1    
   114   57   58 1    
   115   58  135 1    
   116   58  136 1    
   117   59   60 am   BACKBONE|DICT|INTERRES
   118   59  137 1    
   119   60   61 2    
   120   60   62 1    
   121   62   63 1    
   122   62   64 1    
   123   62  138 1    
   124   63  139 1    
   125   63  140 1    
   126   63  141 1    
   127   64   65 am   BACKBONE|DICT|INTERRES
   128   64  142 1    
   129   65   66 2    
   130   65   67 1    
   131   67   68 1    
   132   67   69 1    
   133   67  143 1    
   134   68  144 1    
   135   68  145 1    
   136   68  146 1    
   137   69   70 am   BACKBONE|DICT|INTERRES
   138   69  147 1    
   139   70   71 2    
   140   70   72 1    
   141   72   73 1    
   142   72   74 1    
   143   72  148 1    
   144   73  149 1    
   145   73  150 1    
   146   73  151 1    
   147   74   75 am   BACKBONE|DICT|INTERRES
   148   74  152 1    
   149   75   76 2    
   150   75   77 1    
   151   77   78 1    
   152   77   79 1    
   153   77  153 1    
   154   78  154 1    
   155   78  155 1    
   156   78  156 1    
   157   79   80 am   BACKBONE|DICT|INTERRES
   158   79  157 1    
   159   80   81 2    
@<TRIPOS>SUBSTRUCTURE
     1 UNK         1 GROUP             0       ****    0 ROOT    
