@<TRIPOS>MOLECULE
3R207
157   159    1
SMALL
USER_CHARGES


@<TRIPOS>ATOM
      1 CA        -51.2378  -24.5276    3.1722 C.3       0 UNK        -0.1975 
      2 C         -51.1218  -25.5074    4.3300 C.2       0 UNK         0.4852 
      3 O         -50.5993  -25.1474    5.3854 O.2       0 UNK        -0.5216 
      4 N         -51.6042  -26.7434    4.1442 N.am      1 UNK        -0.4461 
      5 CA        -51.5505  -27.8240    5.1343 C.3       1 UNK         0.0864 
      6 C6        -52.3483  -29.0684    4.6738 C.3       14 UNK        -0.0898 
      7 S7        -54.1426  -28.7568    4.7830 S.3       14 UNK        -0.2598 
      8 C8        -54.6385  -29.8014    6.1979 C.3       14 UNK         0.0286 
      9 C9        -53.7472  -29.6259    7.4237 C.ar      14 UNK        -0.0844 
     10 C10       -53.6146  -28.3760    8.0381 C.ar      14 UNK        -0.0881 
     11 C11       -52.7703  -28.2160    9.1407 C.ar      14 UNK        -0.0643 
     12 C12       -52.0865  -29.3205    9.6535 C.ar      14 UNK        -0.0930 
     13 C13       -52.2320  -30.5792    9.0664 C.ar      14 UNK        -0.0827 
     14 C14       -53.0512  -30.7226    7.9429 C.ar      14 UNK        -0.1249 
     15 C15       -51.5168  -31.7860    9.6548 C.3       14 UNK         0.0141 
     16 S16       -52.6805  -32.9330   10.4615 S.3       14 UNK        -0.2313 
     17 C17       -53.2591  -31.9639   11.9000 C.3       14 UNK        -0.0915 
     18 CA        -54.5350  -31.1088   11.6422 C.3       13 UNK         0.0968 
     19 C         -55.7605  -31.9403   11.1866 C.2       13 UNK         0.5732 
     20 N         -55.9953  -32.0466    9.8861 N.am      13 UNK        -0.7310 
     21 O         -56.4964  -32.4915   12.0045 O.2       13 UNK        -0.5035 
     22 N         -54.9128  -30.3186   12.8166 N.am      13 UNK        -0.4233 
     23 C         -54.2781  -29.2335   13.2660 C.2       13 UNK         0.4989 
     24 O         -53.2204  -28.8057   12.7988 O.2       13 UNK        -0.4996 
     25 CA        -54.9307  -28.5194   14.4625 C.3       12 UNK         0.0216 
     26 CB        -54.4944  -29.1682   15.7855 C.3       12 UNK        -0.1964 
     27 N         -54.5884  -27.0942   14.4724 N.am      12 UNK        -0.4276 
     28 C         -55.1074  -26.1999   13.6175 C.2       12 UNK         0.5020 
     29 O         -56.0232  -26.4719   12.8382 O.2       12 UNK        -0.5489 
     30 CA        -54.5005  -24.7824   13.5779 C.3       11 UNK         0.0294 
     31 CB        -55.5749  -23.6843   13.4257 C.3       11 UNK        -0.2019 
     32 N         -53.5728  -24.4732   14.6713 N.am      11 UNK        -0.4493 
     33 C         -53.8441  -24.3116   15.9739 C.2       11 UNK         0.4932 
     34 O         -54.9714  -24.4021   16.4622 O.2       11 UNK        -0.5029 
     35 CA        -52.6245  -24.0241   16.8743 C.3       10 UNK         0.0280 
     36 CB        -52.9628  -24.0505   18.3798 C.3       10 UNK        -0.1976 
     37 N         -51.4876  -24.9072   16.5811 N.am      10 UNK        -0.4242 
     38 C         -51.4767  -26.2495   16.6239 C.2       10 UNK         0.5072 
     39 O         -52.4517  -26.9233   16.9549 O.2       10 UNK        -0.5224 
     40 CA        -50.1926  -26.9856   16.1933 C.3       9 UNK         0.0343 
     41 CB        -50.4653  -27.8449   14.9464 C.3       9 UNK        -0.2003 
     42 N         -49.0598  -26.1006   15.9142 N.am      9 UNK        -0.4272 
     43 C         -48.3104  -25.4836   16.8378 C.2       9 UNK         0.4988 
     44 O         -48.4611  -25.6257   18.0513 O.2       9 UNK        -0.5108 
     45 CA        -47.2352  -24.5135   16.3154 C.3       8 UNK         0.0248 
     46 CB        -45.9532  -25.2723   15.9353 C.3       8 UNK        -0.2001 
     47 N         -47.6951  -23.7158   15.1733 N.am      8 UNK        -0.4140 
     48 C         -48.6888  -22.8155   15.2227 C.2       8 UNK         0.5028 
     49 O         -49.3110  -22.5333   16.2466 O.2       8 UNK        -0.5428 
     50 CA        -49.0973  -22.1656   13.8913 C.3       7 UNK         0.0264 
     51 CB        -48.1266  -21.0394   13.5020 C.3       7 UNK        -0.1988 
     52 N         -49.1856  -23.1517   12.8117 N.am      7 UNK        -0.4454 
     53 C         -50.1285  -24.1057   12.7541 C.2       7 UNK         0.5027 
     54 O         -51.0475  -24.1993   13.5671 O.2       7 UNK        -0.5083 
     55 CA        -50.0215  -25.1570   11.6331 C.3       6 UNK         0.0844 
     56 C56       -50.8850  -24.7348   10.4200 C.3       14 UNK        -0.0967 
     57 S57       -51.0498  -26.0757    9.2008 S.3       14 UNK        -0.2604 
     58 C58       -52.5851  -26.8547    9.7852 C.3       14 UNK         0.0134 
     59 N         -48.6242  -25.4552   11.2901 N.am      6 UNK        -0.4116 
     60 C         -47.7597  -26.0370   12.1395 C.2       5 UNK         0.5034 
     61 O         -48.0792  -26.4284   13.2605 O.2       5 UNK        -0.5045 
     62 CA        -46.2823  -26.1603   11.7264 C.3       5 UNK         0.0224 
     63 CB        -45.9412  -27.5962   11.3083 C.3       5 UNK        -0.1978 
     64 N         -45.8875  -25.2278   10.6710 N.am      5 UNK        -0.4737 
     65 C         -45.8029  -23.9012   10.8429 C.2       4 UNK         0.5027 
     66 O         -46.0088  -23.3452   11.9221 O.2       4 UNK        -0.5211 
     67 CA        -45.4884  -23.0473    9.6009 C.3       4 UNK         0.0297 
     68 CB        -43.9842  -22.7417    9.5301 C.3       4 UNK        -0.1993 
     69 N         -45.9244  -23.6444    8.3321 N.am      4 UNK        -0.4486 
     70 C         -47.1852  -23.9887    8.0327 C.2       3 UNK         0.4961 
     71 O         -48.1261  -23.8527    8.8148 O.2       3 UNK        -0.5105 
     72 CA        -47.4541  -24.5991    6.6456 C.3       3 UNK         0.0299 
     73 CB        -46.2215  -24.6538    5.7133 C.3       3 UNK        -0.1972 
     74 N         -48.0864  -25.9176    6.7543 N.am      3 UNK        -0.4305 
     75 C         -47.5754  -27.0191    7.3313 C.2       2 UNK         0.5006 
     76 O         -46.4681  -27.0453    7.8716 O.2       2 UNK        -0.5106 
     77 CA        -48.4174  -28.3145    7.3083 C.3       2 UNK         0.0296 
     78 CB        -48.5345  -28.9451    8.7067 C.3       2 UNK        -0.2002 
     79 N         -49.7642  -28.1144    6.7740 N.am      2 UNK        -0.4032 
     80 C         -50.0947  -28.1871    5.4790 C.2       1 UNK         0.5000 
     81 O         -49.3114  -28.4980    4.5779 O.2       1 UNK        -0.5238 
     82 H82       -51.7220  -24.9763    2.3050 H         1 UNK         0.0889 
     83 H83       -50.2479  -24.1865    2.8704 H         1 UNK         0.0889 
     84 H84       -51.8207  -23.6582    3.4749 H         1 UNK         0.0889 
     85 H85       -52.0169  -26.9882    3.2557 H         1 UNK         0.3028 
     86 H86       -52.0124  -27.4335    6.0426 H         1 UNK         0.0864 
     87 H87       -52.0950  -29.3330    3.6456 H         1 UNK         0.0720 
     88 H88       -52.1000  -29.9464    5.2729 H         1 UNK         0.0720 
     89 H89       -54.6431  -30.8426    5.8718 H         1 UNK         0.0814 
     90 H90       -55.6677  -29.5631    6.4694 H         1 UNK         0.0814 
     91 H91       -54.1490  -27.5242    7.6398 H         1 UNK         0.1469 
     92 H92       -51.4521  -29.1977   10.5211 H         1 UNK         0.1381 
     93 H93       -53.1540  -31.6962    7.4829 H         1 UNK         0.1206 
     94 H94       -50.9941  -32.3156    8.8571 H         1 UNK         0.0813 
     95 H95       -50.7522  -31.4802   10.3707 H         1 UNK         0.0813 
     96 H96       -52.4379  -31.3268   12.2303 H         1 UNK         0.0638 
     97 H97       -53.4406  -32.6611   12.7196 H         1 UNK         0.0638 
     98 H98       -54.3237  -30.3943   10.8469 H         1 UNK         0.0568 
     99 H99       -55.3772  -31.6158    9.2164 H         1 UNK         0.3450 
    100 H100      -56.7854  -32.5868    9.5710 H         1 UNK         0.3450 
    101 H101      -55.7738  -30.6184   13.2550 H         1 UNK         0.2987 
    102 H102      -56.0159  -28.6101   14.3776 H         1 UNK         0.0766 
    103 H103      -53.4098  -29.1839   15.8909 H         1 UNK         0.0798 
    104 H104      -54.9058  -28.6376   16.6445 H         1 UNK         0.0798 
    105 H105      -54.8389  -30.2012   15.8468 H         1 UNK         0.0798 
    106 H106      -53.8366  -26.8097   15.0873 H         1 UNK         0.3198 
    107 H107      -53.8895  -24.7602   12.6740 H         1 UNK         0.0843 
    108 H108      -56.1523  -23.8256   12.5113 H         1 UNK         0.0831 
    109 H109      -55.1253  -22.6929   13.3717 H         1 UNK         0.0831 
    110 H110      -56.2814  -23.6896   14.2560 H         1 UNK         0.0831 
    111 H111      -52.5976  -24.3810   14.3799 H         1 UNK         0.3133 
    112 H112      -52.2943  -23.0138   16.6281 H         1 UNK         0.0566 
    113 H113      -52.0875  -23.8176   18.9861 H         1 UNK         0.0814 
    114 H114      -53.7292  -23.3128   18.6207 H         1 UNK         0.0814 
    115 H115      -53.3395  -25.0245   18.6941 H         1 UNK         0.0814 
    116 H116      -50.6446  -24.4377   16.2749 H         1 UNK         0.3091 
    117 H117      -49.9122  -27.6521   17.0115 H         1 UNK         0.0702 
    118 H118      -49.5722  -28.3840   14.6299 H         1 UNK         0.0785 
    119 H119      -50.8061  -27.2387   14.1067 H         1 UNK         0.0785 
    120 H120      -51.2367  -28.5902   15.1400 H         1 UNK         0.0785 
    121 H121      -48.8052  -25.9966   14.9346 H         1 UNK         0.2998 
    122 H122      -46.9929  -23.8213   17.1246 H         1 UNK         0.0697 
    123 H123      -46.1285  -25.9923   15.1356 H         1 UNK         0.0825 
    124 H124      -45.5633  -25.8268   16.7899 H         1 UNK         0.0825 
    125 H125      -45.1685  -24.5899   15.6078 H         1 UNK         0.0825 
    126 H126      -47.2442  -23.8832   14.2845 H         1 UNK         0.3029 
    127 H127      -50.0874  -21.7242   14.0277 H         1 UNK         0.0897 
    128 H128      -48.4335  -20.5530   12.5759 H         1 UNK         0.0792 
    129 H129      -48.0951  -20.2709   14.2756 H         1 UNK         0.0792 
    130 H130      -47.1082  -21.4046   13.3674 H         1 UNK         0.0792 
    131 H131      -48.4433  -23.1498   12.1245 H         1 UNK         0.3086 
    132 H132      -50.4522  -26.0769   12.0338 H         1 UNK         0.0583 
    133 H133      -51.8854  -24.4331   10.7380 H         1 UNK         0.1020 
    134 H134      -50.4588  -23.8615    9.9242 H         1 UNK         0.1020 
    135 H135      -52.5521  -26.9680   10.8700 H         1 UNK         0.0694 
    136 H136      -53.4324  -26.2031    9.5661 H         1 UNK         0.0694 
    137 H137      -48.3016  -25.1176   10.3887 H         1 UNK         0.2989 
    138 H138      -45.6898  -25.9260   12.6136 H         1 UNK         0.1055 
    139 H139      -46.2256  -28.3098   12.0830 H         1 UNK         0.0806 
    140 H140      -44.8719  -27.7155   11.1338 H         1 UNK         0.0806 
    141 H141      -46.4615  -27.8783   10.3966 H         1 UNK         0.0806 
    142 H142      -45.7442  -25.6116    9.7449 H         1 UNK         0.3061 
    143 H143      -46.0245  -22.1031    9.7173 H         1 UNK         0.0734 
    144 H144      -43.6379  -22.2742   10.4531 H         1 UNK         0.0832 
    145 H145      -43.3942  -23.6473    9.3831 H         1 UNK         0.0832 
    146 H146      -43.7550  -22.0534    8.7163 H         1 UNK         0.0832 
    147 H147      -45.2099  -23.8101    7.6381 H         1 UNK         0.3156 
    148 H148      -48.1913  -23.9491    6.1726 H         1 UNK         0.0589 
    149 H149      -45.4257  -25.2852    6.1100 H         1 UNK         0.0808 
    150 H150      -46.4944  -25.0506    4.7352 H         1 UNK         0.0808 
    151 H151      -45.8080  -23.6586    5.5446 H         1 UNK         0.0808 
    152 H152      -49.0306  -25.9552    6.3823 H         1 UNK         0.3098 
    153 H153      -47.8874  -29.0250    6.6707 H         1 UNK         0.0720 
    154 H154      -49.2085  -29.8017    8.7013 H         1 UNK         0.0791 
    155 H155      -48.9012  -28.2329    9.4469 H         1 UNK         0.0791 
    156 H156      -47.5660  -29.3115    9.0459 H         1 UNK         0.0791 
    157 H157      -50.4644  -27.8200    7.4436 H         1 UNK         0.3028 
@<TRIPOS>BOND
     1    1    2 1    
     2    1   82 1    
     3    1   83 1    
     4    1   84 1    
     5    2    3 2    
     6    2    4 am   BACKBONE|DICT|INTERRES
     7    4    5 1    
     8    4   85 1    
     9    5    6 1    
    10    5   80 1    
    11    5   86 1    
    12    6    7 1    
    13    6   87 1    
    14    6   88 1    
    15    7    8 1    
    16    8    9 1    
    17    8   89 1    
    18    8   90 1    
    19    9   10 ar   
    20    9   14 ar   
    21   10   11 ar   
    22   10   91 1    
    23   11   12 ar   
    24   11   58 1    
    25   12   13 ar   
    26   12   92 1    
    27   13   14 ar   
    28   13   15 1    
    29   14   93 1    
    30   15   16 1    
    31   15   94 1    
    32   15   95 1    
    33   16   17 1    
    34   17   18 1    
    35   17   96 1    
    36   17   97 1    
    37   18   19 1    
    38   18   22 1    
    39   18   98 1    
    40   19   20 am   BACKBONE|DICT|INTERRES
    41   19   21 2    
    42   20   99 1    
    43   20  100 1    
    44   22   23 am   BACKBONE|DICT|INTERRES
    45   22  101 1    
    46   23   24 2    
    47   23   25 1    
    48   25   26 1    
    49   25   27 1    
    50   25  102 1    
    51   26  103 1    
    52   26  104 1    
    53   26  105 1    
    54   27   28 am   BACKBONE|DICT|INTERRES
    55   27  106 1    
    56   28   29 2    
    57   28   30 1    
    58   30   31 1    
    59   30   32 1    
    60   30  107 1    
    61   31  108 1    
    62   31  109 1    
    63   31  110 1    
    64   32   33 am   BACKBONE|DICT|INTERRES
    65   32  111 1    
    66   33   34 2    
    67   33   35 1    
    68   35   36 1    
    69   35   37 1    
    70   35  112 1    
    71   36  113 1    
    72   36  114 1    
    73   36  115 1    
    74   37   38 am   BACKBONE|DICT|INTERRES
    75   37  116 1    
    76   38   39 2    
    77   38   40 1    
    78   40   41 1    
    79   40   42 1    
    80   40  117 1    
    81   41  118 1    
    82   41  119 1    
    83   41  120 1    
    84   42   43 am   BACKBONE|DICT|INTERRES
    85   42  121 1    
    86   43   44 2    
    87   43   45 1    
    88   45   46 1    
    89   45   47 1    
    90   45  122 1    
    91   46  123 1    
    92   46  124 1    
    93   46  125 1    
    94   47   48 am   BACKBONE|DICT|INTERRES
    95   47  126 1    
    96   48   49 2    
    97   48   50 1    
    98   50   51 1    
    99   50   52 1    
   100   50  127 1    
   101   51  128 1    
   102   51  129 1    
   103   51  130 1    
   104   52   53 am   BACKBONE|DICT|INTERRES
   105   52  131 1    
   106   53   54 2    
   107   53   55 1    
   108   55   56 1    
   109   55   59 1    
   110   55  132 1    
   111   56   57 1    
   112   56  133 1    
   113   56  134 1    
   114   57   58 1    
   115   58  135 1    
   116   58  136 1    
   117   59   60 am   BACKBONE|DICT|INTERRES
   118   59  137 1    
   119   60   61 2    
   120   60   62 1    
   121   62   63 1    
   122   62   64 1    
   123   62  138 1    
   124   63  139 1    
   125   63  140 1    
   126   63  141 1    
   127   64   65 am   BACKBONE|DICT|INTERRES
   128   64  142 1    
   129   65   66 2    
   130   65   67 1    
   131   67   68 1    
   132   67   69 1    
   133   67  143 1    
   134   68  144 1    
   135   68  145 1    
   136   68  146 1    
   137   69   70 am   BACKBONE|DICT|INTERRES
   138   69  147 1    
   139   70   71 2    
   140   70   72 1    
   141   72   73 1    
   142   72   74 1    
   143   72  148 1    
   144   73  149 1    
   145   73  150 1    
   146   73  151 1    
   147   74   75 am   BACKBONE|DICT|INTERRES
   148   74  152 1    
   149   75   76 2    
   150   75   77 1    
   151   77   78 1    
   152   77   79 1    
   153   77  153 1    
   154   78  154 1    
   155   78  155 1    
   156   78  156 1    
   157   79   80 am   BACKBONE|DICT|INTERRES
   158   79  157 1    
   159   80   81 2    
@<TRIPOS>SUBSTRUCTURE
     1 UNK         1 GROUP             0       ****    0 ROOT    
