@<TRIPOS>MOLECULE
3R207
157   159    1
SMALL
USER_CHARGES


@<TRIPOS>ATOM
      1 CA        -44.8829  -29.0781    5.0033 C.3       0 UNK        -0.1975 
      2 C         -46.2795  -28.5401    4.7304 C.2       0 UNK         0.4852 
      3 O         -46.4420  -27.6638    3.8793 O.2       0 UNK        -0.5216 
      4 N         -47.2898  -29.0563    5.4442 N.am      1 UNK        -0.4461 
      5 CA        -48.6789  -28.5908    5.3743 C.3       1 UNK         0.0864 
      6 C6        -49.6401  -29.5675    6.0971 C.3       14 UNK        -0.0898 
      7 S7        -51.3556  -29.3961    5.5005 S.3       14 UNK        -0.2598 
      8 C8        -52.2854  -30.3146    6.7695 C.3       14 UNK         0.0286 
      9 C9        -52.2484  -29.6413    8.1359 C.ar      14 UNK        -0.0844 
     10 C10       -52.7715  -28.3550    8.3077 C.ar      14 UNK        -0.0881 
     11 C11       -52.7590  -27.7446    9.5654 C.ar      14 UNK        -0.0643 
     12 C12       -52.2225  -28.4324   10.6558 C.ar      14 UNK        -0.0930 
     13 C13       -51.7132  -29.7242   10.5023 C.ar      14 UNK        -0.0827 
     14 C14       -51.7206  -30.3206    9.2386 C.ar      14 UNK        -0.1249 
     15 C15       -51.1580  -30.4754   11.7033 C.3       14 UNK         0.0141 
     16 S16       -52.4137  -31.5528   12.4672 S.3       14 UNK        -0.2313 
     17 C17       -53.5923  -30.3346   13.1402 C.3       14 UNK        -0.0915 
     18 CA        -54.8427  -30.1542   12.2347 C.3       13 UNK         0.0968 
     19 C         -55.9492  -31.1872   12.5875 C.2       13 UNK         0.5732 
     20 N         -55.9727  -32.3293   11.9142 N.am      13 UNK        -0.7310 
     21 O         -56.7561  -30.9779   13.4921 O.2       13 UNK        -0.5035 
     22 N         -55.3047  -28.7606   12.2758 N.am      13 UNK        -0.4233 
     23 C         -56.3235  -28.2314   11.5894 C.2       13 UNK         0.4989 
     24 O         -56.9944  -28.8621   10.7705 O.2       13 UNK        -0.4996 
     25 CA        -56.6440  -26.7409   11.8580 C.3       12 UNK         0.0216 
     26 CB        -58.0376  -26.3381   11.3387 C.3       12 UNK        -0.1964 
     27 N         -56.5370  -26.3518   13.2710 N.am      12 UNK        -0.4276 
     28 C         -55.4013  -26.1842   13.9596 C.2       12 UNK         0.5020 
     29 O         -54.2770  -26.3705   13.4838 O.2       12 UNK        -0.5489 
     30 CA        -55.5488  -25.8151   15.4387 C.3       11 UNK         0.0294 
     31 CB        -55.9760  -27.0494   16.2589 C.3       11 UNK        -0.2019 
     32 N         -54.2617  -25.3199   15.9118 N.am      11 UNK        -0.4493 
     33 C         -54.0248  -24.6794   17.0625 C.2       11 UNK         0.4932 
     34 O         -54.9078  -24.3570   17.8595 O.2       11 UNK        -0.5029 
     35 CA        -52.5482  -24.3569   17.3691 C.3       10 UNK         0.0280 
     36 CB        -52.2860  -24.0400   18.8567 C.3       10 UNK        -0.1976 
     37 N         -51.6408  -25.4002   16.8765 N.am      10 UNK        -0.4242 
     38 C         -51.5861  -26.6863   17.2580 C.2       10 UNK         0.5072 
     39 O         -52.2440  -27.1678   18.1811 O.2       10 UNK        -0.5224 
     40 CA        -50.6530  -27.6046   16.4502 C.3       9 UNK         0.0343 
     41 CB        -51.4154  -28.2263   15.2695 C.3       9 UNK        -0.2003 
     42 N         -49.4612  -26.9207   15.9449 N.am      9 UNK        -0.4272 
     43 C         -48.4526  -26.4807   16.7111 C.2       9 UNK         0.4988 
     44 O         -48.3866  -26.6516   17.9288 O.2       9 UNK        -0.5108 
     45 CA        -47.3369  -25.7025   15.9972 C.3       8 UNK         0.0248 
     46 CB        -46.3618  -26.6579   15.2888 C.3       8 UNK        -0.2001 
     47 N         -47.8807  -24.7414   15.0359 N.am      8 UNK        -0.4140 
     48 C         -48.4424  -23.5711   15.3729 C.2       8 UNK         0.5028 
     49 O         -48.5077  -23.1482   16.5272 O.2       8 UNK        -0.5428 
     50 CA        -49.0384  -22.7271   14.2325 C.3       7 UNK         0.0264 
     51 CB        -47.9876  -21.7512   13.6789 C.3       7 UNK        -0.1988 
     52 N         -49.5749  -23.5340   13.1339 N.am      7 UNK        -0.4454 
     53 C         -50.6747  -24.2971   13.2168 C.2       7 UNK         0.5027 
     54 O         -51.3654  -24.3948   14.2304 O.2       7 UNK        -0.5083 
     55 CA        -51.0321  -25.1232   11.9684 C.3       6 UNK         0.0844 
     56 C56       -51.8553  -24.2724   10.9666 C.3       14 UNK        -0.0967 
     57 S57       -52.1339  -25.0650    9.3427 S.3       14 UNK        -0.2604 
     58 C58       -53.3470  -26.3546    9.7492 C.3       14 UNK         0.0134 
     59 N         -49.8497  -25.7319   11.3558 N.am      6 UNK        -0.4116 
     60 C         -49.0217  -26.6139   11.9221 C.2       5 UNK         0.5034 
     61 O         -49.1125  -26.9782   13.0943 O.2       5 UNK        -0.5045 
     62 CA        -47.8979  -27.1871   11.0408 C.3       5 UNK         0.0224 
     63 CB        -48.4740  -28.1155    9.9539 C.3       5 UNK        -0.1978 
     64 N         -46.9791  -26.2030   10.4444 N.am      5 UNK        -0.4737 
     65 C         -47.2405  -25.2177    9.5721 C.2       4 UNK         0.5027 
     66 O         -48.3749  -24.8602    9.2513 O.2       4 UNK        -0.5211 
     67 CA        -46.0390  -24.5249    8.9097 C.3       4 UNK         0.0297 
     68 CB        -44.6802  -25.2216    9.1378 C.3       4 UNK        -0.1993 
     69 N         -46.3318  -24.4627    7.4828 N.am      4 UNK        -0.4486 
     70 C         -45.9660  -23.4898    6.6402 C.2       3 UNK         0.4961 
     71 O         -45.2138  -22.5644    6.9483 O.2       3 UNK        -0.5105 
     72 CA        -46.5444  -23.5438    5.2101 C.3       3 UNK         0.0299 
     73 CB        -45.5147  -24.1416    4.2383 C.3       3 UNK        -0.1972 
     74 N         -47.7885  -24.3150    5.1257 N.am      3 UNK        -0.4305 
     75 C         -48.9506  -23.9549    5.6920 C.2       2 UNK         0.5006 
     76 O         -49.1475  -22.8369    6.1706 O.2       2 UNK        -0.5106 
     77 CA        -50.0808  -25.0048    5.7641 C.3       2 UNK         0.0296 
     78 CB        -51.3065  -24.5484    4.9546 C.3       2 UNK        -0.2002 
     79 N         -49.7246  -26.3691    5.3518 N.am      2 UNK        -0.4032 
     80 C         -48.8047  -27.1555    5.9283 C.2       1 UNK         0.5000 
     81 O         -48.0627  -26.7876    6.8412 O.2       1 UNK        -0.5238 
     82 H82       -44.4586  -29.4997    4.0925 H         1 UNK         0.0889 
     83 H83       -44.8871  -29.8551    5.7675 H         1 UNK         0.0889 
     84 H84       -44.2321  -28.2724    5.3422 H         1 UNK         0.0889 
     85 H85       -47.0935  -29.7497    6.1512 H         1 UNK         0.3028 
     86 H86       -48.9410  -28.5698    4.3137 H         1 UNK         0.0864 
     87 H87       -49.6003  -29.4317    7.1800 H         1 UNK         0.0720 
     88 H88       -49.3413  -30.6002    5.9096 H         1 UNK         0.0720 
     89 H89       -51.8982  -31.3332    6.8240 H         1 UNK         0.0814 
     90 H90       -53.3247  -30.4001    6.4494 H         1 UNK         0.0814 
     91 H91       -53.1865  -27.8275    7.4597 H         1 UNK         0.1469 
     92 H92       -52.2202  -27.9706   11.6315 H         1 UNK         0.1381 
     93 H93       -51.3266  -31.3207    9.1192 H         1 UNK         0.1206 
     94 H94       -50.3118  -31.0896   11.3921 H         1 UNK         0.0813 
     95 H95       -50.7666  -29.7774   12.4448 H         1 UNK         0.0813 
     96 H96       -53.0633  -29.3900   13.2612 H         1 UNK         0.0638 
     97 H97       -53.8686  -30.6320   14.1537 H         1 UNK         0.0638 
     98 H98       -54.5525  -30.3218   11.1955 H         1 UNK         0.0568 
     99 H99       -56.6730  -33.0182   12.1393 H         1 UNK         0.3450 
    100 H100      -55.2934  -32.5191   11.1940 H         1 UNK         0.3450 
    101 H101      -54.7979  -28.1340   12.8917 H         1 UNK         0.2987 
    102 H102      -55.9138  -26.1575   11.2967 H         1 UNK         0.0766 
    103 H103      -58.2293  -25.2763   11.4949 H         1 UNK         0.0798 
    104 H104      -58.8302  -26.9004   11.8340 H         1 UNK         0.0798 
    105 H105      -58.1271  -26.5226   10.2671 H         1 UNK         0.0798 
    106 H106      -57.4124  -26.2246   13.7592 H         1 UNK         0.3198 
    107 H107      -56.2934  -25.0220   15.5331 H         1 UNK         0.0843 
    108 H108      -55.2340  -27.8469   16.1972 H         1 UNK         0.0831 
    109 H109      -56.9231  -27.4565   15.9029 H         1 UNK         0.0831 
    110 H110      -56.1116  -26.8039   17.3122 H         1 UNK         0.0831 
    111 H111      -53.4970  -25.4940   15.2672 H         1 UNK         0.3133 
    112 H112      -52.3099  -23.4595   16.7965 H         1 UNK         0.0566 
    113 H113      -51.2331  -23.8203   19.0342 H         1 UNK         0.0814 
    114 H114      -52.8572  -23.1676   19.1759 H         1 UNK         0.0814 
    115 H115      -52.5709  -24.8685   19.5056 H         1 UNK         0.0814 
    116 H116      -51.1204  -25.1382   16.0449 H         1 UNK         0.3091 
    117 H117      -50.3273  -28.4110   17.1108 H         1 UNK         0.0702 
    118 H118      -50.7992  -28.9552   14.7436 H         1 UNK         0.0785 
    119 H119      -51.7311  -27.4710   14.5481 H         1 UNK         0.0785 
    120 H120      -52.3112  -28.7455   15.6131 H         1 UNK         0.0785 
    121 H121      -49.3974  -26.8014   14.9364 H         1 UNK         0.2998 
    122 H122      -46.7748  -25.1523   16.7552 H         1 UNK         0.0697 
    123 H123      -46.8545  -27.2503   14.5175 H         1 UNK         0.0825 
    124 H124      -45.9197  -27.3568   16.0001 H         1 UNK         0.0825 
    125 H125      -45.5421  -26.1126   14.8207 H         1 UNK         0.0825 
    126 H126      -47.9001  -25.0256   14.0678 H         1 UNK         0.3029 
    127 H127      -49.8597  -22.1428   14.6541 H         1 UNK         0.0897 
    128 H128      -48.4176  -21.0888   12.9273 H         1 UNK         0.0792 
    129 H129      -47.5868  -21.1191   14.4728 H         1 UNK         0.0792 
    130 H130      -47.1460  -22.2754   13.2242 H         1 UNK         0.0792 
    131 H131      -49.0691  -23.5153   12.2596 H         1 UNK         0.3086 
    132 H132      -51.6669  -25.9393   12.3131 H         1 UNK         0.0583 
    133 H133      -52.8221  -24.0090   11.4007 H         1 UNK         0.1020 
    134 H134      -51.3504  -23.3250   10.7668 H         1 UNK         0.1020 
    135 H135      -53.6924  -26.2293   10.7751 H         1 UNK         0.0694 
    136 H136      -54.2241  -26.2340    9.1118 H         1 UNK         0.0694 
    137 H137      -49.6358  -25.4487   10.4003 H         1 UNK         0.2989 
    138 H138      -47.2807  -27.8045   11.6960 H         1 UNK         0.1055 
    139 H139      -47.6859  -28.5364    9.3296 H         1 UNK         0.0806 
    140 H140      -49.1728  -27.5952    9.2966 H         1 UNK         0.0806 
    141 H141      -49.0099  -28.9510   10.4019 H         1 UNK         0.0806 
    142 H142      -46.0033  -26.3682   10.6492 H         1 UNK         0.3061 
    143 H143      -45.9931  -23.5122    9.3155 H         1 UNK         0.0734 
    144 H144      -43.8807  -24.6992    8.6119 H         1 UNK         0.0832 
    145 H145      -44.4073  -25.2296   10.1937 H         1 UNK         0.0832 
    146 H146      -44.6877  -26.2524    8.7803 H         1 UNK         0.0832 
    147 H147      -46.9984  -25.1656    7.1659 H         1 UNK         0.3156 
    148 H148      -46.7576  -22.5191    4.8987 H         1 UNK         0.0589 
    149 H149      -45.2609  -25.1694    4.5017 H         1 UNK         0.0808 
    150 H150      -44.5887  -23.5649    4.2482 H         1 UNK         0.0808 
    151 H151      -45.8859  -24.1396    3.2133 H         1 UNK         0.0808 
    152 H152      -47.7119  -25.2516    4.7543 H         1 UNK         0.3098 
    153 H153      -50.3722  -25.0612    6.8150 H         1 UNK         0.0720 
    154 H154      -51.6373  -23.5571    5.2681 H         1 UNK         0.0791 
    155 H155      -52.1497  -25.2249    5.0964 H         1 UNK         0.0791 
    156 H156      -51.0882  -24.4976    3.8873 H         1 UNK         0.0791 
    157 H157      -50.2836  -26.7637    4.6087 H         1 UNK         0.3028 
@<TRIPOS>BOND
     1    1    2 1    
     2    1   82 1    
     3    1   83 1    
     4    1   84 1    
     5    2    3 2    
     6    2    4 am   BACKBONE|DICT|INTERRES
     7    4    5 1    
     8    4   85 1    
     9    5    6 1    
    10    5   80 1    
    11    5   86 1    
    12    6    7 1    
    13    6   87 1    
    14    6   88 1    
    15    7    8 1    
    16    8    9 1    
    17    8   89 1    
    18    8   90 1    
    19    9   10 ar   
    20    9   14 ar   
    21   10   11 ar   
    22   10   91 1    
    23   11   12 ar   
    24   11   58 1    
    25   12   13 ar   
    26   12   92 1    
    27   13   14 ar   
    28   13   15 1    
    29   14   93 1    
    30   15   16 1    
    31   15   94 1    
    32   15   95 1    
    33   16   17 1    
    34   17   18 1    
    35   17   96 1    
    36   17   97 1    
    37   18   19 1    
    38   18   22 1    
    39   18   98 1    
    40   19   20 am   BACKBONE|DICT|INTERRES
    41   19   21 2    
    42   20   99 1    
    43   20  100 1    
    44   22   23 am   BACKBONE|DICT|INTERRES
    45   22  101 1    
    46   23   24 2    
    47   23   25 1    
    48   25   26 1    
    49   25   27 1    
    50   25  102 1    
    51   26  103 1    
    52   26  104 1    
    53   26  105 1    
    54   27   28 am   BACKBONE|DICT|INTERRES
    55   27  106 1    
    56   28   29 2    
    57   28   30 1    
    58   30   31 1    
    59   30   32 1    
    60   30  107 1    
    61   31  108 1    
    62   31  109 1    
    63   31  110 1    
    64   32   33 am   BACKBONE|DICT|INTERRES
    65   32  111 1    
    66   33   34 2    
    67   33   35 1    
    68   35   36 1    
    69   35   37 1    
    70   35  112 1    
    71   36  113 1    
    72   36  114 1    
    73   36  115 1    
    74   37   38 am   BACKBONE|DICT|INTERRES
    75   37  116 1    
    76   38   39 2    
    77   38   40 1    
    78   40   41 1    
    79   40   42 1    
    80   40  117 1    
    81   41  118 1    
    82   41  119 1    
    83   41  120 1    
    84   42   43 am   BACKBONE|DICT|INTERRES
    85   42  121 1    
    86   43   44 2    
    87   43   45 1    
    88   45   46 1    
    89   45   47 1    
    90   45  122 1    
    91   46  123 1    
    92   46  124 1    
    93   46  125 1    
    94   47   48 am   BACKBONE|DICT|INTERRES
    95   47  126 1    
    96   48   49 2    
    97   48   50 1    
    98   50   51 1    
    99   50   52 1    
   100   50  127 1    
   101   51  128 1    
   102   51  129 1    
   103   51  130 1    
   104   52   53 am   BACKBONE|DICT|INTERRES
   105   52  131 1    
   106   53   54 2    
   107   53   55 1    
   108   55   56 1    
   109   55   59 1    
   110   55  132 1    
   111   56   57 1    
   112   56  133 1    
   113   56  134 1    
   114   57   58 1    
   115   58  135 1    
   116   58  136 1    
   117   59   60 am   BACKBONE|DICT|INTERRES
   118   59  137 1    
   119   60   61 2    
   120   60   62 1    
   121   62   63 1    
   122   62   64 1    
   123   62  138 1    
   124   63  139 1    
   125   63  140 1    
   126   63  141 1    
   127   64   65 am   BACKBONE|DICT|INTERRES
   128   64  142 1    
   129   65   66 2    
   130   65   67 1    
   131   67   68 1    
   132   67   69 1    
   133   67  143 1    
   134   68  144 1    
   135   68  145 1    
   136   68  146 1    
   137   69   70 am   BACKBONE|DICT|INTERRES
   138   69  147 1    
   139   70   71 2    
   140   70   72 1    
   141   72   73 1    
   142   72   74 1    
   143   72  148 1    
   144   73  149 1    
   145   73  150 1    
   146   73  151 1    
   147   74   75 am   BACKBONE|DICT|INTERRES
   148   74  152 1    
   149   75   76 2    
   150   75   77 1    
   151   77   78 1    
   152   77   79 1    
   153   77  153 1    
   154   78  154 1    
   155   78  155 1    
   156   78  156 1    
   157   79   80 am   BACKBONE|DICT|INTERRES
   158   79  157 1    
   159   80   81 2    
@<TRIPOS>SUBSTRUCTURE
     1 UNK         1 GROUP             0       ****    0 ROOT    
