@<TRIPOS>MOLECULE
3R207
157   159    1
SMALL
USER_CHARGES


@<TRIPOS>ATOM
      1 CA        -51.7374  -26.8268    1.6869 C.3       0 UNK        -0.1975 
      2 C         -52.5566  -26.9081    2.9663 C.2       0 UNK         0.4852 
      3 O         -53.2109  -25.9333    3.3372 O.2       0 UNK        -0.5216 
      4 N         -52.5228  -28.0628    3.6446 N.am      1 UNK        -0.4461 
      5 CA        -53.2371  -28.3338    4.8996 C.3       1 UNK         0.0864 
      6 C6        -53.4503  -29.8523    5.1530 C.3       14 UNK        -0.0898 
      7 S7        -52.0785  -30.9613    4.6610 S.3       14 UNK        -0.2598 
      8 C8        -50.8294  -30.7474    5.9753 C.3       14 UNK         0.0286 
      9 C9        -51.3747  -30.8626    7.3949 C.ar      14 UNK        -0.0844 
     10 C10       -51.0109  -29.9031    8.3439 C.ar      14 UNK        -0.0881 
     11 C11       -51.4929  -29.9742    9.6538 C.ar      14 UNK        -0.0643 
     12 C12       -52.3332  -31.0291   10.0110 C.ar      14 UNK        -0.0930 
     13 C13       -52.7420  -31.9752    9.0678 C.ar      14 UNK        -0.0827 
     14 C14       -52.2360  -31.9025    7.7661 C.ar      14 UNK        -0.1249 
     15 C15       -53.7398  -33.0643    9.4487 C.3       14 UNK         0.0141 
     16 S16       -55.1555  -32.4407   10.4266 S.3       14 UNK        -0.2313 
     17 C17       -56.0252  -31.3592    9.2384 C.3       14 UNK        -0.0915 
     18 CA        -55.8452  -29.8306    9.4847 C.3       13 UNK         0.0968 
     19 C         -56.6687  -29.0195    8.4555 C.2       13 UNK         0.5732 
     20 N         -56.0349  -28.2558    7.5791 N.am      13 UNK        -0.7310 
     21 O         -57.8970  -29.0884    8.4414 O.2       13 UNK        -0.5035 
     22 N         -56.2764  -29.4073   10.8247 N.am      13 UNK        -0.4233 
     23 C         -55.4636  -29.0858   11.8366 C.2       13 UNK         0.4989 
     24 O         -54.2385  -29.1972   11.7904 O.2       13 UNK        -0.4996 
     25 CA        -56.1347  -28.5648   13.1251 C.3       12 UNK         0.0216 
     26 CB        -57.0881  -29.6174   13.7214 C.3       12 UNK        -0.1964 
     27 N         -55.1330  -28.2185   14.1387 N.am      12 UNK        -0.4276 
     28 C         -54.3822  -27.1092   14.1413 C.2       12 UNK         0.5020 
     29 O         -54.5649  -26.1442   13.3938 O.2       12 UNK        -0.5489 
     30 CA        -53.1875  -27.1330   15.1105 C.3       11 UNK         0.0294 
     31 CB        -52.0525  -27.9952   14.5308 C.3       11 UNK        -0.2019 
     32 N         -52.6540  -25.8019   15.3970 N.am      11 UNK        -0.4493 
     33 C         -53.1949  -24.9164   16.2428 C.2       11 UNK         0.4932 
     34 O         -54.2555  -25.0968   16.8447 O.2       11 UNK        -0.5029 
     35 CA        -52.3595  -23.6425   16.4867 C.3       10 UNK         0.0280 
     36 CB        -52.9321  -22.7287   17.5909 C.3       10 UNK        -0.1976 
     37 N         -50.9505  -23.9766   16.7377 N.am      10 UNK        -0.4242 
     38 C         -50.4529  -24.7143   17.7432 C.2       10 UNK         0.5072 
     39 O         -51.1040  -25.0784   18.7234 O.2       10 UNK        -0.5224 
     40 CA        -48.9871  -25.1714   17.6228 C.3       9 UNK         0.0343 
     41 CB        -48.9319  -26.6273   17.1313 C.3       9 UNK        -0.2003 
     42 N         -48.1742  -24.3403   16.7311 N.am      9 UNK        -0.4272 
     43 C         -47.7216  -23.1173   17.0412 C.2       9 UNK         0.4988 
     44 O         -47.9227  -22.5658   18.1240 O.2       9 UNK        -0.5108 
     45 CA        -46.9154  -22.3792   15.9586 C.3       8 UNK         0.0248 
     46 CB        -45.4611  -22.8767   15.9313 C.3       8 UNK        -0.2001 
     47 N         -47.5043  -22.5017   14.6225 N.am      8 UNK        -0.4140 
     48 C         -48.6984  -22.0035   14.2685 C.2       8 UNK         0.5028 
     49 O         -49.4186  -21.3436   15.0178 O.2       8 UNK        -0.5428 
     50 CA        -49.1948  -22.3278   12.8504 C.3       7 UNK         0.0264 
     51 CB        -48.5439  -21.4010   11.8113 C.3       7 UNK        -0.1988 
     52 N         -48.9651  -23.7237   12.4762 N.am      7 UNK        -0.4454 
     53 C         -49.5239  -24.7810   13.0846 C.2       7 UNK         0.5027 
     54 O         -50.3240  -24.7032   14.0166 O.2       7 UNK        -0.5083 
     55 CA        -49.1064  -26.1675   12.5675 C.3       6 UNK         0.0844 
     56 C56       -49.9054  -26.4886   11.2832 C.3       14 UNK        -0.0967 
     57 S57       -49.5601  -28.1380   10.5879 S.3       14 UNK        -0.2604 
     58 C58       -51.2298  -28.8666   10.6658 C.3       14 UNK         0.0134 
     59 N         -47.6544  -26.2517   12.3880 N.am      6 UNK        -0.4116 
     60 C         -46.7533  -26.1380   13.3758 C.2       5 UNK         0.5034 
     61 O         -47.0454  -25.9875   14.5619 O.2       5 UNK        -0.5045 
     62 CA        -45.2729  -26.1379   12.9621 C.3       5 UNK         0.0224 
     63 CB        -44.7691  -27.5734   12.7439 C.3       5 UNK        -0.1978 
     64 N         -45.0261  -25.3396   11.7584 N.am      5 UNK        -0.4737 
     65 C         -45.2105  -24.0138   11.6754 C.2       4 UNK         0.5027 
     66 O         -45.5538  -23.3097   12.6242 O.2       4 UNK        -0.5211 
     67 CA        -45.0431  -23.3803   10.2825 C.3       4 UNK         0.0297 
     68 CB        -43.5722  -23.0158   10.0285 C.3       4 UNK        -0.1993 
     69 N         -45.5386  -24.2356    9.1959 N.am      4 UNK        -0.4486 
     70 C         -46.8068  -24.6515    9.0847 C.2       3 UNK         0.4961 
     71 O         -47.7010  -24.3354    9.8769 O.2       3 UNK        -0.5105 
     72 CA        -47.1203  -25.6170    7.9339 C.3       3 UNK         0.0299 
     73 CB        -46.4797  -26.9976    8.1816 C.3       3 UNK        -0.1972 
     74 N         -48.5701  -25.7425    7.8557 N.am      3 UNK        -0.4305 
     75 C         -49.2908  -26.2512    6.8544 C.2       2 UNK         0.5006 
     76 O         -48.8155  -26.7029    5.8090 O.2       2 UNK        -0.5106 
     77 CA        -50.8087  -26.2343    7.0652 C.3       2 UNK         0.0296 
     78 CB        -51.3638  -24.7962    7.0449 C.3       2 UNK        -0.2002 
     79 N         -51.4564  -27.0273    6.0246 N.am      2 UNK        -0.4032 
     80 C         -52.6574  -27.6074    6.1351 C.2       1 UNK         0.5000 
     81 O         -53.3290  -27.5710    7.1682 O.2       1 UNK        -0.5238 
     82 H82       -50.9973  -26.0308    1.7651 H         1 UNK         0.0889 
     83 H83       -51.2124  -27.7590    1.4786 H         1 UNK         0.0889 
     84 H84       -52.3864  -26.6070    0.8396 H         1 UNK         0.0889 
     85 H85       -51.9788  -28.8386    3.2913 H         1 UNK         0.3028 
     86 H86       -54.2348  -27.9036    4.7846 H         1 UNK         0.0864 
     87 H87       -54.3105  -30.1728    4.5635 H         1 UNK         0.0720 
     88 H88       -53.7415  -30.0560    6.1852 H         1 UNK         0.0720 
     89 H89       -50.3416  -29.7829    5.8268 H         1 UNK         0.0814 
     90 H90       -50.0529  -31.5014    5.8411 H         1 UNK         0.0814 
     91 H91       -50.3701  -29.0827    8.0552 H         1 UNK         0.1469 
     92 H92       -52.7222  -31.0808   11.0181 H         1 UNK         0.1381 
     93 H93       -52.5323  -32.6390    7.0318 H         1 UNK         0.1206 
     94 H94       -54.1218  -33.5686    8.5598 H         1 UNK         0.0813 
     95 H95       -53.2183  -33.8227   10.0338 H         1 UNK         0.0813 
     96 H96       -55.6950  -31.6139    8.2296 H         1 UNK         0.0638 
     97 H97       -57.0827  -31.6262    9.2827 H         1 UNK         0.0638 
     98 H98       -54.7913  -29.5834    9.3407 H         1 UNK         0.0568 
     99 H99       -55.0240  -28.1381    7.5943 H         1 UNK         0.3450 
    100 H100      -56.5824  -27.7320    6.9160 H         1 UNK         0.3450 
    101 H101      -57.2722  -29.2672   10.9215 H         1 UNK         0.2987 
    102 H102      -56.7065  -27.6693   12.8729 H         1 UNK         0.0766 
    103 H103      -57.9103  -29.8428   13.0414 H         1 UNK         0.0798 
    104 H104      -57.5342  -29.2661   14.6522 H         1 UNK         0.0798 
    105 H105      -56.5727  -30.5561   13.9302 H         1 UNK         0.0798 
    106 H106      -54.8685  -28.9672   14.7622 H         1 UNK         0.3198 
    107 H107      -53.5172  -27.5772   16.0525 H         1 UNK         0.0843 
    108 H108      -51.2039  -28.0516   15.2122 H         1 UNK         0.0831 
    109 H109      -51.6988  -27.5969   13.5803 H         1 UNK         0.0831 
    110 H110      -52.3850  -29.0175   14.3458 H         1 UNK         0.0831 
    111 H111      -51.8103  -25.5260   14.9014 H         1 UNK         0.3133 
    112 H112      -52.3753  -23.0795   15.5522 H         1 UNK         0.0566 
    113 H113      -53.9355  -22.3894   17.3311 H         1 UNK         0.0814 
    114 H114      -53.0034  -23.2412   18.5505 H         1 UNK         0.0814 
    115 H115      -52.3146  -21.8412   17.7289 H         1 UNK         0.0814 
    116 H116      -50.3301  -23.7923   15.9580 H         1 UNK         0.3091 
    117 H117      -48.5493  -25.1334   18.6225 H         1 UNK         0.0702 
    118 H118      -49.3251  -26.7222   16.1185 H         1 UNK         0.0785 
    119 H119      -49.5195  -27.2837   17.7746 H         1 UNK         0.0785 
    120 H120      -47.9096  -27.0058   17.1285 H         1 UNK         0.0785 
    121 H121      -47.9074  -24.7542   15.8420 H         1 UNK         0.2998 
    122 H122      -46.9056  -21.3187   16.2188 H         1 UNK         0.0697 
    123 H123      -44.8591  -22.3008   15.2281 H         1 UNK         0.0825 
    124 H124      -44.9955  -22.7793   16.9129 H         1 UNK         0.0825 
    125 H125      -45.3982  -23.9262   15.6415 H         1 UNK         0.0825 
    126 H126      -46.9443  -22.9762   13.9180 H         1 UNK         0.3029 
    127 H127      -50.2733  -22.1559   12.8315 H         1 UNK         0.0897 
    128 H128      -48.9325  -21.5921   10.8107 H         1 UNK         0.0792 
    129 H129      -48.7442  -20.3542   12.0437 H         1 UNK         0.0792 
    130 H130      -47.4615  -21.5261   11.7779 H         1 UNK         0.0792 
    131 H131      -48.3486  -23.8900   11.6852 H         1 UNK         0.3086 
    132 H132      -49.3775  -26.8992   13.3312 H         1 UNK         0.0583 
    133 H133      -50.9732  -26.3969   11.4915 H         1 UNK         0.1020 
    134 H134      -49.7090  -25.7527   10.5057 H         1 UNK         0.1020 
    135 H135      -51.3990  -29.2264   11.6818 H         1 UNK         0.0694 
    136 H136      -51.9801  -28.0974   10.4790 H         1 UNK         0.0694 
    137 H137      -47.3262  -26.3425   11.4390 H         1 UNK         0.2989 
    138 H138      -44.7036  -25.6941   13.7821 H         1 UNK         0.1055 
    139 H139      -44.9307  -28.1819   13.6350 H         1 UNK         0.0806 
    140 H140      -45.2830  -28.0647   11.9166 H         1 UNK         0.0806 
    141 H141      -43.6997  -27.5905   12.5329 H         1 UNK         0.0806 
    142 H142      -44.7353  -25.8345   10.9280 H         1 UNK         0.3061 
    143 H143      -45.6293  -22.4590   10.2702 H         1 UNK         0.0734 
    144 H144      -43.4519  -22.4817    9.0858 H         1 UNK         0.0832 
    145 H145      -43.1914  -22.3651   10.8172 H         1 UNK         0.0832 
    146 H146      -42.9334  -23.8994    9.9994 H         1 UNK         0.0832 
    147 H147      -44.8641  -24.5337    8.5052 H         1 UNK         0.3156 
    148 H148      -46.7457  -25.1880    7.0025 H         1 UNK         0.0589 
    149 H149      -46.7031  -27.6916    7.3713 H         1 UNK         0.0808 
    150 H150      -45.3936  -26.9274    8.2476 H         1 UNK         0.0808 
    151 H151      -46.8369  -27.4473    9.1089 H         1 UNK         0.0808 
    152 H152      -49.0370  -25.3261    8.6518 H         1 UNK         0.3098 
    153 H153      -51.0129  -26.6864    8.0384 H         1 UNK         0.0720 
    154 H154      -50.9078  -24.1792    7.8199 H         1 UNK         0.0791 
    155 H155      -51.1790  -24.3096    6.0864 H         1 UNK         0.0791 
    156 H156      -52.4396  -24.7843    7.2212 H         1 UNK         0.0791 
    157 H157      -50.9205  -27.1330    5.1729 H         1 UNK         0.3028 
@<TRIPOS>BOND
     1    1    2 1    
     2    1   82 1    
     3    1   83 1    
     4    1   84 1    
     5    2    3 2    
     6    2    4 am   BACKBONE|DICT|INTERRES
     7    4    5 1    
     8    4   85 1    
     9    5    6 1    
    10    5   80 1    
    11    5   86 1    
    12    6    7 1    
    13    6   87 1    
    14    6   88 1    
    15    7    8 1    
    16    8    9 1    
    17    8   89 1    
    18    8   90 1    
    19    9   10 ar   
    20    9   14 ar   
    21   10   11 ar   
    22   10   91 1    
    23   11   12 ar   
    24   11   58 1    
    25   12   13 ar   
    26   12   92 1    
    27   13   14 ar   
    28   13   15 1    
    29   14   93 1    
    30   15   16 1    
    31   15   94 1    
    32   15   95 1    
    33   16   17 1    
    34   17   18 1    
    35   17   96 1    
    36   17   97 1    
    37   18   19 1    
    38   18   22 1    
    39   18   98 1    
    40   19   20 am   BACKBONE|DICT|INTERRES
    41   19   21 2    
    42   20   99 1    
    43   20  100 1    
    44   22   23 am   BACKBONE|DICT|INTERRES
    45   22  101 1    
    46   23   24 2    
    47   23   25 1    
    48   25   26 1    
    49   25   27 1    
    50   25  102 1    
    51   26  103 1    
    52   26  104 1    
    53   26  105 1    
    54   27   28 am   BACKBONE|DICT|INTERRES
    55   27  106 1    
    56   28   29 2    
    57   28   30 1    
    58   30   31 1    
    59   30   32 1    
    60   30  107 1    
    61   31  108 1    
    62   31  109 1    
    63   31  110 1    
    64   32   33 am   BACKBONE|DICT|INTERRES
    65   32  111 1    
    66   33   34 2    
    67   33   35 1    
    68   35   36 1    
    69   35   37 1    
    70   35  112 1    
    71   36  113 1    
    72   36  114 1    
    73   36  115 1    
    74   37   38 am   BACKBONE|DICT|INTERRES
    75   37  116 1    
    76   38   39 2    
    77   38   40 1    
    78   40   41 1    
    79   40   42 1    
    80   40  117 1    
    81   41  118 1    
    82   41  119 1    
    83   41  120 1    
    84   42   43 am   BACKBONE|DICT|INTERRES
    85   42  121 1    
    86   43   44 2    
    87   43   45 1    
    88   45   46 1    
    89   45   47 1    
    90   45  122 1    
    91   46  123 1    
    92   46  124 1    
    93   46  125 1    
    94   47   48 am   BACKBONE|DICT|INTERRES
    95   47  126 1    
    96   48   49 2    
    97   48   50 1    
    98   50   51 1    
    99   50   52 1    
   100   50  127 1    
   101   51  128 1    
   102   51  129 1    
   103   51  130 1    
   104   52   53 am   BACKBONE|DICT|INTERRES
   105   52  131 1    
   106   53   54 2    
   107   53   55 1    
   108   55   56 1    
   109   55   59 1    
   110   55  132 1    
   111   56   57 1    
   112   56  133 1    
   113   56  134 1    
   114   57   58 1    
   115   58  135 1    
   116   58  136 1    
   117   59   60 am   BACKBONE|DICT|INTERRES
   118   59  137 1    
   119   60   61 2    
   120   60   62 1    
   121   62   63 1    
   122   62   64 1    
   123   62  138 1    
   124   63  139 1    
   125   63  140 1    
   126   63  141 1    
   127   64   65 am   BACKBONE|DICT|INTERRES
   128   64  142 1    
   129   65   66 2    
   130   65   67 1    
   131   67   68 1    
   132   67   69 1    
   133   67  143 1    
   134   68  144 1    
   135   68  145 1    
   136   68  146 1    
   137   69   70 am   BACKBONE|DICT|INTERRES
   138   69  147 1    
   139   70   71 2    
   140   70   72 1    
   141   72   73 1    
   142   72   74 1    
   143   72  148 1    
   144   73  149 1    
   145   73  150 1    
   146   73  151 1    
   147   74   75 am   BACKBONE|DICT|INTERRES
   148   74  152 1    
   149   75   76 2    
   150   75   77 1    
   151   77   78 1    
   152   77   79 1    
   153   77  153 1    
   154   78  154 1    
   155   78  155 1    
   156   78  156 1    
   157   79   80 am   BACKBONE|DICT|INTERRES
   158   79  157 1    
   159   80   81 2    
@<TRIPOS>SUBSTRUCTURE
     1 UNK         1 GROUP             0       ****    0 ROOT    
