@<TRIPOS>MOLECULE
3R207
157   159    1
SMALL
USER_CHARGES


@<TRIPOS>ATOM
      1 CA        -50.3766  -29.3839    3.6875 C.3       0 UNK        -0.1975 
      2 C         -49.8662  -28.0481    4.2051 C.2       0 UNK         0.4852 
      3 O         -49.1090  -28.0270    5.1734 O.2       0 UNK        -0.5216 
      4 N         -50.2573  -26.9459    3.5459 N.am      1 UNK        -0.4461 
      5 CA        -50.0016  -25.5291    3.8735 C.3       1 UNK         0.0864 
      6 C6        -50.9939  -24.9543    4.9264 C.3       14 UNK        -0.0898 
      7 S7        -50.7301  -25.4939    6.6514 S.3       14 UNK        -0.2598 
      8 C8        -52.1252  -26.6342    6.8916 C.3       14 UNK         0.0286 
      9 C9        -52.1355  -27.2256    8.2942 C.ar      14 UNK        -0.0844 
     10 C10       -51.2461  -28.2504    8.6301 C.ar      14 UNK        -0.0881 
     11 C11       -51.2800  -28.8356    9.9003 C.ar      14 UNK        -0.0643 
     12 C12       -52.2173  -28.3904   10.8379 C.ar      14 UNK        -0.0930 
     13 C13       -53.1022  -27.3555   10.5189 C.ar      14 UNK        -0.0827 
     14 C14       -53.0528  -26.7734    9.2478 C.ar      14 UNK        -0.1249 
     15 C15       -54.1049  -26.8568   11.5489 C.3       14 UNK         0.0141 
     16 S16       -55.7880  -27.4199   11.1540 S.3       14 UNK        -0.2313 
     17 C17       -56.7480  -26.6888   12.5265 C.3       14 UNK        -0.0915 
     18 CA        -57.7293  -27.6865   13.1988 C.3       13 UNK         0.0968 
     19 C         -58.9236  -28.0570   12.2691 C.2       13 UNK         0.5732 
     20 N         -59.0829  -29.3079   11.8525 N.am      13 UNK        -0.7310 
     21 O         -59.7293  -27.1921   11.9325 O.2       13 UNK        -0.5035 
     22 N         -57.0124  -28.8225   13.7952 N.am      13 UNK        -0.4233 
     23 C         -57.4969  -29.6570   14.7210 C.2       13 UNK         0.4989 
     24 O         -58.6313  -29.5725   15.1927 O.2       13 UNK        -0.4996 
     25 CA        -56.5557  -30.7656   15.2305 C.3       12 UNK         0.0216 
     26 CB        -56.4648  -31.9320   14.2259 C.3       12 UNK        -0.1964 
     27 N         -55.2269  -30.2796   15.6354 N.am      12 UNK        -0.4276 
     28 C         -54.2617  -29.7536   14.8690 C.2       12 UNK         0.5020 
     29 O         -54.3227  -29.6617   13.6413 O.2       12 UNK        -0.5489 
     30 CA        -53.0344  -29.1914   15.6017 C.3       11 UNK         0.0294 
     31 CB        -51.7554  -29.9156   15.1577 C.3       11 UNK        -0.2019 
     32 N         -52.8948  -27.7555   15.3526 N.am      11 UNK        -0.4493 
     33 C         -53.7593  -26.8217   15.7763 C.2       11 UNK         0.4932 
     34 O         -54.7721  -27.0722   16.4328 O.2       11 UNK        -0.5029 
     35 CA        -53.4047  -25.3642   15.4283 C.3       10 UNK         0.0280 
     36 CB        -54.3473  -24.3327   16.0820 C.3       10 UNK        -0.1976 
     37 N         -52.0024  -25.0539   15.7238 N.am      10 UNK        -0.4242 
     38 C         -51.3663  -25.1421   16.9034 C.2       10 UNK         0.5072 
     39 O         -51.9171  -25.4319   17.9664 O.2       10 UNK        -0.5224 
     40 CA        -49.8453  -24.8884   16.9052 C.3       9 UNK         0.0343 
     41 CB        -49.0892  -26.2228   17.0084 C.3       9 UNK        -0.2003 
     42 N         -49.3696  -24.1594   15.7262 N.am      9 UNK        -0.4272 
     43 C         -49.6126  -22.8621   15.4895 C.2       9 UNK         0.4988 
     44 O         -50.1817  -22.1141   16.2851 O.2       9 UNK        -0.5108 
     45 CA        -49.1813  -22.3154   14.1192 C.3       8 UNK         0.0248 
     46 CB        -47.7050  -21.8890   14.1484 C.3       8 UNK        -0.2001 
     47 N         -49.4032  -23.2686   13.0266 N.am      8 UNK        -0.4140 
     48 C         -50.6053  -23.7203   12.6362 C.2       8 UNK         0.5028 
     49 O         -51.6688  -23.3580   13.1379 O.2       8 UNK        -0.5428 
     50 CA        -50.6282  -24.7925   11.5374 C.3       7 UNK         0.0264 
     51 CB        -50.3441  -24.1813   10.1600 C.3       7 UNK        -0.1988 
     52 N         -49.6855  -25.8777   11.8052 N.am      7 UNK        -0.4454 
     53 C         -49.8064  -26.7526   12.8154 C.2       7 UNK         0.5027 
     54 O         -50.7759  -26.7946   13.5762 O.2       7 UNK        -0.5083 
     55 CA        -48.6235  -27.7070   13.0705 C.3       6 UNK         0.0844 
     56 C56       -48.8733  -29.1426   12.5480 C.3       14 UNK        -0.0967 
     57 S57       -48.6856  -29.3637   10.7493 S.3       14 UNK        -0.2604 
     58 C58       -50.3247  -29.9709   10.2371 C.3       14 UNK         0.0134 
     59 N         -47.3417  -27.1405   12.6378 N.am      6 UNK        -0.4116 
     60 C         -46.7263  -26.1306   13.2697 C.2       5 UNK         0.5034 
     61 O         -47.1711  -25.5835   14.2800 O.2       5 UNK        -0.5045 
     62 CA        -45.4140  -25.6215   12.6521 C.3       5 UNK         0.0224 
     63 CB        -44.2836  -26.6486   12.8300 C.3       5 UNK        -0.1978 
     64 N         -45.5423  -25.2661   11.2360 N.am      5 UNK        -0.4737 
     65 C         -46.3363  -24.2948   10.7630 C.2       4 UNK         0.5027 
     66 O         -47.0606  -23.6026   11.4747 O.2       4 UNK        -0.5211 
     67 CA        -46.3367  -24.0509    9.2435 C.3       4 UNK         0.0297 
     68 CB        -45.3438  -22.9359    8.8812 C.3       4 UNK        -0.1993 
     69 N         -46.0475  -25.2372    8.4343 N.am      4 UNK        -0.4486 
     70 C         -46.7678  -26.3656    8.4271 C.2       3 UNK         0.4961 
     71 O         -47.7378  -26.5580    9.1608 O.2       3 UNK        -0.5105 
     72 CA        -46.3112  -27.4378    7.4208 C.3       3 UNK         0.0299 
     73 CB        -46.9971  -28.7969    7.6355 C.3       3 UNK        -0.1972 
     74 N         -46.5491  -26.9971    6.0457 N.am      3 UNK        -0.4305 
     75 C         -45.7477  -26.1730    5.3533 C.2       2 UNK         0.5006 
     76 O         -44.7143  -25.6889    5.8194 O.2       2 UNK        -0.5106 
     77 CA        -46.1439  -25.8245    3.9054 C.3       2 UNK         0.0296 
     78 CB        -45.3685  -26.7053    2.9122 C.3       2 UNK        -0.2002 
     79 N         -47.5781  -25.9624    3.6493 N.am      2 UNK        -0.4032 
     80 C         -48.5215  -25.1345    4.1197 C.2       1 UNK         0.5000 
     81 O         -48.2554  -24.0814    4.7036 O.2       1 UNK        -0.5238 
     82 H82       -51.0258  -29.2669    2.8200 H         1 UNK         0.0889 
     83 H83       -50.9414  -29.8936    4.4676 H         1 UNK         0.0889 
     84 H84       -49.5391  -30.0202    3.4027 H         1 UNK         0.0889 
     85 H85       -50.8479  -27.0744    2.7355 H         1 UNK         0.3028 
     86 H86       -50.2383  -25.0100    2.9433 H         1 UNK         0.0864 
     87 H87       -52.0169  -25.1891    4.6291 H         1 UNK         0.0720 
     88 H88       -50.9432  -23.8641    4.9198 H         1 UNK         0.0720 
     89 H89       -52.0671  -27.4392    6.1584 H         1 UNK         0.0814 
     90 H90       -53.0593  -26.1054    6.6961 H         1 UNK         0.0814 
     91 H91       -50.5270  -28.5926    7.8979 H         1 UNK         0.1469 
     92 H92       -52.2568  -28.8439   11.8190 H         1 UNK         0.1381 
     93 H93       -53.7415  -25.9778    8.9987 H         1 UNK         0.1206 
     94 H94       -54.0854  -25.7666   11.5816 H         1 UNK         0.0813 
     95 H95       -53.8303  -27.2033   12.5461 H         1 UNK         0.0813 
     96 H96       -57.2835  -25.8169   12.1469 H         1 UNK         0.0638 
     97 H97       -56.0594  -26.3034   13.2802 H         1 UNK         0.0638 
     98 H98       -58.1852  -27.1506   14.0334 H         1 UNK         0.0568 
     99 H99       -58.4222  -30.0195   12.1178 H         1 UNK         0.3450 
    100 H100      -59.8627  -29.5353   11.2565 H         1 UNK         0.3450 
    101 H101      -56.0624  -28.9833   13.4675 H         1 UNK         0.2987 
    102 H102      -57.0090  -31.1612   16.1410 H         1 UNK         0.0766 
    103 H103      -55.8493  -32.7425   14.6160 H         1 UNK         0.0798 
    104 H104      -56.0419  -31.6221   13.2699 H         1 UNK         0.0798 
    105 H105      -57.4533  -32.3456   14.0220 H         1 UNK         0.0798 
    106 H106      -55.0802  -30.2556   16.6356 H         1 UNK         0.3198 
    107 H107      -53.1519  -29.3333   16.6782 H         1 UNK         0.0843 
    108 H108      -51.6497  -29.8922   14.0744 H         1 UNK         0.0831 
    109 H109      -51.7800  -30.9642   15.4563 H         1 UNK         0.0831 
    110 H110      -50.8636  -29.4696   15.5988 H         1 UNK         0.0831 
    111 H111      -52.1094  -27.4589   14.7772 H         1 UNK         0.3133 
    112 H112      -53.5143  -25.2719   14.3469 H         1 UNK         0.0566 
    113 H113      -55.3807  -24.5004   15.7761 H         1 UNK         0.0814 
    114 H114      -54.3170  -24.3877   17.1706 H         1 UNK         0.0814 
    115 H115      -54.0832  -23.3165   15.7892 H         1 UNK         0.0814 
    116 H116      -51.4467  -24.8126   14.9128 H         1 UNK         0.3091 
    117 H117      -49.6110  -24.2930   17.7901 H         1 UNK         0.0702 
    118 H118      -48.0098  -26.0705   17.0250 H         1 UNK         0.0785 
    119 H119      -49.3245  -26.8810   16.1724 H         1 UNK         0.0785 
    120 H120      -49.3569  -26.7528   17.9235 H         1 UNK         0.0785 
    121 H121      -48.8162  -24.6825   15.0542 H         1 UNK         0.2998 
    122 H122      -49.7868  -21.4308   13.9117 H         1 UNK         0.0697 
    123 H123      -47.0421  -22.7410   14.3052 H         1 UNK         0.0825 
    124 H124      -47.5184  -21.1754   14.9519 H         1 UNK         0.0825 
    125 H125      -47.4137  -21.4085   13.2142 H         1 UNK         0.0825 
    126 H126      -48.5728  -23.5761   12.5220 H         1 UNK         0.3029 
    127 H127      -51.6291  -25.2239   11.5146 H         1 UNK         0.0897 
    128 H128      -49.4095  -23.6227   10.1423 H         1 UNK         0.0792 
    129 H129      -51.1406  -23.4974    9.8652 H         1 UNK         0.0792 
    130 H130      -50.2817  -24.9589    9.4006 H         1 UNK         0.0792 
    131 H131      -48.8857  -25.9547   11.1890 H         1 UNK         0.3086 
    132 H132      -48.5641  -27.8027   14.1563 H         1 UNK         0.0583 
    133 H133      -48.1651  -29.8201   13.0272 H         1 UNK         0.1020 
    134 H134      -49.8546  -29.4943   12.8593 H         1 UNK         0.1020 
    135 H135      -50.1948  -30.6003    9.3555 H         1 UNK         0.0694 
    136 H136      -50.7467  -30.6201   11.0057 H         1 UNK         0.0694 
    137 H137      -46.9528  -27.5078   11.7807 H         1 UNK         0.2989 
    138 H138      -45.1352  -24.7148   13.1942 H         1 UNK         0.1055 
    139 H139      -44.1712  -26.9267   13.8791 H         1 UNK         0.0806 
    140 H140      -43.3262  -26.2438   12.5014 H         1 UNK         0.0806 
    141 H141      -44.4704  -27.5646   12.2682 H         1 UNK         0.0806 
    142 H142      -44.9847  -25.7869   10.5748 H         1 UNK         0.3061 
    143 H143      -47.3380  -23.7143    8.9692 H         1 UNK         0.0734 
    144 H144      -45.4055  -22.6767    7.8240 H         1 UNK         0.0832 
    145 H145      -45.5537  -22.0276    9.4483 H         1 UNK         0.0832 
    146 H146      -44.3147  -23.2251    9.0981 H         1 UNK         0.0832 
    147 H147      -45.2982  -25.1634    7.7540 H         1 UNK         0.3156 
    148 H148      -45.2393  -27.5910    7.5626 H         1 UNK         0.0589 
    149 H149      -48.0840  -28.7121    7.6054 H         1 UNK         0.0808 
    150 H150      -46.6972  -29.5205    6.8777 H         1 UNK         0.0808 
    151 H151      -46.7253  -29.2140    8.6047 H         1 UNK         0.0808 
    152 H152      -47.4243  -27.3105    5.6290 H         1 UNK         0.3098 
    153 H153      -45.8624  -24.7840    3.7300 H         1 UNK         0.0720 
    154 H154      -45.5818  -26.4237    1.8808 H         1 UNK         0.0791 
    155 H155      -45.6140  -27.7615    3.0312 H         1 UNK         0.0791 
    156 H156      -44.2921  -26.6026    3.0581 H         1 UNK         0.0791 
    157 H157      -47.8811  -26.8050    3.1830 H         1 UNK         0.3028 
@<TRIPOS>BOND
     1    1    2 1    
     2    1   82 1    
     3    1   83 1    
     4    1   84 1    
     5    2    3 2    
     6    2    4 am   BACKBONE|DICT|INTERRES
     7    4    5 1    
     8    4   85 1    
     9    5    6 1    
    10    5   80 1    
    11    5   86 1    
    12    6    7 1    
    13    6   87 1    
    14    6   88 1    
    15    7    8 1    
    16    8    9 1    
    17    8   89 1    
    18    8   90 1    
    19    9   10 ar   
    20    9   14 ar   
    21   10   11 ar   
    22   10   91 1    
    23   11   12 ar   
    24   11   58 1    
    25   12   13 ar   
    26   12   92 1    
    27   13   14 ar   
    28   13   15 1    
    29   14   93 1    
    30   15   16 1    
    31   15   94 1    
    32   15   95 1    
    33   16   17 1    
    34   17   18 1    
    35   17   96 1    
    36   17   97 1    
    37   18   19 1    
    38   18   22 1    
    39   18   98 1    
    40   19   20 am   BACKBONE|DICT|INTERRES
    41   19   21 2    
    42   20   99 1    
    43   20  100 1    
    44   22   23 am   BACKBONE|DICT|INTERRES
    45   22  101 1    
    46   23   24 2    
    47   23   25 1    
    48   25   26 1    
    49   25   27 1    
    50   25  102 1    
    51   26  103 1    
    52   26  104 1    
    53   26  105 1    
    54   27   28 am   BACKBONE|DICT|INTERRES
    55   27  106 1    
    56   28   29 2    
    57   28   30 1    
    58   30   31 1    
    59   30   32 1    
    60   30  107 1    
    61   31  108 1    
    62   31  109 1    
    63   31  110 1    
    64   32   33 am   BACKBONE|DICT|INTERRES
    65   32  111 1    
    66   33   34 2    
    67   33   35 1    
    68   35   36 1    
    69   35   37 1    
    70   35  112 1    
    71   36  113 1    
    72   36  114 1    
    73   36  115 1    
    74   37   38 am   BACKBONE|DICT|INTERRES
    75   37  116 1    
    76   38   39 2    
    77   38   40 1    
    78   40   41 1    
    79   40   42 1    
    80   40  117 1    
    81   41  118 1    
    82   41  119 1    
    83   41  120 1    
    84   42   43 am   BACKBONE|DICT|INTERRES
    85   42  121 1    
    86   43   44 2    
    87   43   45 1    
    88   45   46 1    
    89   45   47 1    
    90   45  122 1    
    91   46  123 1    
    92   46  124 1    
    93   46  125 1    
    94   47   48 am   BACKBONE|DICT|INTERRES
    95   47  126 1    
    96   48   49 2    
    97   48   50 1    
    98   50   51 1    
    99   50   52 1    
   100   50  127 1    
   101   51  128 1    
   102   51  129 1    
   103   51  130 1    
   104   52   53 am   BACKBONE|DICT|INTERRES
   105   52  131 1    
   106   53   54 2    
   107   53   55 1    
   108   55   56 1    
   109   55   59 1    
   110   55  132 1    
   111   56   57 1    
   112   56  133 1    
   113   56  134 1    
   114   57   58 1    
   115   58  135 1    
   116   58  136 1    
   117   59   60 am   BACKBONE|DICT|INTERRES
   118   59  137 1    
   119   60   61 2    
   120   60   62 1    
   121   62   63 1    
   122   62   64 1    
   123   62  138 1    
   124   63  139 1    
   125   63  140 1    
   126   63  141 1    
   127   64   65 am   BACKBONE|DICT|INTERRES
   128   64  142 1    
   129   65   66 2    
   130   65   67 1    
   131   67   68 1    
   132   67   69 1    
   133   67  143 1    
   134   68  144 1    
   135   68  145 1    
   136   68  146 1    
   137   69   70 am   BACKBONE|DICT|INTERRES
   138   69  147 1    
   139   70   71 2    
   140   70   72 1    
   141   72   73 1    
   142   72   74 1    
   143   72  148 1    
   144   73  149 1    
   145   73  150 1    
   146   73  151 1    
   147   74   75 am   BACKBONE|DICT|INTERRES
   148   74  152 1    
   149   75   76 2    
   150   75   77 1    
   151   77   78 1    
   152   77   79 1    
   153   77  153 1    
   154   78  154 1    
   155   78  155 1    
   156   78  156 1    
   157   79   80 am   BACKBONE|DICT|INTERRES
   158   79  157 1    
   159   80   81 2    
@<TRIPOS>SUBSTRUCTURE
     1 UNK         1 GROUP             0       ****    0 ROOT    
