@<TRIPOS>MOLECULE
3R207
157   159    1
SMALL
USER_CHARGES


@<TRIPOS>ATOM
      1 CA        -48.4630  -31.0352    8.3022 C.3       0 UNK        -0.1975 
      2 C         -48.0060  -30.6082    6.9197 C.2       0 UNK         0.4852 
      3 O         -46.8034  -30.5181    6.6686 O.2       0 UNK        -0.5216 
      4 N         -48.9556  -30.3325    6.0166 N.am      1 UNK        -0.4461 
      5 CA        -48.7157  -29.9671    4.6159 C.3       1 UNK         0.0864 
      6 C6        -49.8476  -30.4883    3.6856 C.3       14 UNK        -0.0898 
      7 S7        -51.4866  -29.6869    3.8117 S.3       14 UNK        -0.2598 
      8 C8        -52.2981  -30.5493    5.2039 C.3       14 UNK         0.0286 
      9 C9        -52.1059  -29.8488    6.5482 C.ar      14 UNK        -0.0844 
     10 C10       -52.1169  -28.4514    6.6395 C.ar      14 UNK        -0.0881 
     11 C11       -51.9388  -27.8160    7.8682 C.ar      14 UNK        -0.0643 
     12 C12       -51.7609  -28.5875    9.0182 C.ar      14 UNK        -0.0930 
     13 C13       -51.7917  -29.9851    8.9602 C.ar      14 UNK        -0.0827 
     14 C14       -51.9562  -30.6063    7.7162 C.ar      14 UNK        -0.1249 
     15 C15       -51.6062  -30.8433   10.2132 C.3       14 UNK         0.0141 
     16 S16       -52.1608  -30.0628   11.7681 S.3       14 UNK        -0.2313 
     17 C17       -53.9557  -30.3937   11.7244 C.3       14 UNK        -0.0915 
     18 CA        -54.7874  -29.5157   12.7003 C.3       13 UNK         0.0968 
     19 C         -54.3987  -29.7443   14.1937 C.2       13 UNK         0.5732 
     20 N         -53.9070  -28.7431   14.9133 N.am      13 UNK        -0.7310 
     21 O         -54.5553  -30.8514   14.7039 O.2       13 UNK        -0.5035 
     22 N         -54.8029  -28.1082   12.2771 N.am      13 UNK        -0.4233 
     23 C         -55.7155  -27.2118   12.6709 C.2       13 UNK         0.4989 
     24 O         -56.7128  -27.4829   13.3432 O.2       13 UNK        -0.4996 
     25 CA        -55.4606  -25.7546   12.2557 C.3       12 UNK         0.0216 
     26 CB        -56.6571  -25.1723   11.4852 C.3       12 UNK        -0.1964 
     27 N         -55.1521  -24.8970   13.4029 N.am      12 UNK        -0.4276 
     28 C         -54.1203  -25.0627   14.2422 C.2       12 UNK         0.5020 
     29 O         -53.2975  -25.9750   14.1351 O.2       12 UNK        -0.5489 
     30 CA        -53.9335  -23.9890   15.3323 C.3       11 UNK         0.0294 
     31 CB        -55.2614  -23.4087   15.8718 C.3       11 UNK        -0.2019 
     32 N         -53.0619  -24.4552   16.4184 N.am      11 UNK        -0.4493 
     33 C         -53.3387  -25.3810   17.3480 C.2       11 UNK         0.4932 
     34 O         -54.4307  -25.9341   17.4896 O.2       11 UNK        -0.5029 
     35 CA        -52.1571  -25.7429   18.2602 C.3       10 UNK         0.0280 
     36 CB        -52.5599  -26.5336   19.5247 C.3       10 UNK        -0.1976 
     37 N         -51.1133  -26.4152   17.4809 N.am      10 UNK        -0.4242 
     38 C         -51.1281  -27.6540   16.9618 C.2       10 UNK         0.5072 
     39 O         -52.0086  -28.4844   17.1938 O.2       10 UNK        -0.5224 
     40 CA        -49.9651  -28.0481   16.0232 C.3       9 UNK         0.0343 
     41 CB        -50.4625  -28.8608   14.8152 C.3       9 UNK        -0.2003 
     42 N         -49.1950  -26.8989   15.5341 N.am      9 UNK        -0.4272 
     43 C         -48.1967  -26.3091   16.2075 C.2       9 UNK         0.4988 
     44 O         -47.7892  -26.7053   17.2996 O.2       9 UNK        -0.5108 
     45 CA        -47.5622  -25.0475   15.5955 C.3       8 UNK         0.0248 
     46 CB        -46.3165  -25.4204   14.7762 C.3       8 UNK        -0.2001 
     47 N         -48.4638  -24.2314   14.7741 N.am      8 UNK        -0.4140 
     48 C         -49.5875  -23.6364   15.2090 C.2       8 UNK         0.5028 
     49 O         -50.0736  -23.7976   16.3297 O.2       8 UNK        -0.5428 
     50 CA        -50.3366  -22.7733   14.1927 C.3       7 UNK         0.0264 
     51 CB        -49.4563  -21.6301   13.6459 C.3       7 UNK        -0.1988 
     52 N         -50.7812  -23.6763   13.1441 N.am      7 UNK        -0.4454 
     53 C         -51.5316  -23.4231   12.0712 C.2       7 UNK         0.5027 
     54 O         -52.0243  -22.3221   11.8216 O.2       7 UNK        -0.5083 
     55 CA        -51.7613  -24.6316   11.1327 C.3       6 UNK         0.0844 
     56 C56       -52.5658  -24.2655    9.8547 C.3       14 UNK        -0.0967 
     57 S57       -53.2882  -25.7297    9.0463 S.3       14 UNK        -0.2604 
     58 C58       -51.9404  -26.2983    7.9626 C.3       14 UNK         0.0134 
     59 N         -50.4883  -25.2899   10.8107 N.am      6 UNK        -0.4116 
     60 C         -49.7874  -26.1097   11.6089 C.2       5 UNK         0.5034 
     61 O         -50.1353  -26.4160   12.7482 O.2       5 UNK        -0.5045 
     62 CA        -48.4151  -26.5776   11.1021 C.3       5 UNK         0.0224 
     63 CB        -48.5376  -27.8829   10.3066 C.3       5 UNK        -0.1978 
     64 N         -47.7440  -25.5592   10.2921 N.am      5 UNK        -0.4737 
     65 C         -47.3111  -24.3858   10.7800 C.2       4 UNK         0.5027 
     66 O         -47.3663  -24.0847   11.9736 O.2       4 UNK        -0.5211 
     67 CA        -46.7531  -23.3649    9.7715 C.3       4 UNK         0.0297 
     68 CB        -45.2210  -23.4632    9.7080 C.3       4 UNK        -0.1993 
     69 N         -47.3046  -23.5019    8.4185 N.am      4 UNK        -0.4486 
     70 C         -48.5977  -23.3552    8.0935 C.2       3 UNK         0.4961 
     71 O         -49.4738  -23.0575    8.9032 O.2       3 UNK        -0.5105 
     72 CA        -48.9955  -23.6217    6.6301 C.3       3 UNK         0.0299 
     73 CB        -49.0783  -22.3004    5.8498 C.3       3 UNK        -0.1972 
     74 N         -48.1099  -24.5524    5.9198 N.am      3 UNK        -0.4305 
     75 C         -47.9122  -25.8337    6.2585 C.2       2 UNK         0.5006 
     76 O         -48.4083  -26.3653    7.2541 O.2       2 UNK        -0.5106 
     77 CA        -46.9396  -26.6290    5.3766 C.3       2 UNK         0.0296 
     78 CB        -45.5258  -26.5895    5.9796 C.3       2 UNK        -0.2002 
     79 N         -47.3696  -28.0207    5.2644 N.am      2 UNK        -0.4032 
     80 C         -48.3360  -28.4727    4.4546 C.2       1 UNK         0.5000 
     81 O         -48.8934  -27.7639    3.6137 O.2       1 UNK        -0.5238 
     82 H82       -49.2033  -31.8320    8.2352 H         1 UNK         0.0889 
     83 H83       -48.9049  -30.1892    8.8228 H         1 UNK         0.0889 
     84 H84       -47.6238  -31.4009    8.8937 H         1 UNK         0.0889 
     85 H85       -49.9274  -30.3363    6.2994 H         1 UNK         0.3028 
     86 H86       -47.8208  -30.5069    4.2970 H         1 UNK         0.0864 
     87 H87       -49.9752  -31.5622    3.8304 H         1 UNK         0.0720 
     88 H88       -49.5266  -30.3819    2.6479 H         1 UNK         0.0720 
     89 H89       -51.9500  -31.5824    5.2466 H         1 UNK         0.0814 
     90 H90       -53.3685  -30.5963    4.9998 H         1 UNK         0.0814 
     91 H91       -52.2604  -27.8517    5.7515 H         1 UNK         0.1469 
     92 H92       -51.6142  -28.0837    9.9627 H         1 UNK         0.1381 
     93 H93       -51.9684  -31.6865    7.6584 H         1 UNK         0.1206 
     94 H94       -52.1208  -31.7985   10.0975 H         1 UNK         0.0813 
     95 H95       -50.5478  -31.0782   10.3196 H         1 UNK         0.0813 
     96 H96       -54.1111  -31.4511   11.9453 H         1 UNK         0.0638 
     97 H97       -54.3131  -30.2475   10.7036 H         1 UNK         0.0638 
     98 H98       -55.8170  -29.8697   12.6218 H         1 UNK         0.0568 
     99 H99       -53.7544  -27.8279   14.5005 H         1 UNK         0.3450 
    100 H100      -53.6025  -28.9035   15.8643 H         1 UNK         0.3450 
    101 H101      -53.9905  -27.7987   11.7648 H         1 UNK         0.2987 
    102 H102      -54.5999  -25.7326   11.5907 H         1 UNK         0.0766 
    103 H103      -56.4414  -24.1700   11.1146 H         1 UNK         0.0798 
    104 H104      -57.5523  -25.1177   12.1063 H         1 UNK         0.0798 
    105 H105      -56.8983  -25.7900   10.6190 H         1 UNK         0.0798 
    106 H106      -55.7912  -24.1353   13.5762 H         1 UNK         0.3198 
    107 H107      -53.3968  -23.1707   14.8523 H         1 UNK         0.0843 
    108 H108      -55.0861  -22.7412   16.7156 H         1 UNK         0.0831 
    109 H109      -55.9442  -24.1915   16.2047 H         1 UNK         0.0831 
    110 H110      -55.7795  -22.8232   15.1119 H         1 UNK         0.0831 
    111 H111      -52.1032  -24.1229   16.3806 H         1 UNK         0.3133 
    112 H112      -51.7197  -24.8026   18.5998 H         1 UNK         0.0566 
    113 H113      -51.6892  -26.7839   20.1305 H         1 UNK         0.0814 
    114 H114      -53.2314  -25.9422   20.1480 H         1 UNK         0.0814 
    115 H115      -53.0818  -27.4605   19.2869 H         1 UNK         0.0814 
    116 H116      -50.3586  -25.8069   17.1867 H         1 UNK         0.3091 
    117 H117      -49.3020  -28.6952   16.6009 H         1 UNK         0.0702 
    118 H118      -51.1965  -28.3010   14.2347 H         1 UNK         0.0785 
    119 H119      -50.9412  -29.7886   15.1306 H         1 UNK         0.0785 
    120 H120      -49.6444  -29.1299   14.1472 H         1 UNK         0.0785 
    121 H121      -49.4765  -26.5331   14.6297 H         1 UNK         0.2998 
    122 H122      -47.2392  -24.4189   16.4279 H         1 UNK         0.0697 
    123 H123      -45.8008  -24.5325   14.4100 H         1 UNK         0.0825 
    124 H124      -45.6034  -25.9822   15.3811 H         1 UNK         0.0825 
    125 H125      -46.5706  -26.0378   13.9147 H         1 UNK         0.0825 
    126 H126      -48.1604  -24.0625   13.8177 H         1 UNK         0.3029 
    127 H127      -51.2093  -22.3394   14.6824 H         1 UNK         0.0897 
    128 H128      -50.0356  -20.9430   13.0295 H         1 UNK         0.0792 
    129 H129      -49.0289  -21.0438   14.4604 H         1 UNK         0.0792 
    130 H130      -48.6301  -21.9988   13.0384 H         1 UNK         0.0792 
    131 H131      -50.4898  -24.6453   13.2565 H         1 UNK         0.3086 
    132 H132      -52.3551  -25.3423   11.7077 H         1 UNK         0.0583 
    133 H133      -53.4089  -23.6185   10.1045 H         1 UNK         0.1020 
    134 H134      -51.9609  -23.7014    9.1441 H         1 UNK         0.1020 
    135 H135      -52.0618  -25.8409    6.9796 H         1 UNK         0.0694 
    136 H136      -50.9697  -25.9715    8.3309 H         1 UNK         0.0694 
    137 H137      -50.0501  -24.9809    9.9535 H         1 UNK         0.2989 
    138 H138      -47.7956  -26.7758   11.9788 H         1 UNK         0.1055 
    139 H139      -49.0464  -28.6506   10.8919 H         1 UNK         0.0806 
    140 H140      -47.5571  -28.2752   10.0365 H         1 UNK         0.0806 
    141 H141      -49.1043  -27.7421    9.3866 H         1 UNK         0.0806 
    142 H142      -47.6924  -25.7280    9.2941 H         1 UNK         0.3061 
    143 H143      -47.0196  -22.3712   10.1379 H         1 UNK         0.0734 
    144 H144      -44.7976  -22.6853    9.0724 H         1 UNK         0.0832 
    145 H145      -44.7820  -23.3423   10.6996 H         1 UNK         0.0832 
    146 H146      -44.8932  -24.4299    9.3232 H         1 UNK         0.0832 
    147 H147      -46.6567  -23.7464    7.6844 H         1 UNK         0.3156 
    148 H148      -49.9917  -24.0688    6.6450 H         1 UNK         0.0589 
    149 H149      -48.1047  -21.8150    5.7711 H         1 UNK         0.0808 
    150 H150      -49.4597  -22.4572    4.8406 H         1 UNK         0.0808 
    151 H151      -49.7530  -21.5984    6.3422 H         1 UNK         0.0808 
    152 H152      -47.6463  -24.1926    5.0973 H         1 UNK         0.3098 
    153 H153      -46.9099  -26.1858    4.3789 H         1 UNK         0.0720 
    154 H154      -45.5029  -27.0160    6.9838 H         1 UNK         0.0791 
    155 H155      -45.1566  -25.5656    6.0507 H         1 UNK         0.0791 
    156 H156      -44.8176  -27.1454    5.3647 H         1 UNK         0.0791 
    157 H157      -46.9829  -28.6780    5.9342 H         1 UNK         0.3028 
@<TRIPOS>BOND
     1    1    2 1    
     2    1   82 1    
     3    1   83 1    
     4    1   84 1    
     5    2    3 2    
     6    2    4 am   BACKBONE|DICT|INTERRES
     7    4    5 1    
     8    4   85 1    
     9    5    6 1    
    10    5   80 1    
    11    5   86 1    
    12    6    7 1    
    13    6   87 1    
    14    6   88 1    
    15    7    8 1    
    16    8    9 1    
    17    8   89 1    
    18    8   90 1    
    19    9   10 ar   
    20    9   14 ar   
    21   10   11 ar   
    22   10   91 1    
    23   11   12 ar   
    24   11   58 1    
    25   12   13 ar   
    26   12   92 1    
    27   13   14 ar   
    28   13   15 1    
    29   14   93 1    
    30   15   16 1    
    31   15   94 1    
    32   15   95 1    
    33   16   17 1    
    34   17   18 1    
    35   17   96 1    
    36   17   97 1    
    37   18   19 1    
    38   18   22 1    
    39   18   98 1    
    40   19   20 am   BACKBONE|DICT|INTERRES
    41   19   21 2    
    42   20   99 1    
    43   20  100 1    
    44   22   23 am   BACKBONE|DICT|INTERRES
    45   22  101 1    
    46   23   24 2    
    47   23   25 1    
    48   25   26 1    
    49   25   27 1    
    50   25  102 1    
    51   26  103 1    
    52   26  104 1    
    53   26  105 1    
    54   27   28 am   BACKBONE|DICT|INTERRES
    55   27  106 1    
    56   28   29 2    
    57   28   30 1    
    58   30   31 1    
    59   30   32 1    
    60   30  107 1    
    61   31  108 1    
    62   31  109 1    
    63   31  110 1    
    64   32   33 am   BACKBONE|DICT|INTERRES
    65   32  111 1    
    66   33   34 2    
    67   33   35 1    
    68   35   36 1    
    69   35   37 1    
    70   35  112 1    
    71   36  113 1    
    72   36  114 1    
    73   36  115 1    
    74   37   38 am   BACKBONE|DICT|INTERRES
    75   37  116 1    
    76   38   39 2    
    77   38   40 1    
    78   40   41 1    
    79   40   42 1    
    80   40  117 1    
    81   41  118 1    
    82   41  119 1    
    83   41  120 1    
    84   42   43 am   BACKBONE|DICT|INTERRES
    85   42  121 1    
    86   43   44 2    
    87   43   45 1    
    88   45   46 1    
    89   45   47 1    
    90   45  122 1    
    91   46  123 1    
    92   46  124 1    
    93   46  125 1    
    94   47   48 am   BACKBONE|DICT|INTERRES
    95   47  126 1    
    96   48   49 2    
    97   48   50 1    
    98   50   51 1    
    99   50   52 1    
   100   50  127 1    
   101   51  128 1    
   102   51  129 1    
   103   51  130 1    
   104   52   53 am   BACKBONE|DICT|INTERRES
   105   52  131 1    
   106   53   54 2    
   107   53   55 1    
   108   55   56 1    
   109   55   59 1    
   110   55  132 1    
   111   56   57 1    
   112   56  133 1    
   113   56  134 1    
   114   57   58 1    
   115   58  135 1    
   116   58  136 1    
   117   59   60 am   BACKBONE|DICT|INTERRES
   118   59  137 1    
   119   60   61 2    
   120   60   62 1    
   121   62   63 1    
   122   62   64 1    
   123   62  138 1    
   124   63  139 1    
   125   63  140 1    
   126   63  141 1    
   127   64   65 am   BACKBONE|DICT|INTERRES
   128   64  142 1    
   129   65   66 2    
   130   65   67 1    
   131   67   68 1    
   132   67   69 1    
   133   67  143 1    
   134   68  144 1    
   135   68  145 1    
   136   68  146 1    
   137   69   70 am   BACKBONE|DICT|INTERRES
   138   69  147 1    
   139   70   71 2    
   140   70   72 1    
   141   72   73 1    
   142   72   74 1    
   143   72  148 1    
   144   73  149 1    
   145   73  150 1    
   146   73  151 1    
   147   74   75 am   BACKBONE|DICT|INTERRES
   148   74  152 1    
   149   75   76 2    
   150   75   77 1    
   151   77   78 1    
   152   77   79 1    
   153   77  153 1    
   154   78  154 1    
   155   78  155 1    
   156   78  156 1    
   157   79   80 am   BACKBONE|DICT|INTERRES
   158   79  157 1    
   159   80   81 2    
@<TRIPOS>SUBSTRUCTURE
     1 UNK         1 GROUP             0       ****    0 ROOT    
