@<TRIPOS>MOLECULE
3R207
157   159    1
SMALL
USER_CHARGES


@<TRIPOS>ATOM
      1 CA        -48.2818  -25.2722    2.4702 C.3       0 UNK        -0.1975 
      2 C         -48.2936  -25.5483    3.9658 C.2       0 UNK         0.4852 
      3 O         -47.2320  -25.5567    4.5891 O.2       0 UNK        -0.5216 
      4 N         -49.4881  -25.7501    4.5442 N.am      1 UNK        -0.4461 
      5 CA        -49.7423  -26.0949    5.9534 C.3       1 UNK         0.0864 
      6 C6        -49.4329  -27.5847    6.2749 C.3       14 UNK        -0.0898 
      7 S7        -50.5659  -28.6923    5.3628 S.3       14 UNK        -0.2598 
      8 C8        -51.1272  -29.8843    6.6361 C.3       14 UNK         0.0286 
      9 C9        -51.7999  -29.2871    7.8758 C.ar      14 UNK        -0.0844 
     10 C10       -52.4391  -28.0404    7.8563 C.ar      14 UNK        -0.0881 
     11 C11       -52.9959  -27.5042    9.0214 C.ar      14 UNK        -0.0643 
     12 C12       -52.9480  -28.2430   10.2047 C.ar      14 UNK        -0.0930 
     13 C13       -52.3459  -29.5007   10.2377 C.ar      14 UNK        -0.0827 
     14 C14       -51.7774  -30.0178    9.0700 C.ar      14 UNK        -0.1249 
     15 C15       -52.2740  -30.2674   11.5500 C.3       14 UNK         0.0141 
     16 S16       -53.9316  -30.6773   12.1837 S.3       14 UNK        -0.2313 
     17 C17       -53.4990  -31.3919   13.8038 C.3       14 UNK        -0.0915 
     18 CA        -54.6854  -31.4035   14.8051 C.3       13 UNK         0.0968 
     19 C         -54.2766  -32.1270   16.1222 C.2       13 UNK         0.5732 
     20 N         -54.1848  -31.4451   17.2580 N.am      13 UNK        -0.7310 
     21 O         -54.0425  -33.3333   16.1114 O.2       13 UNK        -0.5035 
     22 N         -55.2709  -30.0631   14.9885 N.am      13 UNK        -0.4233 
     23 C         -56.4709  -29.8185   15.5341 C.2       13 UNK         0.4989 
     24 O         -57.2278  -30.6974   15.9485 O.2       13 UNK        -0.4996 
     25 CA        -56.9102  -28.3476   15.6381 C.3       12 UNK         0.0216 
     26 CB        -56.5975  -27.7911   17.0367 C.3       12 UNK        -0.1964 
     27 N         -56.2954  -27.4959   14.6128 N.am      12 UNK        -0.4276 
     28 C         -56.7239  -27.4406   13.3412 C.2       12 UNK         0.5020 
     29 O         -57.6945  -28.0832   12.9361 O.2       12 UNK        -0.5489 
     30 CA        -55.9514  -26.5642   12.3318 C.3       11 UNK         0.0294 
     31 CB        -56.9001  -25.7456   11.4296 C.3       11 UNK        -0.2019 
     32 N         -54.9086  -25.7096   12.9161 N.am      11 UNK        -0.4493 
     33 C         -55.0685  -24.6544   13.7277 C.2       11 UNK         0.4932 
     34 O         -56.1638  -24.2271   14.0954 O.2       11 UNK        -0.5029 
     35 CA        -53.7686  -23.9961   14.2393 C.3       10 UNK         0.0280 
     36 CB        -54.0165  -23.0430   15.4269 C.3       10 UNK        -0.1976 
     37 N         -52.7066  -24.9527   14.5866 N.am      10 UNK        -0.4242 
     38 C         -52.8080  -26.0117   15.4074 C.2       10 UNK         0.5072 
     39 O         -53.8672  -26.4068   15.8936 O.2       10 UNK        -0.5224 
     40 CA        -51.5181  -26.7821   15.7290 C.3       9 UNK         0.0343 
     41 CB        -51.2727  -27.8608   14.6656 C.3       9 UNK        -0.2003 
     42 N         -50.3377  -25.9224   15.8455 N.am      9 UNK        -0.4272 
     43 C         -50.1343  -25.0096   16.8060 C.2       9 UNK         0.4988 
     44 O         -50.9196  -24.8177   17.7349 O.2       9 UNK        -0.5108 
     45 CA        -48.8568  -24.1459   16.7317 C.3       8 UNK         0.0248 
     46 CB        -47.7250  -24.7525   17.5850 C.3       8 UNK        -0.2001 
     47 N         -48.4031  -23.8260   15.3681 N.am      8 UNK        -0.4140 
     48 C         -47.9171  -24.6557   14.4352 C.2       8 UNK         0.5028 
     49 O         -47.7077  -25.8569   14.6170 O.2       8 UNK        -0.5428 
     50 CA        -47.7021  -24.0568   13.0357 C.3       7 UNK         0.0264 
     51 CB        -46.2054  -23.9627   12.7013 C.3       7 UNK        -0.1988 
     52 N         -48.3887  -24.8544   12.0154 N.am      7 UNK        -0.4454 
     53 C         -49.7180  -25.0540   11.9789 C.2       7 UNK         0.5027 
     54 O         -50.5003  -24.5416   12.7833 O.2       7 UNK        -0.5083 
     55 CA        -50.2854  -25.9794   10.8827 C.3       6 UNK         0.0844 
     56 C56       -51.0506  -25.1785    9.7964 C.3       14 UNK        -0.0967 
     57 S57       -52.8204  -24.9742   10.1974 S.3       14 UNK        -0.2604 
     58 C58       -53.6156  -26.1119    9.0091 C.3       14 UNK         0.0134 
     59 N         -49.2685  -26.8755   10.3177 N.am      6 UNK        -0.4116 
     60 C         -48.8320  -27.9781   10.9455 C.2       5 UNK         0.5034 
     61 O         -49.2730  -28.3589   12.0293 O.2       5 UNK        -0.5045 
     62 CA        -47.7222  -28.8211   10.2911 C.3       5 UNK         0.0224 
     63 CB        -48.3080  -30.1082    9.6901 C.3       5 UNK        -0.1978 
     64 N         -46.8919  -28.1692    9.2748 N.am      5 UNK        -0.4737 
     65 C         -46.1387  -27.0755    9.4418 C.2       4 UNK         0.5027 
     66 O         -46.2054  -26.3421   10.4280 O.2       4 UNK        -0.5211 
     67 CA        -45.1188  -26.7622    8.3368 C.3       4 UNK         0.0297 
     68 CB        -45.0179  -27.8315    7.2257 C.3       4 UNK        -0.1993 
     69 N         -45.4312  -25.4706    7.7394 N.am      4 UNK        -0.4486 
     70 C         -44.5236  -24.6062    7.2657 C.2       3 UNK         0.4961 
     71 O         -43.3076  -24.7889    7.3463 O.2       3 UNK        -0.5105 
     72 CA        -45.0306  -23.3338    6.5599 C.3       3 UNK         0.0299 
     73 CB        -44.5564  -23.2965    5.0964 C.3       3 UNK        -0.1972 
     74 N         -46.4890  -23.2219    6.5834 N.am      3 UNK        -0.4305 
     75 C         -47.1886  -22.6238    7.5573 C.2       2 UNK         0.5006 
     76 O         -46.6722  -22.0383    8.5094 O.2       2 UNK        -0.5106 
     77 CA        -48.7246  -22.6929    7.4722 C.3       2 UNK         0.0296 
     78 CB        -49.2924  -21.3695    6.9343 C.3       2 UNK        -0.2002 
     79 N         -49.2446  -23.8010    6.6630 N.am      2 UNK        -0.4032 
     80 C         -49.0755  -25.1038    6.9322 C.2       1 UNK         0.5000 
     81 O         -48.4257  -25.5175    7.8943 O.2       1 UNK        -0.5238 
     82 H82       -49.2853  -25.2780    2.0452 H         1 UNK         0.0889 
     83 H83       -47.6912  -26.0298    1.9560 H         1 UNK         0.0889 
     84 H84       -47.8340  -24.2987    2.2723 H         1 UNK         0.0889 
     85 H85       -50.3137  -25.7225    3.9616 H         1 UNK         0.3028 
     86 H86       -50.8119  -25.9459    6.1073 H         1 UNK         0.0864 
     87 H87       -48.4031  -27.8325    6.0139 H         1 UNK         0.0720 
     88 H88       -49.5331  -27.7850    7.3427 H         1 UNK         0.0720 
     89 H89       -50.2663  -30.4838    6.9343 H         1 UNK         0.0814 
     90 H90       -51.8296  -30.5755    6.1689 H         1 UNK         0.0814 
     91 H91       -52.4878  -27.4729    6.9387 H         1 UNK         0.1469 
     92 H92       -53.3560  -27.8292   11.1136 H         1 UNK         0.1381 
     93 H93       -51.2977  -30.9868    9.0950 H         1 UNK         0.1206 
     94 H94       -51.6988  -31.1869   11.4327 H         1 UNK         0.0813 
     95 H95       -51.7406  -29.6591   12.2813 H         1 UNK         0.0813 
     96 H96       -53.1381  -32.4069   13.6264 H         1 UNK         0.0638 
     97 H97       -52.6580  -30.8392   14.2251 H         1 UNK         0.0638 
     98 H98       -55.4677  -32.0246   14.3644 H         1 UNK         0.0568 
     99 H99       -54.3769  -30.4574   17.2797 H         1 UNK         0.3450 
    100 H100      -53.9231  -31.9285   18.1026 H         1 UNK         0.3450 
    101 H101      -54.7165  -29.2850   14.6682 H         1 UNK         0.2987 
    102 H102      -57.9943  -28.3184   15.5070 H         1 UNK         0.0766 
    103 H103      -57.1409  -28.3440   17.8041 H         1 UNK         0.0798 
    104 H104      -56.8894  -26.7443   17.1231 H         1 UNK         0.0798 
    105 H105      -55.5367  -27.8644   17.2773 H         1 UNK         0.0798 
    106 H106      -55.4939  -26.9401   14.9013 H         1 UNK         0.3198 
    107 H107      -55.4331  -27.2699   11.6841 H         1 UNK         0.0843 
    108 H108      -57.5547  -25.0968   12.0118 H         1 UNK         0.0831 
    109 H109      -57.5407  -26.4020   10.8393 H         1 UNK         0.0831 
    110 H110      -56.3457  -25.1207   10.7297 H         1 UNK         0.0831 
    111 H111      -53.9581  -25.9557   12.6780 H         1 UNK         0.3133 
    112 H112      -53.3826  -23.4017   13.4097 H         1 UNK         0.0566 
    113 H113      -53.0928  -22.5617   15.7483 H         1 UNK         0.0814 
    114 H114      -54.7166  -22.2511   15.1577 H         1 UNK         0.0814 
    115 H115      -54.4339  -23.5718   16.2847 H         1 UNK         0.0814 
    116 H116      -51.8029  -24.7680   14.1547 H         1 UNK         0.3091 
    117 H117      -51.6620  -27.2785   16.6910 H         1 UNK         0.0702 
    118 H118      -52.1217  -28.5410   14.5999 H         1 UNK         0.0785 
    119 H119      -50.3916  -28.4598   14.8968 H         1 UNK         0.0785 
    120 H120      -51.1292  -27.4229   13.6783 H         1 UNK         0.0785 
    121 H121      -49.6012  -26.0443   15.1570 H         1 UNK         0.2998 
    122 H122      -49.1160  -23.1846   17.1785 H         1 UNK         0.0697 
    123 H123      -47.4287  -25.7404   17.2316 H         1 UNK         0.0825 
    124 H124      -48.0407  -24.8648   18.6231 H         1 UNK         0.0825 
    125 H125      -46.8406  -24.1155   17.5827 H         1 UNK         0.0825 
    126 H126      -48.5684  -22.8679   15.0905 H         1 UNK         0.3029 
    127 H127      -48.1244  -23.0501   13.0047 H         1 UNK         0.0897 
    128 H128      -46.0451  -23.5438   11.7073 H         1 UNK         0.0792 
    129 H129      -45.7248  -24.9416   12.7324 H         1 UNK         0.0792 
    130 H130      -45.6853  -23.3215   13.4139 H         1 UNK         0.0792 
    131 H131      -47.7947  -25.3605   11.3654 H         1 UNK         0.3086 
    132 H132      -51.0107  -26.6200   11.3866 H         1 UNK         0.0583 
    133 H133      -50.6079  -24.1966    9.6253 H         1 UNK         0.1020 
    134 H134      -50.9922  -25.6954    8.8415 H         1 UNK         0.1020 
    135 H135      -54.6765  -26.1925    9.2470 H         1 UNK         0.0694 
    136 H136      -53.5561  -25.6701    8.0133 H         1 UNK         0.0694 
    137 H137      -48.8312  -26.5863    9.4470 H         1 UNK         0.2989 
    138 H138      -47.0513  -29.1077   11.1039 H         1 UNK         0.1055 
    139 H139      -48.9053  -29.8942    8.8050 H         1 UNK         0.0806 
    140 H140      -48.9526  -30.6221   10.4050 H         1 UNK         0.0806 
    141 H141      -47.5229  -30.8086    9.4050 H         1 UNK         0.0806 
    142 H142      -46.7773  -28.6770    8.4101 H         1 UNK         0.3061 
    143 H143      -44.1513  -26.7044    8.8400 H         1 UNK         0.0734 
    144 H144      -44.2168  -27.5902    6.5267 H         1 UNK         0.0832 
    145 H145      -44.7888  -28.8160    7.6359 H         1 UNK         0.0832 
    146 H146      -45.9395  -27.9071    6.6471 H         1 UNK         0.0832 
    147 H147      -46.4198  -25.2424    7.6931 H         1 UNK         0.3156 
    148 H148      -44.5896  -22.4784    7.0757 H         1 UNK         0.0589 
    149 H149      -44.9217  -24.1545    4.5309 H         1 UNK         0.0808 
    150 H150      -44.8954  -22.3919    4.5914 H         1 UNK         0.0808 
    151 H151      -43.4673  -23.3093    5.0374 H         1 UNK         0.0808 
    152 H152      -46.9836  -23.7297    5.8595 H         1 UNK         0.3098 
    153 H153      -49.0885  -22.8277    8.4919 H         1 UNK         0.0720 
    154 H154      -48.9481  -20.5244    7.5324 H         1 UNK         0.0791 
    155 H155      -50.3821  -21.3620    6.9663 H         1 UNK         0.0791 
    156 H156      -48.9835  -21.1865    5.9043 H         1 UNK         0.0791 
    157 H157      -49.7766  -23.5486    5.8422 H         1 UNK         0.3028 
@<TRIPOS>BOND
     1    1    2 1    
     2    1   82 1    
     3    1   83 1    
     4    1   84 1    
     5    2    3 2    
     6    2    4 am   BACKBONE|DICT|INTERRES
     7    4    5 1    
     8    4   85 1    
     9    5    6 1    
    10    5   80 1    
    11    5   86 1    
    12    6    7 1    
    13    6   87 1    
    14    6   88 1    
    15    7    8 1    
    16    8    9 1    
    17    8   89 1    
    18    8   90 1    
    19    9   10 ar   
    20    9   14 ar   
    21   10   11 ar   
    22   10   91 1    
    23   11   12 ar   
    24   11   58 1    
    25   12   13 ar   
    26   12   92 1    
    27   13   14 ar   
    28   13   15 1    
    29   14   93 1    
    30   15   16 1    
    31   15   94 1    
    32   15   95 1    
    33   16   17 1    
    34   17   18 1    
    35   17   96 1    
    36   17   97 1    
    37   18   19 1    
    38   18   22 1    
    39   18   98 1    
    40   19   20 am   BACKBONE|DICT|INTERRES
    41   19   21 2    
    42   20   99 1    
    43   20  100 1    
    44   22   23 am   BACKBONE|DICT|INTERRES
    45   22  101 1    
    46   23   24 2    
    47   23   25 1    
    48   25   26 1    
    49   25   27 1    
    50   25  102 1    
    51   26  103 1    
    52   26  104 1    
    53   26  105 1    
    54   27   28 am   BACKBONE|DICT|INTERRES
    55   27  106 1    
    56   28   29 2    
    57   28   30 1    
    58   30   31 1    
    59   30   32 1    
    60   30  107 1    
    61   31  108 1    
    62   31  109 1    
    63   31  110 1    
    64   32   33 am   BACKBONE|DICT|INTERRES
    65   32  111 1    
    66   33   34 2    
    67   33   35 1    
    68   35   36 1    
    69   35   37 1    
    70   35  112 1    
    71   36  113 1    
    72   36  114 1    
    73   36  115 1    
    74   37   38 am   BACKBONE|DICT|INTERRES
    75   37  116 1    
    76   38   39 2    
    77   38   40 1    
    78   40   41 1    
    79   40   42 1    
    80   40  117 1    
    81   41  118 1    
    82   41  119 1    
    83   41  120 1    
    84   42   43 am   BACKBONE|DICT|INTERRES
    85   42  121 1    
    86   43   44 2    
    87   43   45 1    
    88   45   46 1    
    89   45   47 1    
    90   45  122 1    
    91   46  123 1    
    92   46  124 1    
    93   46  125 1    
    94   47   48 am   BACKBONE|DICT|INTERRES
    95   47  126 1    
    96   48   49 2    
    97   48   50 1    
    98   50   51 1    
    99   50   52 1    
   100   50  127 1    
   101   51  128 1    
   102   51  129 1    
   103   51  130 1    
   104   52   53 am   BACKBONE|DICT|INTERRES
   105   52  131 1    
   106   53   54 2    
   107   53   55 1    
   108   55   56 1    
   109   55   59 1    
   110   55  132 1    
   111   56   57 1    
   112   56  133 1    
   113   56  134 1    
   114   57   58 1    
   115   58  135 1    
   116   58  136 1    
   117   59   60 am   BACKBONE|DICT|INTERRES
   118   59  137 1    
   119   60   61 2    
   120   60   62 1    
   121   62   63 1    
   122   62   64 1    
   123   62  138 1    
   124   63  139 1    
   125   63  140 1    
   126   63  141 1    
   127   64   65 am   BACKBONE|DICT|INTERRES
   128   64  142 1    
   129   65   66 2    
   130   65   67 1    
   131   67   68 1    
   132   67   69 1    
   133   67  143 1    
   134   68  144 1    
   135   68  145 1    
   136   68  146 1    
   137   69   70 am   BACKBONE|DICT|INTERRES
   138   69  147 1    
   139   70   71 2    
   140   70   72 1    
   141   72   73 1    
   142   72   74 1    
   143   72  148 1    
   144   73  149 1    
   145   73  150 1    
   146   73  151 1    
   147   74   75 am   BACKBONE|DICT|INTERRES
   148   74  152 1    
   149   75   76 2    
   150   75   77 1    
   151   77   78 1    
   152   77   79 1    
   153   77  153 1    
   154   78  154 1    
   155   78  155 1    
   156   78  156 1    
   157   79   80 am   BACKBONE|DICT|INTERRES
   158   79  157 1    
   159   80   81 2    
@<TRIPOS>SUBSTRUCTURE
     1 UNK         1 GROUP             0       ****    0 ROOT    
