@<TRIPOS>MOLECULE
3R207
157   159    1
SMALL
USER_CHARGES


@<TRIPOS>ATOM
      1 CA        -49.9706  -31.1047    3.3847 C.3       0 UNK        -0.1975 
      2 C         -50.1242  -29.8438    4.2221 C.2       0 UNK         0.4852 
      3 O         -50.9433  -28.9861    3.8911 O.2       0 UNK        -0.5216 
      4 N         -49.3390  -29.7234    5.3015 N.am      1 UNK        -0.4461 
      5 CA        -49.3634  -28.5907    6.2368 C.3       1 UNK         0.0864 
      6 C6        -48.6366  -28.9300    7.5641 C.3       14 UNK        -0.0898 
      7 S7        -49.5496  -30.1547    8.5594 S.3       14 UNK        -0.2598 
      8 C8        -50.2467  -29.1166    9.8876 C.3       14 UNK         0.0286 
      9 C9        -51.4866  -28.3553    9.4358 C.ar      14 UNK        -0.0844 
     10 C10       -51.3655  -27.1692    8.7078 C.ar      14 UNK        -0.0881 
     11 C11       -52.4986  -26.4747    8.2766 C.ar      14 UNK        -0.0643 
     12 C12       -53.7676  -26.9552    8.6168 C.ar      14 UNK        -0.0930 
     13 C13       -53.9047  -28.1285    9.3661 C.ar      14 UNK        -0.0827 
     14 C14       -52.7606  -28.8307    9.7576 C.ar      14 UNK        -0.1249 
     15 C15       -55.2843  -28.6510    9.7421 C.3       14 UNK         0.0141 
     16 S16       -56.0743  -27.6253   11.0245 S.3       14 UNK        -0.2313 
     17 C17       -57.4821  -28.6869   11.4981 C.3       14 UNK        -0.0915 
     18 CA        -57.6950  -28.7905   13.0335 C.3       13 UNK         0.0968 
     19 C         -58.9567  -29.6489   13.3435 C.2       13 UNK         0.5732 
     20 N         -58.8274  -30.8476   13.9000 N.am      13 UNK        -0.7310 
     21 O         -60.0746  -29.2150   13.0746 O.2       13 UNK        -0.5035 
     22 N         -56.4697  -29.2021   13.7409 N.am      13 UNK        -0.4233 
     23 C         -56.2738  -29.1407   15.0639 C.2       13 UNK         0.4989 
     24 O         -57.1189  -28.7343   15.8621 O.2       13 UNK        -0.4996 
     25 CA        -54.8992  -29.5871   15.5988 C.3       12 UNK         0.0216 
     26 CB        -54.7632  -31.1226   15.5945 C.3       12 UNK        -0.1964 
     27 N         -53.7581  -28.9353   14.9407 N.am      12 UNK        -0.4276 
     28 C         -53.3540  -29.0342   13.6655 C.2       12 UNK         0.5020 
     29 O         -53.8723  -29.7814   12.8350 O.2       12 UNK        -0.5489 
     30 CA        -52.1891  -28.1255   13.2439 C.3       11 UNK         0.0294 
     31 CB        -52.7274  -26.7680   12.7627 C.3       11 UNK        -0.2019 
     32 N         -51.2183  -27.9156   14.3197 N.am      11 UNK        -0.4493 
     33 C         -50.3447  -28.8467   14.7335 C.2       11 UNK         0.4932 
     34 O         -50.2455  -29.9609   14.2185 O.2       11 UNK        -0.5029 
     35 CA        -49.4181  -28.4967   15.9154 C.3       10 UNK         0.0280 
     36 CB        -48.0260  -28.0969   15.3997 C.3       10 UNK        -0.1976 
     37 N         -49.9244  -27.4318   16.7833 N.am      10 UNK        -0.4242 
     38 C         -51.0382  -27.4900   17.5275 C.2       10 UNK         0.5072 
     39 O         -51.7487  -28.4909   17.6252 O.2       10 UNK        -0.5224 
     40 CA        -51.4603  -26.1928   18.2469 C.3       9 UNK         0.0343 
     41 CB        -50.9591  -26.1984   19.6999 C.3       9 UNK        -0.2003 
     42 N         -51.0211  -24.9542   17.5858 N.am      9 UNK        -0.4272 
     43 C         -51.3057  -24.6144   16.3207 C.2       9 UNK         0.4988 
     44 O         -51.9493  -25.3326   15.5507 O.2       9 UNK        -0.5108 
     45 CA        -50.7454  -23.2772   15.8229 C.3       8 UNK         0.0248 
     46 CB        -49.2110  -23.3234   15.6964 C.3       8 UNK        -0.2001 
     47 N         -51.3285  -23.0053   14.5148 N.am      8 UNK        -0.4140 
     48 C         -51.6240  -21.8061   14.0055 C.2       8 UNK         0.5028 
     49 O         -51.4049  -20.7415   14.5876 O.2       8 UNK        -0.5428 
     50 CA        -52.2885  -21.8106   12.6121 C.3       7 UNK         0.0264 
     51 CB        -52.2403  -20.4338   11.9146 C.3       7 UNK        -0.1988 
     52 N         -51.7696  -22.8653   11.7276 N.am      7 UNK        -0.4454 
     53 C         -50.5043  -23.0123   11.3037 C.2       7 UNK         0.5027 
     54 O         -49.5879  -22.2317   11.5710 O.2       7 UNK        -0.5083 
     55 CA        -50.2279  -24.2293   10.3938 C.3       6 UNK         0.0844 
     56 C56       -50.3610  -23.8518    8.8975 C.3       14 UNK        -0.0967 
     57 S57       -52.1093  -23.7161    8.3796 S.3       14 UNK        -0.2604 
     58 C58       -52.3518  -25.2341    7.4054 C.3       14 UNK         0.0134 
     59 N         -48.9207  -24.8223   10.6889 N.am      6 UNK        -0.4116 
     60 C         -48.5999  -25.4179   11.8497 C.2       5 UNK         0.5034 
     61 O         -49.3994  -25.6141   12.7639 O.2       5 UNK        -0.5045 
     62 CA        -47.1429  -25.8813   12.0380 C.3       5 UNK         0.0224 
     63 CB        -47.0143  -27.3824   11.7295 C.3       5 UNK        -0.1978 
     64 N         -46.1862  -25.1389   11.2156 N.am      5 UNK        -0.4737 
     65 C         -45.8906  -23.8396   11.3589 C.2       4 UNK         0.5027 
     66 O         -46.2703  -23.1613   12.3128 O.2       4 UNK        -0.5211 
     67 CA        -45.0404  -23.1743   10.2554 C.3       4 UNK         0.0297 
     68 CB        -43.6971  -22.6887   10.8268 C.3       4 UNK        -0.1993 
     69 N         -44.7769  -24.0097    9.0750 N.am      4 UNK        -0.4486 
     70 C         -45.6897  -24.4895    8.2196 C.2       3 UNK         0.4961 
     71 O         -46.9067  -24.3196    8.3380 O.2       3 UNK        -0.5105 
     72 CA        -45.1377  -25.3624    7.0870 C.3       3 UNK         0.0299 
     73 CB        -44.6641  -26.7259    7.6313 C.3       3 UNK        -0.1972 
     74 N         -46.1743  -25.5711    6.0828 N.am      3 UNK        -0.4305 
     75 C         -45.9774  -25.9536    4.8166 C.2       2 UNK         0.5006 
     76 O         -44.8615  -26.1167    4.3187 O.2       2 UNK        -0.5106 
     77 CA        -47.2445  -26.2545    3.9909 C.3       2 UNK         0.0296 
     78 CB        -46.9352  -26.5769    2.5166 C.3       2 UNK        -0.2002 
     79 N         -47.9853  -27.3753    4.5766 N.am      2 UNK        -0.4032 
     80 C         -48.7860  -27.2865    5.6480 C.2       1 UNK         0.5000 
     81 O         -49.0393  -26.2181    6.2072 O.2       1 UNK        -0.5238 
     82 H82       -49.2122  -31.7744    3.7899 H         1 UNK         0.0889 
     83 H83       -49.6854  -30.8461    2.3653 H         1 UNK         0.0889 
     84 H84       -50.9153  -31.6466    3.3472 H         1 UNK         0.0889 
     85 H85       -48.7031  -30.4720    5.5389 H         1 UNK         0.3028 
     86 H86       -50.4114  -28.3808    6.4579 H         1 UNK         0.0864 
     87 H87       -47.6400  -29.3266    7.3614 H         1 UNK         0.0720 
     88 H88       -48.4716  -28.0398    8.1738 H         1 UNK         0.0720 
     89 H89       -49.4956  -28.4212   10.2632 H         1 UNK         0.0814 
     90 H90       -50.4942  -29.7674   10.7275 H         1 UNK         0.0814 
     91 H91       -50.3852  -26.7952    8.4556 H         1 UNK         0.1469 
     92 H92       -54.6507  -26.4190    8.2970 H         1 UNK         0.1381 
     93 H93       -52.8621  -29.7437   10.3285 H         1 UNK         0.1206 
     94 H94       -55.9215  -28.6792    8.8572 H         1 UNK         0.0813 
     95 H95       -55.2064  -29.6782   10.1021 H         1 UNK         0.0813 
     96 H96       -57.3433  -29.6839   11.0766 H         1 UNK         0.0638 
     97 H97       -58.3726  -28.2776   11.0173 H         1 UNK         0.0638 
     98 H98       -57.9291  -27.7866   13.3925 H         1 UNK         0.0568 
     99 H99       -57.9149  -31.2114   14.1212 H         1 UNK         0.3450 
    100 H100      -59.6520  -31.3917   14.0985 H         1 UNK         0.3450 
    101 H101      -55.6894  -29.5105   13.1651 H         1 UNK         0.2987 
    102 H102      -54.8510  -29.2642   16.6403 H         1 UNK         0.0766 
    103 H103      -53.8195  -31.4350   16.0418 H         1 UNK         0.0798 
    104 H104      -54.8089  -31.5386   14.5877 H         1 UNK         0.0798 
    105 H105      -55.5645  -31.5850   16.1724 H         1 UNK         0.0798 
    106 H106      -53.2383  -28.2972   15.5289 H         1 UNK         0.3198 
    107 H107      -51.6720  -28.6029   12.4121 H         1 UNK         0.0843 
    108 H108      -53.3512  -26.2858   13.5158 H         1 UNK         0.0831 
    109 H109      -53.3372  -26.8879   11.8686 H         1 UNK         0.0831 
    110 H110      -51.9200  -26.0856   12.5083 H         1 UNK         0.0831 
    111 H111      -51.2426  -27.0101   14.7798 H         1 UNK         0.3133 
    112 H112      -49.3131  -29.3971   16.5241 H         1 UNK         0.0566 
    113 H113      -47.3265  -27.9391   16.2207 H         1 UNK         0.0814 
    114 H114      -47.6051  -28.8771   14.7639 H         1 UNK         0.0814 
    115 H115      -48.0660  -27.1808   14.8094 H         1 UNK         0.0814 
    116 H116      -49.4154  -26.5606   16.7709 H         1 UNK         0.3091 
    117 H117      -52.5521  -26.1788   18.2633 H         1 UNK         0.0702 
    118 H118      -51.3414  -25.3422   20.2560 H         1 UNK         0.0785 
    119 H119      -49.8698  -26.1751   19.7517 H         1 UNK         0.0785 
    120 H120      -51.2911  -27.0959   20.2242 H         1 UNK         0.0785 
    121 H121      -50.4839  -24.3108   18.1498 H         1 UNK         0.2998 
    122 H122      -51.0394  -22.4982   16.5294 H         1 UNK         0.0697 
    123 H123      -48.8863  -24.1223   15.0282 H         1 UNK         0.0825 
    124 H124      -48.7344  -23.4880   16.6632 H         1 UNK         0.0825 
    125 H125      -48.8197  -22.3856   15.3011 H         1 UNK         0.0825 
    126 H126      -51.5894  -23.8397   14.0043 H         1 UNK         0.3029 
    127 H127      -53.3389  -22.0496   12.7860 H         1 UNK         0.0897 
    128 H128      -52.7278  -20.4653   10.9402 H         1 UNK         0.0792 
    129 H129      -51.2163  -20.0894   11.7666 H         1 UNK         0.0792 
    130 H130      -52.7537  -19.6766   12.5084 H         1 UNK         0.0792 
    131 H131      -52.4511  -23.5442   11.4160 H         1 UNK         0.3086 
    132 H132      -50.9667  -25.0009   10.6185 H         1 UNK         0.0583 
    133 H133      -49.8506  -22.9106    8.6822 H         1 UNK         0.1020 
    134 H134      -49.8616  -24.5889    8.2681 H         1 UNK         0.1020 
    135 H135      -53.2460  -25.1089    6.7930 H         1 UNK         0.0694 
    136 H136      -51.5275  -25.3587    6.7024 H         1 UNK         0.0694 
    137 H137      -48.1902  -24.6643   10.0042 H         1 UNK         0.2989 
    138 H138      -46.8868  -25.7176   13.0871 H         1 UNK         0.1055 
    139 H139      -47.7401  -27.9644   12.2995 H         1 UNK         0.0806 
    140 H140      -46.0246  -27.7568   11.9916 H         1 UNK         0.0806 
    141 H141      -47.1846  -27.5948   10.6734 H         1 UNK         0.0806 
    142 H142      -45.8125  -25.6154   10.4085 H         1 UNK         0.3061 
    143 H143      -45.6016  -22.3010    9.9162 H         1 UNK         0.0734 
    144 H144      -43.1261  -22.1305   10.0846 H         1 UNK         0.0832 
    145 H145      -43.8500  -22.0234   11.6779 H         1 UNK         0.0832 
    146 H146      -43.0816  -23.5205   11.1717 H         1 UNK         0.0832 
    147 H147      -43.8056  -24.2265    8.8996 H         1 UNK         0.3156 
    148 H148      -44.2985  -24.8347    6.6289 H         1 UNK         0.0589 
    149 H149      -45.4836  -27.2827    8.0878 H         1 UNK         0.0808 
    150 H150      -44.2431  -27.3461    6.8398 H         1 UNK         0.0808 
    151 H151      -43.8866  -26.6080    8.3869 H         1 UNK         0.0808 
    152 H152      -47.1266  -25.4364    6.4158 H         1 UNK         0.3098 
    153 H153      -47.8705  -25.3597    4.0115 H         1 UNK         0.0720 
    154 H154      -47.8504  -26.7394    1.9468 H         1 UNK         0.0791 
    155 H155      -46.3154  -27.4689    2.4171 H         1 UNK         0.0791 
    156 H156      -46.4012  -25.7531    2.0410 H         1 UNK         0.0791 
    157 H157      -47.8016  -28.2913    4.1943 H         1 UNK         0.3028 
@<TRIPOS>BOND
     1    1    2 1    
     2    1   82 1    
     3    1   83 1    
     4    1   84 1    
     5    2    3 2    
     6    2    4 am   BACKBONE|DICT|INTERRES
     7    4    5 1    
     8    4   85 1    
     9    5    6 1    
    10    5   80 1    
    11    5   86 1    
    12    6    7 1    
    13    6   87 1    
    14    6   88 1    
    15    7    8 1    
    16    8    9 1    
    17    8   89 1    
    18    8   90 1    
    19    9   10 ar   
    20    9   14 ar   
    21   10   11 ar   
    22   10   91 1    
    23   11   12 ar   
    24   11   58 1    
    25   12   13 ar   
    26   12   92 1    
    27   13   14 ar   
    28   13   15 1    
    29   14   93 1    
    30   15   16 1    
    31   15   94 1    
    32   15   95 1    
    33   16   17 1    
    34   17   18 1    
    35   17   96 1    
    36   17   97 1    
    37   18   19 1    
    38   18   22 1    
    39   18   98 1    
    40   19   20 am   BACKBONE|DICT|INTERRES
    41   19   21 2    
    42   20   99 1    
    43   20  100 1    
    44   22   23 am   BACKBONE|DICT|INTERRES
    45   22  101 1    
    46   23   24 2    
    47   23   25 1    
    48   25   26 1    
    49   25   27 1    
    50   25  102 1    
    51   26  103 1    
    52   26  104 1    
    53   26  105 1    
    54   27   28 am   BACKBONE|DICT|INTERRES
    55   27  106 1    
    56   28   29 2    
    57   28   30 1    
    58   30   31 1    
    59   30   32 1    
    60   30  107 1    
    61   31  108 1    
    62   31  109 1    
    63   31  110 1    
    64   32   33 am   BACKBONE|DICT|INTERRES
    65   32  111 1    
    66   33   34 2    
    67   33   35 1    
    68   35   36 1    
    69   35   37 1    
    70   35  112 1    
    71   36  113 1    
    72   36  114 1    
    73   36  115 1    
    74   37   38 am   BACKBONE|DICT|INTERRES
    75   37  116 1    
    76   38   39 2    
    77   38   40 1    
    78   40   41 1    
    79   40   42 1    
    80   40  117 1    
    81   41  118 1    
    82   41  119 1    
    83   41  120 1    
    84   42   43 am   BACKBONE|DICT|INTERRES
    85   42  121 1    
    86   43   44 2    
    87   43   45 1    
    88   45   46 1    
    89   45   47 1    
    90   45  122 1    
    91   46  123 1    
    92   46  124 1    
    93   46  125 1    
    94   47   48 am   BACKBONE|DICT|INTERRES
    95   47  126 1    
    96   48   49 2    
    97   48   50 1    
    98   50   51 1    
    99   50   52 1    
   100   50  127 1    
   101   51  128 1    
   102   51  129 1    
   103   51  130 1    
   104   52   53 am   BACKBONE|DICT|INTERRES
   105   52  131 1    
   106   53   54 2    
   107   53   55 1    
   108   55   56 1    
   109   55   59 1    
   110   55  132 1    
   111   56   57 1    
   112   56  133 1    
   113   56  134 1    
   114   57   58 1    
   115   58  135 1    
   116   58  136 1    
   117   59   60 am   BACKBONE|DICT|INTERRES
   118   59  137 1    
   119   60   61 2    
   120   60   62 1    
   121   62   63 1    
   122   62   64 1    
   123   62  138 1    
   124   63  139 1    
   125   63  140 1    
   126   63  141 1    
   127   64   65 am   BACKBONE|DICT|INTERRES
   128   64  142 1    
   129   65   66 2    
   130   65   67 1    
   131   67   68 1    
   132   67   69 1    
   133   67  143 1    
   134   68  144 1    
   135   68  145 1    
   136   68  146 1    
   137   69   70 am   BACKBONE|DICT|INTERRES
   138   69  147 1    
   139   70   71 2    
   140   70   72 1    
   141   72   73 1    
   142   72   74 1    
   143   72  148 1    
   144   73  149 1    
   145   73  150 1    
   146   73  151 1    
   147   74   75 am   BACKBONE|DICT|INTERRES
   148   74  152 1    
   149   75   76 2    
   150   75   77 1    
   151   77   78 1    
   152   77   79 1    
   153   77  153 1    
   154   78  154 1    
   155   78  155 1    
   156   78  156 1    
   157   79   80 am   BACKBONE|DICT|INTERRES
   158   79  157 1    
   159   80   81 2    
@<TRIPOS>SUBSTRUCTURE
     1 UNK         1 GROUP             0       ****    0 ROOT    
