@<TRIPOS>MOLECULE
3R207
157   159    1
SMALL
USER_CHARGES


@<TRIPOS>ATOM
      1 CA        -45.9116  -30.7442    8.2192 C.3       0 UNK        -0.1975 
      2 C         -46.8346  -30.4894    7.0367 C.2       0 UNK         0.4852 
      3 O         -46.5709  -30.9786    5.9379 O.2       0 UNK        -0.5216 
      4 N         -47.9137  -29.7260    7.2569 N.am      1 UNK        -0.4461 
      5 CA        -48.9252  -29.3658    6.2536 C.3       1 UNK         0.0864 
      6 C6        -50.1538  -28.6798    6.8996 C.3       14 UNK        -0.0898 
      7 S7        -50.9869  -29.7251    8.1413 S.3       14 UNK        -0.2598 
      8 C8        -52.7415  -29.4074    7.7643 C.3       14 UNK         0.0286 
      9 C9        -53.1918  -28.0466    8.2785 C.ar      14 UNK        -0.0844 
     10 C10       -53.0195  -26.8972    7.5019 C.ar      14 UNK        -0.0881 
     11 C11       -53.4188  -25.6467    7.9818 C.ar      14 UNK        -0.0643 
     12 C12       -54.0313  -25.5525    9.2358 C.ar      14 UNK        -0.0930 
     13 C13       -54.2180  -26.6966   10.0178 C.ar      14 UNK        -0.0827 
     14 C14       -53.7889  -27.9371    9.5366 C.ar      14 UNK        -0.1249 
     15 C15       -54.8524  -26.5984   11.3959 C.3       14 UNK         0.0141 
     16 S16       -56.4580  -27.4530   11.4630 S.3       14 UNK        -0.2313 
     17 C17       -56.8027  -27.3940   13.2538 C.3       14 UNK        -0.0915 
     18 CA        -56.5589  -28.7149   14.0458 C.3       13 UNK         0.0968 
     19 C         -57.5548  -29.8734   13.7296 C.2       13 UNK         0.5732 
     20 N         -57.2121  -31.1254   14.0080 N.am      13 UNK        -0.7310 
     21 O         -58.6730  -29.6382   13.2769 O.2       13 UNK        -0.5035 
     22 N         -55.1307  -29.0667   14.1743 N.am      13 UNK        -0.4233 
     23 C         -54.3638  -29.7540   13.3134 C.2       13 UNK         0.4989 
     24 O         -54.7689  -30.2410   12.2588 O.2       13 UNK        -0.4996 
     25 CA        -52.8786  -29.9418   13.6762 C.3       12 UNK         0.0216 
     26 CB        -51.9833  -29.0400   12.8075 C.3       12 UNK        -0.1964 
     27 N         -52.5606  -29.7090   15.0881 N.am      12 UNK        -0.4276 
     28 C         -52.8515  -30.5529   16.0883 C.2       12 UNK         0.5020 
     29 O         -53.5058  -31.5854   15.9400 O.2       12 UNK        -0.5489 
     30 CA        -52.3212  -30.1916   17.4844 C.3       11 UNK         0.0294 
     31 CB        -50.8258  -30.5338   17.5947 C.3       11 UNK        -0.2019 
     32 N         -52.5129  -28.7696   17.7719 N.am      11 UNK        -0.4493 
     33 C         -53.3519  -28.2767   18.6940 C.2       11 UNK         0.4932 
     34 O         -54.0085  -28.9728   19.4690 O.2       11 UNK        -0.5029 
     35 CA        -53.4996  -26.7424   18.7637 C.3       10 UNK         0.0280 
     36 CB        -52.5523  -26.1615   19.8258 C.3       10 UNK        -0.1976 
     37 N         -53.2613  -26.0678   17.4837 N.am      10 UNK        -0.4242 
     38 C         -53.9766  -26.2697   16.3682 C.2       10 UNK         0.5072 
     39 O         -54.9833  -26.9749   16.3244 O.2       10 UNK        -0.5224 
     40 CA        -53.4621  -25.6370   15.0630 C.3       9 UNK         0.0343 
     41 CB        -54.2498  -24.3585   14.7376 C.3       9 UNK        -0.2003 
     42 N         -52.0258  -25.3395   15.0203 N.am      9 UNK        -0.4272 
     43 C         -51.0142  -26.1921   15.2451 C.2       9 UNK         0.4988 
     44 O         -51.1864  -27.3558   15.6132 O.2       9 UNK        -0.5108 
     45 CA        -49.5778  -25.6718   15.0333 C.3       8 UNK         0.0248 
     46 CB        -48.6310  -26.7962   14.5752 C.3       8 UNK        -0.2001 
     47 N         -49.5070  -24.5609   14.0769 N.am      8 UNK        -0.4140 
     48 C         -49.7313  -23.2714   14.3754 C.2       8 UNK         0.5028 
     49 O         -50.0096  -22.8832   15.5100 O.2       8 UNK        -0.5428 
     50 CA        -49.6779  -22.2390   13.2336 C.3       7 UNK         0.0264 
     51 CB        -48.3976  -21.3944   13.3343 C.3       7 UNK        -0.1988 
     52 N         -49.7669  -22.8363   11.8981 N.am      7 UNK        -0.4454 
     53 C         -50.8884  -23.3631   11.3766 C.2       7 UNK         0.5027 
     54 O         -51.9732  -23.3440   11.9588 O.2       7 UNK        -0.5083 
     55 CA        -50.7972  -24.0427    9.9899 C.3       6 UNK         0.0844 
     56 C56       -51.3718  -23.1031    8.9009 C.3       14 UNK        -0.0967 
     57 S57       -51.4314  -23.8678    7.2442 S.3       14 UNK        -0.2604 
     58 C58       -53.1708  -24.4030    7.1421 C.3       14 UNK         0.0134 
     59 N         -49.4481  -24.5177    9.6633 N.am      6 UNK        -0.4116 
     60 C         -48.7601  -25.4256   10.3695 C.2       5 UNK         0.5034 
     61 O         -49.2119  -26.0074   11.3553 O.2       5 UNK        -0.5045 
     62 CA        -47.3000  -25.6854    9.9558 C.3       5 UNK         0.0224 
     63 CB        -47.2180  -26.9469    9.0870 C.3       5 UNK        -0.1978 
     64 N         -46.6286  -24.5659    9.2745 N.am      5 UNK        -0.4737 
     65 C         -46.4979  -23.3275    9.7799 C.2       4 UNK         0.5027 
     66 O         -47.0142  -22.9795   10.8415 O.2       4 UNK        -0.5211 
     67 CA        -45.6624  -22.2920    9.0052 C.3       4 UNK         0.0297 
     68 CB        -44.4249  -21.8842    9.8227 C.3       4 UNK        -0.1993 
     69 N         -45.2262  -22.7303    7.6786 N.am      4 UNK        -0.4486 
     70 C         -46.0003  -22.7870    6.5882 C.2       3 UNK         0.4961 
     71 O         -47.2008  -22.5108    6.5874 O.2       3 UNK        -0.5105 
     72 CA        -45.3274  -23.2231    5.2697 C.3       3 UNK         0.0299 
     73 CB        -43.7934  -23.4008    5.3640 C.3       3 UNK        -0.1972 
     74 N         -45.9420  -24.4306    4.7086 N.am      3 UNK        -0.4305 
     75 C         -46.0866  -25.6139    5.3203 C.2       2 UNK         0.5006 
     76 O         -45.7217  -25.8518    6.4758 O.2       2 UNK        -0.5106 
     77 CA        -46.7238  -26.7282    4.4848 C.3       2 UNK         0.0296 
     78 CB        -45.6751  -27.4202    3.5949 C.3       2 UNK        -0.2002 
     79 N         -47.3229  -27.7011    5.3904 N.am      2 UNK        -0.4032 
     80 C         -48.3794  -28.4750    5.1149 C.2       1 UNK         0.5000 
     81 O         -48.9406  -28.4947    4.0174 O.2       1 UNK        -0.5238 
     82 H82       -44.9138  -30.3625    8.0045 H         1 UNK         0.0889 
     83 H83       -45.8336  -31.8140    8.4103 H         1 UNK         0.0889 
     84 H84       -46.2698  -30.2627    9.1290 H         1 UNK         0.0889 
     85 H85       -48.1071  -29.4035    8.1936 H         1 UNK         0.3028 
     86 H86       -49.2617  -30.2947    5.7877 H         1 UNK         0.0864 
     87 H87       -49.8773  -27.7371    7.3756 H         1 UNK         0.0720 
     88 H88       -50.8738  -28.4276    6.1199 H         1 UNK         0.0720 
     89 H89       -53.3426  -30.1928    8.2251 H         1 UNK         0.0814 
     90 H90       -52.9172  -29.4883    6.6905 H         1 UNK         0.0814 
     91 H91       -52.5584  -26.9655    6.5271 H         1 UNK         0.1469 
     92 H92       -54.3440  -24.5872    9.6097 H         1 UNK         0.1381 
     93 H93       -53.9293  -28.8215   10.1430 H         1 UNK         0.1206 
     94 H94       -54.1749  -27.0450   12.1206 H         1 UNK         0.0813 
     95 H95       -54.9845  -25.5570   11.6935 H         1 UNK         0.0813 
     96 H96       -57.8396  -27.0770   13.3755 H         1 UNK         0.0638 
     97 H97       -56.2129  -26.5931   13.7000 H         1 UNK         0.0638 
     98 H98       -56.8360  -28.4696   15.0712 H         1 UNK         0.0568 
     99 H99       -57.8639  -31.8698   13.8178 H         1 UNK         0.3450 
    100 H100      -56.2991  -31.3332   14.3803 H         1 UNK         0.3450 
    101 H101      -54.7019  -28.7251   15.0240 H         1 UNK         0.2987 
    102 H102      -52.6268  -30.9793   13.4454 H         1 UNK         0.0766 
    103 H103      -50.9268  -29.2239   13.0029 H         1 UNK         0.0798 
    104 H104      -52.1725  -27.9819   12.9864 H         1 UNK         0.0798 
    105 H105      -52.1483  -29.2267   11.7456 H         1 UNK         0.0798 
    106 H106      -52.0048  -28.8786   15.2908 H         1 UNK         0.3198 
    107 H107      -52.8617  -30.8055   18.2083 H         1 UNK         0.0843 
    108 H108      -50.6488  -31.5870   17.3722 H         1 UNK         0.0831 
    109 H109      -50.4527  -30.3487   18.6021 H         1 UNK         0.0831 
    110 H110      -50.2215  -29.9465   16.9019 H         1 UNK         0.0831 
    111 H111      -52.0212  -28.1176   17.1674 H         1 UNK         0.3133 
    112 H112      -54.5266  -26.5253   19.0645 H         1 UNK         0.0566 
    113 H113      -52.7030  -25.0890   19.9498 H         1 UNK         0.0814 
    114 H114      -52.7256  -26.6250   20.7981 H         1 UNK         0.0814 
    115 H115      -51.5053  -26.3277   19.5683 H         1 UNK         0.0814 
    116 H116      -52.4515  -25.4678   17.4263 H         1 UNK         0.3091 
    117 H117      -53.6539  -26.3631   14.2734 H         1 UNK         0.0702 
    118 H118      -54.0065  -23.9853   13.7426 H         1 UNK         0.0785 
    119 H119      -54.0408  -23.5640   15.4548 H         1 UNK         0.0785 
    120 H120      -55.3252  -24.5405   14.7578 H         1 UNK         0.0785 
    121 H121      -51.7804  -24.3996   14.7435 H         1 UNK         0.2998 
    122 H122      -49.2238  -25.3206   16.0044 H         1 UNK         0.0697 
    123 H123      -48.9862  -27.2754   13.6625 H         1 UNK         0.0825 
    124 H124      -48.5491  -27.5734   15.3361 H         1 UNK         0.0825 
    125 H125      -47.6247  -26.4210   14.3889 H         1 UNK         0.0825 
    126 H126      -49.3362  -24.8184   13.1107 H         1 UNK         0.3029 
    127 H127      -50.5328  -21.5713   13.3617 H         1 UNK         0.0897 
    128 H128      -48.3467  -20.6497   12.5399 H         1 UNK         0.0792 
    129 H129      -48.3583  -20.8588   14.2839 H         1 UNK         0.0792 
    130 H130      -47.5007  -22.0120   13.2741 H         1 UNK         0.0792 
    131 H131      -48.8938  -22.9027   11.3795 H         1 UNK         0.3086 
    132 H132      -51.4299  -24.9302   10.0427 H         1 UNK         0.0583 
    133 H133      -52.3755  -22.7698    9.1722 H         1 UNK         0.1020 
    134 H134      -50.7687  -22.1958    8.8278 H         1 UNK         0.1020 
    135 H135      -53.8316  -23.5882    7.4420 H         1 UNK         0.0694 
    136 H136      -53.4102  -24.6181    6.0995 H         1 UNK         0.0694 
    137 H137      -49.0014  -24.0902    8.8650 H         1 UNK         0.2989 
    138 H138      -46.7453  -25.8731   10.8778 H         1 UNK         0.1055 
    139 H139      -47.6774  -27.7964    9.5941 H         1 UNK         0.0806 
    140 H140      -46.1837  -27.2170    8.8723 H         1 UNK         0.0806 
    141 H141      -47.7377  -26.8049    8.1400 H         1 UNK         0.0806 
    142 H142      -46.1889  -24.7746    8.3848 H         1 UNK         0.3061 
    143 H143      -46.2912  -21.4074    8.8821 H         1 UNK         0.0734 
    144 H144      -44.7118  -21.5017   10.8036 H         1 UNK         0.0832 
    145 H145      -43.7532  -22.7277    9.9871 H         1 UNK         0.0832 
    146 H146      -43.8609  -21.0952    9.3248 H         1 UNK         0.0832 
    147 H147      -44.2594  -23.0082    7.5883 H         1 UNK         0.3156 
    148 H148      -45.5194  -22.4202    4.5562 H         1 UNK         0.0589 
    149 H149      -43.5095  -24.2047    6.0445 H         1 UNK         0.0808 
    150 H150      -43.3703  -23.6385    4.3878 H         1 UNK         0.0808 
    151 H151      -43.3065  -22.4847    5.7018 H         1 UNK         0.0808 
    152 H152      -46.3036  -24.3340    3.7697 H         1 UNK         0.3098 
    153 H153      -47.5032  -26.2869    3.8595 H         1 UNK         0.0720 
    154 H154      -45.2055  -26.7098    2.9133 H         1 UNK         0.0791 
    155 H155      -46.1266  -28.2032    2.9853 H         1 UNK         0.0791 
    156 H156      -44.8828  -27.8764    4.1902 H         1 UNK         0.0791 
    157 H157      -46.9201  -27.7101    6.3183 H         1 UNK         0.3028 
@<TRIPOS>BOND
     1    1    2 1    
     2    1   82 1    
     3    1   83 1    
     4    1   84 1    
     5    2    3 2    
     6    2    4 am   BACKBONE|DICT|INTERRES
     7    4    5 1    
     8    4   85 1    
     9    5    6 1    
    10    5   80 1    
    11    5   86 1    
    12    6    7 1    
    13    6   87 1    
    14    6   88 1    
    15    7    8 1    
    16    8    9 1    
    17    8   89 1    
    18    8   90 1    
    19    9   10 ar   
    20    9   14 ar   
    21   10   11 ar   
    22   10   91 1    
    23   11   12 ar   
    24   11   58 1    
    25   12   13 ar   
    26   12   92 1    
    27   13   14 ar   
    28   13   15 1    
    29   14   93 1    
    30   15   16 1    
    31   15   94 1    
    32   15   95 1    
    33   16   17 1    
    34   17   18 1    
    35   17   96 1    
    36   17   97 1    
    37   18   19 1    
    38   18   22 1    
    39   18   98 1    
    40   19   20 am   BACKBONE|DICT|INTERRES
    41   19   21 2    
    42   20   99 1    
    43   20  100 1    
    44   22   23 am   BACKBONE|DICT|INTERRES
    45   22  101 1    
    46   23   24 2    
    47   23   25 1    
    48   25   26 1    
    49   25   27 1    
    50   25  102 1    
    51   26  103 1    
    52   26  104 1    
    53   26  105 1    
    54   27   28 am   BACKBONE|DICT|INTERRES
    55   27  106 1    
    56   28   29 2    
    57   28   30 1    
    58   30   31 1    
    59   30   32 1    
    60   30  107 1    
    61   31  108 1    
    62   31  109 1    
    63   31  110 1    
    64   32   33 am   BACKBONE|DICT|INTERRES
    65   32  111 1    
    66   33   34 2    
    67   33   35 1    
    68   35   36 1    
    69   35   37 1    
    70   35  112 1    
    71   36  113 1    
    72   36  114 1    
    73   36  115 1    
    74   37   38 am   BACKBONE|DICT|INTERRES
    75   37  116 1    
    76   38   39 2    
    77   38   40 1    
    78   40   41 1    
    79   40   42 1    
    80   40  117 1    
    81   41  118 1    
    82   41  119 1    
    83   41  120 1    
    84   42   43 am   BACKBONE|DICT|INTERRES
    85   42  121 1    
    86   43   44 2    
    87   43   45 1    
    88   45   46 1    
    89   45   47 1    
    90   45  122 1    
    91   46  123 1    
    92   46  124 1    
    93   46  125 1    
    94   47   48 am   BACKBONE|DICT|INTERRES
    95   47  126 1    
    96   48   49 2    
    97   48   50 1    
    98   50   51 1    
    99   50   52 1    
   100   50  127 1    
   101   51  128 1    
   102   51  129 1    
   103   51  130 1    
   104   52   53 am   BACKBONE|DICT|INTERRES
   105   52  131 1    
   106   53   54 2    
   107   53   55 1    
   108   55   56 1    
   109   55   59 1    
   110   55  132 1    
   111   56   57 1    
   112   56  133 1    
   113   56  134 1    
   114   57   58 1    
   115   58  135 1    
   116   58  136 1    
   117   59   60 am   BACKBONE|DICT|INTERRES
   118   59  137 1    
   119   60   61 2    
   120   60   62 1    
   121   62   63 1    
   122   62   64 1    
   123   62  138 1    
   124   63  139 1    
   125   63  140 1    
   126   63  141 1    
   127   64   65 am   BACKBONE|DICT|INTERRES
   128   64  142 1    
   129   65   66 2    
   130   65   67 1    
   131   67   68 1    
   132   67   69 1    
   133   67  143 1    
   134   68  144 1    
   135   68  145 1    
   136   68  146 1    
   137   69   70 am   BACKBONE|DICT|INTERRES
   138   69  147 1    
   139   70   71 2    
   140   70   72 1    
   141   72   73 1    
   142   72   74 1    
   143   72  148 1    
   144   73  149 1    
   145   73  150 1    
   146   73  151 1    
   147   74   75 am   BACKBONE|DICT|INTERRES
   148   74  152 1    
   149   75   76 2    
   150   75   77 1    
   151   77   78 1    
   152   77   79 1    
   153   77  153 1    
   154   78  154 1    
   155   78  155 1    
   156   78  156 1    
   157   79   80 am   BACKBONE|DICT|INTERRES
   158   79  157 1    
   159   80   81 2    
@<TRIPOS>SUBSTRUCTURE
     1 UNK         1 GROUP             0       ****    0 ROOT    
