@<TRIPOS>MOLECULE
3R207
157   159    1
SMALL
USER_CHARGES


@<TRIPOS>ATOM
      1 CA        -50.7397  -30.0898    1.5115 C.3       0 UNK        -0.1975 
      2 C         -51.3527  -28.9923    2.3693 C.2       0 UNK         0.4852 
      3 O         -52.5720  -28.8184    2.3575 O.2       0 UNK        -0.5216 
      4 N         -50.5173  -28.2525    3.1076 N.am      1 UNK        -0.4461 
      5 CA        -50.9187  -27.1306    3.9602 C.3       1 UNK         0.0864 
      6 C6        -51.5831  -27.5820    5.2894 C.3       14 UNK        -0.0898 
      7 S7        -52.6192  -26.2763    6.0316 S.3       14 UNK        -0.2598 
      8 C8        -51.6054  -25.7500    7.4489 C.3       14 UNK         0.0286 
      9 C9        -51.7568  -26.6879    8.6382 C.ar      14 UNK        -0.0844 
     10 C10       -50.8396  -27.7207    8.8580 C.ar      14 UNK        -0.0881 
     11 C11       -50.9848  -28.5794    9.9526 C.ar      14 UNK        -0.0643 
     12 C12       -52.0504  -28.3908   10.8387 C.ar      14 UNK        -0.0930 
     13 C13       -52.9579  -27.3453   10.6433 C.ar      14 UNK        -0.0827 
     14 C14       -52.8068  -26.5005    9.5402 C.ar      14 UNK        -0.1249 
     15 C15       -54.0897  -27.1095   11.6326 C.3       14 UNK         0.0141 
     16 S16       -55.7252  -27.3557   10.8737 S.3       14 UNK        -0.2313 
     17 C17       -55.7564  -29.1651   10.6411 C.3       14 UNK        -0.0915 
     18 CA        -56.8122  -29.8495   11.5454 C.3       13 UNK         0.0968 
     19 C         -56.9797  -31.3527   11.1813 C.2       13 UNK         0.5732 
     20 N         -56.7149  -32.2928   12.0817 N.am      13 UNK        -0.7310 
     21 O         -57.3736  -31.6730   10.0623 O.2       13 UNK        -0.5035 
     22 N         -56.5342  -29.6173   12.9707 N.am      13 UNK        -0.4233 
     23 C         -57.4585  -29.4837   13.9245 C.2       13 UNK         0.4989 
     24 O         -58.6700  -29.4749   13.7014 O.2       13 UNK        -0.4996 
     25 CA        -56.9771  -29.3373   15.3817 C.3       12 UNK         0.0216 
     26 CB        -57.0744  -30.6885   16.1172 C.3       12 UNK        -0.1964 
     27 N         -55.6493  -28.7326   15.5860 N.am      12 UNK        -0.4276 
     28 C         -54.4388  -29.1783   15.2261 C.2       12 UNK         0.5020 
     29 O         -54.2587  -30.1472   14.4857 O.2       12 UNK        -0.5489 
     30 CA        -53.2320  -28.4008   15.7876 C.3       11 UNK         0.0294 
     31 CB        -51.9052  -29.1501   15.5721 C.3       11 UNK        -0.2019 
     32 N         -53.0965  -27.0492   15.2409 N.am      11 UNK        -0.4493 
     33 C         -53.8900  -26.0036   15.5074 C.2       11 UNK         0.4932 
     34 O         -54.9204  -26.0769   16.1810 O.2       11 UNK        -0.5029 
     35 CA        -53.3972  -24.6458   14.9724 C.3       10 UNK         0.0280 
     36 CB        -54.3554  -23.4790   15.2889 C.3       10 UNK        -0.1976 
     37 N         -52.0358  -24.3576   15.4401 N.am      10 UNK        -0.4242 
     38 C         -51.6097  -24.2597   16.7105 C.2       10 UNK         0.5072 
     39 O         -52.3521  -24.2799   17.6932 O.2       10 UNK        -0.5224 
     40 CA        -50.0908  -24.1567   16.9423 C.3       9 UNK         0.0343 
     41 CB        -49.5438  -25.5117   17.4219 C.3       9 UNK        -0.2003 
     42 N         -49.3405  -23.7352   15.7573 N.am      9 UNK        -0.4272 
     43 C         -49.3057  -22.4826   15.2817 C.2       9 UNK         0.4988 
     44 O         -49.8577  -21.5260   15.8262 O.2       9 UNK        -0.5108 
     45 CA        -48.5504  -22.2667   13.9582 C.3       8 UNK         0.0248 
     46 CB        -47.0365  -22.1631   14.2019 C.3       8 UNK        -0.2001 
     47 N         -48.8198  -23.3135   12.9684 N.am      8 UNK        -0.4140 
     48 C         -50.0242  -23.5753   12.4377 C.2       8 UNK         0.5028 
     49 O         -51.0498  -22.9505   12.7058 O.2       8 UNK        -0.5428 
     50 CA        -50.1001  -24.7628   11.4718 C.3       7 UNK         0.0264 
     51 CB        -49.5600  -24.3662   10.0872 C.3       7 UNK        -0.1988 
     52 N         -49.3543  -25.9081   11.9913 N.am      7 UNK        -0.4454 
     53 C         -49.7698  -26.6896   12.9994 C.2       7 UNK         0.5027 
     54 O         -50.8521  -26.5503   13.5724 O.2       7 UNK        -0.5083 
     55 CA        -48.8013  -27.7902   13.4847 C.3       6 UNK         0.0844 
     56 C56       -49.0477  -29.1440   12.7730 C.3       14 UNK        -0.0967 
     57 S57       -48.4929  -29.1940   11.0309 S.3       14 UNK        -0.2604 
     58 C58       -50.0016  -29.7229   10.1578 C.3       14 UNK         0.0134 
     59 N         -47.3950  -27.3833   13.4195 N.am      6 UNK        -0.4116 
     60 C         -46.8461  -26.3893   14.1308 C.2       5 UNK         0.5034 
     61 O         -47.4554  -25.7318   14.9724 O.2       5 UNK        -0.5045 
     62 CA        -45.3856  -26.0253   13.8069 C.3       5 UNK         0.0224 
     63 CB        -44.4211  -26.8598   14.6640 C.3       5 UNK        -0.1978 
     64 N         -45.0343  -26.1699   12.3878 N.am      5 UNK        -0.4737 
     65 C         -45.6628  -25.5534   11.3773 C.2       4 UNK         0.5027 
     66 O         -46.6196  -24.7930   11.5446 O.2       4 UNK        -0.5211 
     67 CA        -45.1617  -25.8835    9.9600 C.3       4 UNK         0.0297 
     68 CB        -45.2985  -27.3849    9.6502 C.3       4 UNK        -0.1993 
     69 N         -45.9106  -25.1477    8.9447 N.am      4 UNK        -0.4486 
     70 C         -45.6793  -23.8941    8.5464 C.2       3 UNK         0.4961 
     71 O         -44.7339  -23.2122    8.9470 O.2       3 UNK        -0.5105 
     72 CA        -46.6640  -23.3286    7.4996 C.3       3 UNK         0.0299 
     73 CB        -46.3188  -21.8878    7.0785 C.3       3 UNK        -0.1972 
     74 N         -46.7525  -24.1678    6.2982 N.am      3 UNK        -0.4305 
     75 C         -47.4067  -25.3331    6.2058 C.2       2 UNK         0.5006 
     76 O         -48.0020  -25.8623    7.1475 O.2       2 UNK        -0.5106 
     77 CA        -47.3261  -26.0623    4.8566 C.3       2 UNK         0.0296 
     78 CB        -46.1516  -27.0548    4.8612 C.3       2 UNK        -0.2002 
     79 N         -48.5657  -26.7881    4.5721 N.am      2 UNK        -0.4032 
     80 C         -49.7104  -26.2044    4.1843 C.2       1 UNK         0.5000 
     81 O         -49.8195  -24.9970    3.9614 O.2       1 UNK        -0.5238 
     82 H82       -50.9656  -29.9142    0.4601 H         1 UNK         0.0889 
     83 H83       -51.1524  -31.0586    1.7915 H         1 UNK         0.0889 
     84 H84       -49.6565  -30.1388    1.6219 H         1 UNK         0.0889 
     85 H85       -49.5217  -28.4052    3.0244 H         1 UNK         0.3028 
     86 H86       -51.6504  -26.5508    3.3921 H         1 UNK         0.0864 
     87 H87       -50.8425  -27.9458    6.0015 H         1 UNK         0.0720 
     88 H88       -52.2474  -28.4276    5.1069 H         1 UNK         0.0720 
     89 H89       -51.9090  -24.7435    7.7402 H         1 UNK         0.0814 
     90 H90       -50.5619  -25.6702    7.1472 H         1 UNK         0.0814 
     91 H91       -50.0078  -27.8555    8.1802 H         1 UNK         0.1469 
     92 H92       -52.1691  -29.0507   11.6866 H         1 UNK         0.1381 
     93 H93       -53.5111  -25.6948    9.3839 H         1 UNK         0.1206 
     94 H94       -54.0252  -26.0857   12.0015 H         1 UNK         0.0813 
     95 H95       -53.9926  -27.7576   12.5042 H         1 UNK         0.0813 
     96 H96       -54.7667  -29.5862   10.8242 H         1 UNK         0.0638 
     97 H97       -55.9737  -29.3487    9.5874 H         1 UNK         0.0638 
     98 H98       -57.7744  -29.3913   11.3088 H         1 UNK         0.0568 
     99 H99       -56.3819  -32.0426   12.9988 H         1 UNK         0.3450 
    100 H100      -56.8349  -33.2619   11.8330 H         1 UNK         0.3450 
    101 H101      -55.5671  -29.7074   13.2711 H         1 UNK         0.2987 
    102 H102      -57.6799  -28.6536   15.8607 H         1 UNK         0.0766 
    103 H103      -56.3875  -31.4276   15.7037 H         1 UNK         0.0798 
    104 H104      -58.0806  -31.1037   16.0424 H         1 UNK         0.0798 
    105 H105      -56.8494  -30.5792   17.1781 H         1 UNK         0.0798 
    106 H106      -55.6532  -27.8394   16.0754 H         1 UNK         0.3198 
    107 H107      -53.3843  -28.3116   16.8655 H         1 UNK         0.0843 
    108 H108      -51.6842  -29.2657   14.5118 H         1 UNK         0.0831 
    109 H109      -51.9443  -30.1492   16.0080 H         1 UNK         0.0831 
    110 H110      -51.0704  -28.6255   16.0371 H         1 UNK         0.0831 
    111 H111      -52.2785  -26.8823   14.6548 H         1 UNK         0.3133 
    112 H112      -53.3340  -24.7367   13.8875 H         1 UNK         0.0566 
    113 H113      -55.3412  -23.6590   14.8586 H         1 UNK         0.0814 
    114 H114      -54.4909  -23.3404   16.3620 H         1 UNK         0.0814 
    115 H115      -53.9855  -22.5416   14.8736 H         1 UNK         0.0814 
    116 H116      -51.3333  -24.3301   14.7129 H         1 UNK         0.3091 
    117 H117      -49.9271  -23.4220   17.7335 H         1 UNK         0.0702 
    118 H118      -48.4795  -25.4516   17.6505 H         1 UNK         0.0785 
    119 H119      -49.6810  -26.2890   16.6687 H         1 UNK         0.0785 
    120 H120      -50.0520  -25.8420   18.3288 H         1 UNK         0.0785 
    121 H121      -48.7852  -24.4521   15.2951 H         1 UNK         0.2998 
    122 H122      -48.8916  -21.3208   13.5324 H         1 UNK         0.0697 
    123 H123      -46.6366  -23.0716   14.6519 H         1 UNK         0.0825 
    124 H124      -46.8075  -21.3382   14.8778 H         1 UNK         0.0825 
    125 H125      -46.4948  -21.9823   13.2731 H         1 UNK         0.0825 
    126 H126      -48.0288  -23.8655   12.6484 H         1 UNK         0.3029 
    127 H127      -51.1461  -25.0567   11.3656 H         1 UNK         0.0897 
    128 H128      -48.5900  -23.8742   10.1499 H         1 UNK         0.0792 
    129 H129      -50.2408  -23.6732    9.5923 H         1 UNK         0.0792 
    130 H130      -49.4446  -25.2329    9.4383 H         1 UNK         0.0792 
    131 H131      -48.4259  -26.0474   11.6150 H         1 UNK         0.3086 
    132 H132      -49.0283  -27.9427   14.5421 H         1 UNK         0.0583 
    133 H133      -48.5132  -29.9307   13.3078 H         1 UNK         0.1020 
    134 H134      -50.0988  -29.4241   12.8367 H         1 UNK         0.1020 
    135 H135      -49.7137  -30.1279    9.1865 H         1 UNK         0.0694 
    136 H136      -50.4725  -30.5463   10.6969 H         1 UNK         0.0694 
    137 H137      -46.8260  -27.8596   12.7353 H         1 UNK         0.2989 
    138 H138      -45.2509  -24.9740   14.0685 H         1 UNK         0.1055 
    139 H139      -44.6509  -26.7531   15.7253 H         1 UNK         0.0806 
    140 H140      -43.3881  -26.5396   14.5260 H         1 UNK         0.0806 
    141 H141      -44.4796  -27.9220   14.4232 H         1 UNK         0.0806 
    142 H142      -44.2541  -26.7756   12.1752 H         1 UNK         0.3061 
    143 H143      -44.1075  -25.6050    9.9018 H         1 UNK         0.0734 
    144 H144      -44.9187  -27.6159    8.6547 H         1 UNK         0.0832 
    145 H145      -44.7368  -27.9999   10.3537 H         1 UNK         0.0832 
    146 H146      -46.3387  -27.7082    9.6873 H         1 UNK         0.0832 
    147 H147      -46.7270  -25.6082    8.5509 H         1 UNK         0.3156 
    148 H148      -47.6488  -23.3027    7.9698 H         1 UNK         0.0589 
    149 H149      -45.3430  -21.8304    6.5946 H         1 UNK         0.0808 
    150 H150      -47.0612  -21.4870    6.3881 H         1 UNK         0.0808 
    151 H151      -46.2938  -21.2235    7.9435 H         1 UNK         0.0808 
    152 H152      -46.2479  -23.8356    5.4886 H         1 UNK         0.3098 
    153 H153      -47.1615  -25.3289    4.0639 H         1 UNK         0.0720 
    154 H154      -46.0612  -27.5683    3.9038 H         1 UNK         0.0791 
    155 H155      -46.2642  -27.8110    5.6396 H         1 UNK         0.0791 
    156 H156      -45.2060  -26.5417    5.0421 H         1 UNK         0.0791 
    157 H157      -48.5719  -27.7682    4.8124 H         1 UNK         0.3028 
@<TRIPOS>BOND
     1    1    2 1    
     2    1   82 1    
     3    1   83 1    
     4    1   84 1    
     5    2    3 2    
     6    2    4 am   BACKBONE|DICT|INTERRES
     7    4    5 1    
     8    4   85 1    
     9    5    6 1    
    10    5   80 1    
    11    5   86 1    
    12    6    7 1    
    13    6   87 1    
    14    6   88 1    
    15    7    8 1    
    16    8    9 1    
    17    8   89 1    
    18    8   90 1    
    19    9   10 ar   
    20    9   14 ar   
    21   10   11 ar   
    22   10   91 1    
    23   11   12 ar   
    24   11   58 1    
    25   12   13 ar   
    26   12   92 1    
    27   13   14 ar   
    28   13   15 1    
    29   14   93 1    
    30   15   16 1    
    31   15   94 1    
    32   15   95 1    
    33   16   17 1    
    34   17   18 1    
    35   17   96 1    
    36   17   97 1    
    37   18   19 1    
    38   18   22 1    
    39   18   98 1    
    40   19   20 am   BACKBONE|DICT|INTERRES
    41   19   21 2    
    42   20   99 1    
    43   20  100 1    
    44   22   23 am   BACKBONE|DICT|INTERRES
    45   22  101 1    
    46   23   24 2    
    47   23   25 1    
    48   25   26 1    
    49   25   27 1    
    50   25  102 1    
    51   26  103 1    
    52   26  104 1    
    53   26  105 1    
    54   27   28 am   BACKBONE|DICT|INTERRES
    55   27  106 1    
    56   28   29 2    
    57   28   30 1    
    58   30   31 1    
    59   30   32 1    
    60   30  107 1    
    61   31  108 1    
    62   31  109 1    
    63   31  110 1    
    64   32   33 am   BACKBONE|DICT|INTERRES
    65   32  111 1    
    66   33   34 2    
    67   33   35 1    
    68   35   36 1    
    69   35   37 1    
    70   35  112 1    
    71   36  113 1    
    72   36  114 1    
    73   36  115 1    
    74   37   38 am   BACKBONE|DICT|INTERRES
    75   37  116 1    
    76   38   39 2    
    77   38   40 1    
    78   40   41 1    
    79   40   42 1    
    80   40  117 1    
    81   41  118 1    
    82   41  119 1    
    83   41  120 1    
    84   42   43 am   BACKBONE|DICT|INTERRES
    85   42  121 1    
    86   43   44 2    
    87   43   45 1    
    88   45   46 1    
    89   45   47 1    
    90   45  122 1    
    91   46  123 1    
    92   46  124 1    
    93   46  125 1    
    94   47   48 am   BACKBONE|DICT|INTERRES
    95   47  126 1    
    96   48   49 2    
    97   48   50 1    
    98   50   51 1    
    99   50   52 1    
   100   50  127 1    
   101   51  128 1    
   102   51  129 1    
   103   51  130 1    
   104   52   53 am   BACKBONE|DICT|INTERRES
   105   52  131 1    
   106   53   54 2    
   107   53   55 1    
   108   55   56 1    
   109   55   59 1    
   110   55  132 1    
   111   56   57 1    
   112   56  133 1    
   113   56  134 1    
   114   57   58 1    
   115   58  135 1    
   116   58  136 1    
   117   59   60 am   BACKBONE|DICT|INTERRES
   118   59  137 1    
   119   60   61 2    
   120   60   62 1    
   121   62   63 1    
   122   62   64 1    
   123   62  138 1    
   124   63  139 1    
   125   63  140 1    
   126   63  141 1    
   127   64   65 am   BACKBONE|DICT|INTERRES
   128   64  142 1    
   129   65   66 2    
   130   65   67 1    
   131   67   68 1    
   132   67   69 1    
   133   67  143 1    
   134   68  144 1    
   135   68  145 1    
   136   68  146 1    
   137   69   70 am   BACKBONE|DICT|INTERRES
   138   69  147 1    
   139   70   71 2    
   140   70   72 1    
   141   72   73 1    
   142   72   74 1    
   143   72  148 1    
   144   73  149 1    
   145   73  150 1    
   146   73  151 1    
   147   74   75 am   BACKBONE|DICT|INTERRES
   148   74  152 1    
   149   75   76 2    
   150   75   77 1    
   151   77   78 1    
   152   77   79 1    
   153   77  153 1    
   154   78  154 1    
   155   78  155 1    
   156   78  156 1    
   157   79   80 am   BACKBONE|DICT|INTERRES
   158   79  157 1    
   159   80   81 2    
@<TRIPOS>SUBSTRUCTURE
     1 UNK         1 GROUP             0       ****    0 ROOT    
