@<TRIPOS>MOLECULE
3R207
157   159    1
SMALL
USER_CHARGES


@<TRIPOS>ATOM
      1 CA        -49.9251  -28.5502    0.1061 C.3       0 UNK        -0.1975 
      2 C         -50.1815  -28.0051    1.5035 C.2       0 UNK         0.4852 
      3 O         -50.9497  -27.0548    1.6556 O.2       0 UNK        -0.5216 
      4 N         -49.5480  -28.6043    2.5218 N.am      1 UNK        -0.4461 
      5 CA        -49.6425  -28.2051    3.9308 C.3       1 UNK         0.0864 
      6 C6        -49.0268  -29.2935    4.8498 C.3       14 UNK        -0.0898 
      7 S7        -49.2386  -28.9595    6.6298 S.3       14 UNK        -0.2598 
      8 C8        -50.5305  -30.1551    7.0813 C.3       14 UNK         0.0286 
      9 C9        -51.0079  -29.8930    8.4994 C.ar      14 UNK        -0.0844 
     10 C10       -50.2775  -30.3770    9.5886 C.ar      14 UNK        -0.0881 
     11 C11       -50.6677  -30.0720   10.8971 C.ar      14 UNK        -0.0643 
     12 C12       -51.8272  -29.3171   11.1055 C.ar      14 UNK        -0.0930 
     13 C13       -52.5790  -28.8470   10.0247 C.ar      14 UNK        -0.0827 
     14 C14       -52.1595  -29.1337    8.7232 C.ar      14 UNK        -0.1249 
     15 C15       -53.8214  -27.9961   10.2487 C.3       14 UNK         0.0141 
     16 S16       -55.3494  -28.9786   10.1812 S.3       14 UNK        -0.2313 
     17 C17       -55.4924  -29.6068   11.8895 C.3       14 UNK        -0.0915 
     18 CA        -56.5108  -28.7800   12.7227 C.3       13 UNK         0.0968 
     19 C         -57.0027  -29.5592   13.9746 C.2       13 UNK         0.5732 
     20 N         -56.8141  -29.0744   15.1939 N.am      13 UNK        -0.7310 
     21 O         -57.5934  -30.6276   13.8342 O.2       13 UNK        -0.5035 
     22 N         -56.0007  -27.4252   12.9992 N.am      13 UNK        -0.4233 
     23 C         -56.7467  -26.3143   12.9767 C.2       13 UNK         0.4989 
     24 O         -57.9704  -26.3086   12.8283 O.2       13 UNK        -0.4996 
     25 CA        -55.9722  -24.9883   13.1000 C.3       12 UNK         0.0216 
     26 CB        -56.8607  -23.7410   12.8999 C.3       12 UNK        -0.1964 
     27 N         -55.1991  -24.8942   14.3425 N.am      12 UNK        -0.4276 
     28 C         -55.6650  -24.8515   15.5993 C.2       12 UNK         0.5020 
     29 O         -56.8591  -24.8965   15.9013 O.2       12 UNK        -0.5489 
     30 CA        -54.5894  -24.7495   16.6990 C.3       11 UNK         0.0294 
     31 CB        -55.1720  -24.7435   18.1286 C.3       11 UNK        -0.2019 
     32 N         -53.5606  -25.7847   16.5527 N.am      11 UNK        -0.4493 
     33 C         -53.7390  -27.1136   16.5856 C.2       11 UNK         0.4932 
     34 O         -54.8194  -27.6514   16.8225 O.2       11 UNK        -0.5029 
     35 CA        -52.5303  -28.0101   16.2604 C.3       10 UNK         0.0280 
     36 CB        -52.7343  -28.6852   14.8948 C.3       10 UNK        -0.1976 
     37 N         -51.2492  -27.2997   16.2522 N.am      10 UNK        -0.4242 
     38 C         -50.5972  -26.8798   17.3449 C.2       10 UNK         0.5072 
     39 O         -50.9778  -27.0935   18.4966 O.2       10 UNK        -0.5224 
     40 CA        -49.3184  -26.0559   17.1133 C.3       9 UNK         0.0343 
     41 CB        -48.1159  -26.9806   16.8654 C.3       9 UNK        -0.2003 
     42 N         -49.4397  -25.0925   16.0129 N.am      9 UNK        -0.4272 
     43 C         -50.2943  -24.0571   15.9981 C.2       9 UNK         0.4988 
     44 O         -51.0672  -23.7932   16.9191 O.2       9 UNK        -0.5108 
     45 CA        -50.3261  -23.1896   14.7287 C.3       8 UNK         0.0248 
     46 CB        -49.1029  -22.2612   14.6652 C.3       8 UNK        -0.2001 
     47 N         -50.4102  -23.9888   13.5060 N.am      8 UNK        -0.4140 
     48 C         -51.4353  -24.7923   13.1909 C.2       8 UNK         0.5028 
     49 O         -52.4683  -24.8870   13.8547 O.2       8 UNK        -0.5428 
     50 CA        -51.2648  -25.6869   11.9551 C.3       7 UNK         0.0264 
     51 CB        -51.6478  -24.9455   10.6659 C.3       7 UNK        -0.1988 
     52 N         -49.9192  -26.2487   11.8342 N.am      7 UNK        -0.4454 
     53 C         -49.3708  -27.0884   12.7258 C.2       7 UNK         0.5027 
     54 O         -49.9441  -27.4772   13.7430 O.2       7 UNK        -0.5083 
     55 CA        -47.9197  -27.5214   12.4562 C.3       6 UNK         0.0844 
     56 C56       -47.8525  -28.5987   11.3429 C.3       14 UNK        -0.0967 
     57 S57       -48.0431  -30.3124   11.9470 S.3       14 UNK        -0.2604 
     58 C58       -49.8523  -30.5483   12.0969 C.3       14 UNK         0.0134 
     59 N         -47.0962  -26.3521   12.1385 N.am      6 UNK        -0.4116 
     60 C         -46.7958  -25.3677   13.0000 C.2       5 UNK         0.5034 
     61 O         -47.1235  -25.3707   14.1860 O.2       5 UNK        -0.5045 
     62 CA        -46.0436  -24.1481   12.4363 C.3       5 UNK         0.0224 
     63 CB        -44.5250  -24.3662   12.5215 C.3       5 UNK        -0.1978 
     64 N         -46.4144  -23.8289   11.0547 N.am      5 UNK        -0.4737 
     65 C         -47.6426  -23.4639   10.6597 C.2       4 UNK         0.5027 
     66 O         -48.5758  -23.2724   11.4377 O.2       4 UNK        -0.5211 
     67 CA        -47.8896  -23.3519    9.1438 C.3       4 UNK         0.0297 
     68 CB        -47.7152  -21.8984    8.6786 C.3       4 UNK        -0.1993 
     69 N         -47.0416  -24.2307    8.3280 N.am      4 UNK        -0.4486 
     70 C         -46.9683  -25.5639    8.4345 C.2       3 UNK         0.4961 
     71 O         -47.6178  -26.2159    9.2536 O.2       3 UNK        -0.5105 
     72 CA        -45.9829  -26.2705    7.4853 C.3       3 UNK         0.0299 
     73 CB        -45.6994  -27.7229    7.9126 C.3       3 UNK        -0.1972 
     74 N         -46.4598  -26.2614    6.1016 N.am      3 UNK        -0.4305 
     75 C         -46.4483  -25.2027    5.2777 C.2       2 UNK         0.5006 
     76 O         -46.0090  -24.0982    5.6042 O.2       2 UNK        -0.5106 
     77 CA        -46.9990  -25.3940    3.8493 C.3       2 UNK         0.0296 
     78 CB        -45.8507  -25.3896    2.8264 C.3       2 UNK        -0.2002 
     79 N         -47.7890  -26.6168    3.6709 N.am      2 UNK        -0.4032 
     80 C         -49.0174  -26.8124    4.1729 C.2       1 UNK         0.5000 
     81 O         -49.6450  -25.9556    4.7981 O.2       1 UNK        -0.5238 
     82 H82       -50.8599  -28.8840   -0.3434 H         1 UNK         0.0889 
     83 H83       -49.2343  -29.3930    0.1163 H         1 UNK         0.0889 
     84 H84       -49.5009  -27.7720   -0.5277 H         1 UNK         0.0889 
     85 H85       -48.9445  -29.3907    2.3262 H         1 UNK         0.3028 
     86 H86       -50.7049  -28.1265    4.1733 H         1 UNK         0.0864 
     87 H87       -49.4705  -30.2640    4.6212 H         1 UNK         0.0720 
     88 H88       -47.9590  -29.4057    4.6533 H         1 UNK         0.0720 
     89 H89       -50.1392  -31.1700    6.9960 H         1 UNK         0.0814 
     90 H90       -51.3628  -30.0790    6.3796 H         1 UNK         0.0814 
     91 H91       -49.3816  -30.9576    9.4164 H         1 UNK         0.1469 
     92 H92       -52.1363  -29.0838   12.1130 H         1 UNK         0.1381 
     93 H93       -52.7246  -28.7537    7.8830 H         1 UNK         0.1206 
     94 H94       -53.8719  -27.2220    9.4814 H         1 UNK         0.0813 
     95 H95       -53.7728  -27.4699   11.2002 H         1 UNK         0.0813 
     96 H96       -54.5150  -29.6297   12.3725 H         1 UNK         0.0638 
     97 H97       -55.8107  -30.6477   11.8079 H         1 UNK         0.0638 
     98 H98       -57.4070  -28.6823   12.1066 H         1 UNK         0.0568 
     99 H99       -57.1530  -29.6028   15.9812 H         1 UNK         0.3450 
    100 H100      -56.2956  -28.2235   15.3616 H         1 UNK         0.3450 
    101 H101      -55.0130  -27.3456   13.1784 H         1 UNK         0.2987 
    102 H102      -55.2393  -24.9892   12.2914 H         1 UNK         0.0766 
    103 H103      -56.2727  -22.8244   12.9448 H         1 UNK         0.0798 
    104 H104      -57.6461  -23.6728   13.6531 H         1 UNK         0.0798 
    105 H105      -57.3496  -23.7645   11.9252 H         1 UNK         0.0798 
    106 H106      -54.1834  -24.8714   14.2201 H         1 UNK         0.3198 
    107 H107      -54.0839  -23.7944   16.5467 H         1 UNK         0.0843 
    108 H108      -55.7319  -25.6537   18.3453 H         1 UNK         0.0831 
    109 H109      -55.8545  -23.9040   18.2659 H         1 UNK         0.0831 
    110 H110      -54.3846  -24.6474   18.8761 H         1 UNK         0.0831 
    111 H111      -52.6369  -25.4421   16.3186 H         1 UNK         0.3133 
    112 H112      -52.4860  -28.7896   17.0236 H         1 UNK         0.0566 
    113 H113      -51.9201  -29.3739   14.6702 H         1 UNK         0.0814 
    114 H114      -53.6599  -29.2622   14.8741 H         1 UNK         0.0814 
    115 H115      -52.7845  -27.9480   14.0932 H         1 UNK         0.0814 
    116 H116      -50.8176  -27.1504   15.3413 H         1 UNK         0.3091 
    117 H117      -49.1249  -25.4879   18.0256 H         1 UNK         0.0702 
    118 H118      -47.1873  -26.4132   16.8017 H         1 UNK         0.0785 
    119 H119      -48.2252  -27.5463   15.9393 H         1 UNK         0.0785 
    120 H120      -48.0011  -27.7000   17.6772 H         1 UNK         0.0785 
    121 H121      -48.8090  -25.2238   15.2274 H         1 UNK         0.2998 
    122 H122      -51.2216  -22.5662   14.7741 H         1 UNK         0.0697 
    123 H123      -48.1699  -22.8223   14.6155 H         1 UNK         0.0825 
    124 H124      -49.0525  -21.6224   15.5479 H         1 UNK         0.0825 
    125 H125      -49.1459  -21.6079   13.7934 H         1 UNK         0.0825 
    126 H126      -49.6381  -23.9085   12.8476 H         1 UNK         0.3029 
    127 H127      -51.9465  -26.5260   12.0832 H         1 UNK         0.0897 
    128 H128      -51.5929  -25.6049    9.7992 H         1 UNK         0.0792 
    129 H129      -50.9962  -24.0914   10.4803 H         1 UNK         0.0792 
    130 H130      -52.6700  -24.5690   10.7231 H         1 UNK         0.0792 
    131 H131      -49.3728  -25.9725   11.0290 H         1 UNK         0.3086 
    132 H132      -47.5203  -27.9473   13.3793 H         1 UNK         0.0583 
    133 H133      -48.5488  -28.3947   10.5274 H         1 UNK         0.1020 
    134 H134      -46.8685  -28.5690   10.8727 H         1 UNK         0.1020 
    135 H135      -50.0502  -31.6099   12.2489 H         1 UNK         0.0694 
    136 H136      -50.1837  -30.0482   13.0072 H         1 UNK         0.0694 
    137 H137      -46.8724  -26.2249   11.1584 H         1 UNK         0.2989 
    138 H138      -46.3025  -23.2882   13.0577 H         1 UNK         0.1055 
    139 H139      -44.2201  -24.5851   13.5460 H         1 UNK         0.0806 
    140 H140      -43.9778  -23.4774   12.2065 H         1 UNK         0.0806 
    141 H141      -44.1990  -25.2008   11.8993 H         1 UNK         0.0806 
    142 H142      -45.7050  -23.9520   10.3467 H         1 UNK         0.3061 
    143 H143      -48.9255  -23.6467    8.9643 H         1 UNK         0.0734 
    144 H144      -47.9835  -21.7824    7.6283 H         1 UNK         0.0832 
    145 H145      -48.3560  -21.2261    9.2512 H         1 UNK         0.0832 
    146 H146      -46.6876  -21.5548    8.8036 H         1 UNK         0.0832 
    147 H147      -46.5155  -23.7989    7.5745 H         1 UNK         0.3156 
    148 H148      -45.0370  -25.7265    7.5292 H         1 UNK         0.0589 
    149 H149      -46.6022  -28.3342    7.9047 H         1 UNK         0.0808 
    150 H150      -44.9684  -28.1954    7.2564 H         1 UNK         0.0808 
    151 H151      -45.2938  -27.7580    8.9244 H         1 UNK         0.0808 
    152 H152      -46.8758  -27.1183    5.7691 H         1 UNK         0.3098 
    153 H153      -47.6450  -24.5391    3.6380 H         1 UNK         0.0720 
    154 H154      -46.2282  -25.4442    1.8050 H         1 UNK         0.0791 
    155 H155      -45.1692  -26.2274    2.9796 H         1 UNK         0.0791 
    156 H156      -45.2626  -24.4738    2.9025 H         1 UNK         0.0791 
    157 H157      -47.3568  -27.3648    3.1480 H         1 UNK         0.3028 
@<TRIPOS>BOND
     1    1    2 1    
     2    1   82 1    
     3    1   83 1    
     4    1   84 1    
     5    2    3 2    
     6    2    4 am   BACKBONE|DICT|INTERRES
     7    4    5 1    
     8    4   85 1    
     9    5    6 1    
    10    5   80 1    
    11    5   86 1    
    12    6    7 1    
    13    6   87 1    
    14    6   88 1    
    15    7    8 1    
    16    8    9 1    
    17    8   89 1    
    18    8   90 1    
    19    9   10 ar   
    20    9   14 ar   
    21   10   11 ar   
    22   10   91 1    
    23   11   12 ar   
    24   11   58 1    
    25   12   13 ar   
    26   12   92 1    
    27   13   14 ar   
    28   13   15 1    
    29   14   93 1    
    30   15   16 1    
    31   15   94 1    
    32   15   95 1    
    33   16   17 1    
    34   17   18 1    
    35   17   96 1    
    36   17   97 1    
    37   18   19 1    
    38   18   22 1    
    39   18   98 1    
    40   19   20 am   BACKBONE|DICT|INTERRES
    41   19   21 2    
    42   20   99 1    
    43   20  100 1    
    44   22   23 am   BACKBONE|DICT|INTERRES
    45   22  101 1    
    46   23   24 2    
    47   23   25 1    
    48   25   26 1    
    49   25   27 1    
    50   25  102 1    
    51   26  103 1    
    52   26  104 1    
    53   26  105 1    
    54   27   28 am   BACKBONE|DICT|INTERRES
    55   27  106 1    
    56   28   29 2    
    57   28   30 1    
    58   30   31 1    
    59   30   32 1    
    60   30  107 1    
    61   31  108 1    
    62   31  109 1    
    63   31  110 1    
    64   32   33 am   BACKBONE|DICT|INTERRES
    65   32  111 1    
    66   33   34 2    
    67   33   35 1    
    68   35   36 1    
    69   35   37 1    
    70   35  112 1    
    71   36  113 1    
    72   36  114 1    
    73   36  115 1    
    74   37   38 am   BACKBONE|DICT|INTERRES
    75   37  116 1    
    76   38   39 2    
    77   38   40 1    
    78   40   41 1    
    79   40   42 1    
    80   40  117 1    
    81   41  118 1    
    82   41  119 1    
    83   41  120 1    
    84   42   43 am   BACKBONE|DICT|INTERRES
    85   42  121 1    
    86   43   44 2    
    87   43   45 1    
    88   45   46 1    
    89   45   47 1    
    90   45  122 1    
    91   46  123 1    
    92   46  124 1    
    93   46  125 1    
    94   47   48 am   BACKBONE|DICT|INTERRES
    95   47  126 1    
    96   48   49 2    
    97   48   50 1    
    98   50   51 1    
    99   50   52 1    
   100   50  127 1    
   101   51  128 1    
   102   51  129 1    
   103   51  130 1    
   104   52   53 am   BACKBONE|DICT|INTERRES
   105   52  131 1    
   106   53   54 2    
   107   53   55 1    
   108   55   56 1    
   109   55   59 1    
   110   55  132 1    
   111   56   57 1    
   112   56  133 1    
   113   56  134 1    
   114   57   58 1    
   115   58  135 1    
   116   58  136 1    
   117   59   60 am   BACKBONE|DICT|INTERRES
   118   59  137 1    
   119   60   61 2    
   120   60   62 1    
   121   62   63 1    
   122   62   64 1    
   123   62  138 1    
   124   63  139 1    
   125   63  140 1    
   126   63  141 1    
   127   64   65 am   BACKBONE|DICT|INTERRES
   128   64  142 1    
   129   65   66 2    
   130   65   67 1    
   131   67   68 1    
   132   67   69 1    
   133   67  143 1    
   134   68  144 1    
   135   68  145 1    
   136   68  146 1    
   137   69   70 am   BACKBONE|DICT|INTERRES
   138   69  147 1    
   139   70   71 2    
   140   70   72 1    
   141   72   73 1    
   142   72   74 1    
   143   72  148 1    
   144   73  149 1    
   145   73  150 1    
   146   73  151 1    
   147   74   75 am   BACKBONE|DICT|INTERRES
   148   74  152 1    
   149   75   76 2    
   150   75   77 1    
   151   77   78 1    
   152   77   79 1    
   153   77  153 1    
   154   78  154 1    
   155   78  155 1    
   156   78  156 1    
   157   79   80 am   BACKBONE|DICT|INTERRES
   158   79  157 1    
   159   80   81 2    
@<TRIPOS>SUBSTRUCTURE
     1 UNK         1 GROUP             0       ****    0 ROOT    
