@<TRIPOS>MOLECULE
3R207
157   159    1
SMALL
USER_CHARGES


@<TRIPOS>ATOM
      1 CA        -50.3231  -28.7456   10.0843 C.3       0 UNK        -0.1975 
      2 C         -49.6219  -29.2390    8.8299 C.2       0 UNK         0.4852 
      3 O         -48.5782  -29.8848    8.9239 O.2       0 UNK        -0.5216 
      4 N         -50.1846  -28.9311    7.6542 N.am      1 UNK        -0.4461 
      5 CA        -49.6463  -29.3091    6.3388 C.3       1 UNK         0.0864 
      6 C6        -50.7077  -29.1684    5.2193 C.3       14 UNK        -0.0898 
      7 S7        -52.1114  -30.3138    5.4344 S.3       14 UNK        -0.2598 
      8 C8        -53.5308  -29.1768    5.5054 C.3       14 UNK         0.0286 
      9 C9        -53.7128  -28.5879    6.8955 C.ar      14 UNK        -0.0844 
     10 C10       -53.1843  -27.3335    7.2129 C.ar      14 UNK        -0.0881 
     11 C11       -53.3625  -26.7909    8.4897 C.ar      14 UNK        -0.0643 
     12 C12       -54.0989  -27.5031    9.4426 C.ar      14 UNK        -0.0930 
     13 C13       -54.6418  -28.7531    9.1325 C.ar      14 UNK        -0.0827 
     14 C14       -54.4375  -29.2935    7.8602 C.ar      14 UNK        -0.1249 
     15 C15       -55.4640  -29.5148   10.1608 C.3       14 UNK         0.0141 
     16 S16       -57.1799  -28.9182   10.1897 S.3       14 UNK        -0.2313 
     17 C17       -58.0444  -30.2953   11.0146 C.3       14 UNK        -0.0915 
     18 CA        -58.3888  -29.9913   12.4959 C.3       13 UNK         0.0968 
     19 C         -59.4969  -30.9550   13.0153 C.2       13 UNK         0.5732 
     20 N         -59.2190  -31.8527   13.9542 N.am      13 UNK        -0.7310 
     21 O         -60.6367  -30.8783   12.5625 O.2       13 UNK        -0.5035 
     22 N         -57.1825  -29.9633   13.3389 N.am      13 UNK        -0.4233 
     23 C         -57.0940  -29.3561   14.5264 C.2       13 UNK         0.4989 
     24 O         -57.9784  -28.6323   14.9858 O.2       13 UNK        -0.4996 
     25 CA        -55.8258  -29.5982   15.3706 C.3       12 UNK         0.0216 
     26 CB        -56.0306  -30.7998   16.3143 C.3       12 UNK        -0.1964 
     27 N         -54.5552  -29.7227   14.6365 N.am      12 UNK        -0.4276 
     28 C         -54.1694  -30.6463   13.7417 C.2       12 UNK         0.5020 
     29 O         -54.9045  -31.5400   13.3191 O.2       12 UNK        -0.5489 
     30 CA        -52.7317  -30.5172   13.2103 C.3       11 UNK         0.0294 
     31 CB        -52.5003  -31.2538   11.8759 C.3       11 UNK        -0.2019 
     32 N         -52.3710  -29.1043   13.0722 N.am      11 UNK        -0.4493 
     33 C         -51.2616  -28.5397   13.5613 C.2       11 UNK         0.4932 
     34 O         -50.3502  -29.1741   14.0958 O.2       11 UNK        -0.5029 
     35 CA        -51.1364  -27.0081   13.4224 C.3       10 UNK         0.0280 
     36 CB        -52.4552  -26.2863   13.0610 C.3       10 UNK        -0.1976 
     37 N         -50.5285  -26.4042   14.6123 N.am      10 UNK        -0.4242 
     38 C         -50.9982  -26.4577   15.8689 C.2       10 UNK         0.5072 
     39 O         -52.0769  -26.9712   16.1748 O.2       10 UNK        -0.5224 
     40 CA        -50.1208  -25.8681   16.9901 C.3       9 UNK         0.0343 
     41 CB        -49.5052  -26.9983   17.8325 C.3       9 UNK        -0.2003 
     42 N         -49.0429  -24.9913   16.5224 N.am      9 UNK        -0.4272 
     43 C         -49.2061  -23.7284   16.1058 C.2       9 UNK         0.4988 
     44 O         -50.3041  -23.1731   16.0437 O.2       9 UNK        -0.5108 
     45 CA        -47.9402  -22.9410   15.7189 C.3       8 UNK         0.0248 
     46 CB        -46.6328  -23.7593   15.7879 C.3       8 UNK        -0.2001 
     47 N         -48.0999  -22.4272   14.3625 N.am      8 UNK        -0.4140 
     48 C         -48.3730  -21.1586   14.0310 C.2       8 UNK         0.5028 
     49 O         -48.4676  -20.2414   14.8487 O.2       8 UNK        -0.5428 
     50 CA        -48.5550  -20.8377   12.5334 C.3       7 UNK         0.0264 
     51 CB        -47.3160  -20.1035   11.9942 C.3       7 UNK        -0.1988 
     52 N         -48.8131  -22.0166   11.6998 N.am      7 UNK        -0.4454 
     53 C         -49.9516  -22.7252   11.7139 C.2       7 UNK         0.5027 
     54 O         -50.9474  -22.3949   12.3582 O.2       7 UNK        -0.5083 
     55 CA        -49.9835  -24.0429   10.9120 C.3       6 UNK         0.0844 
     56 C56       -50.5662  -23.8273    9.4958 C.3       14 UNK        -0.0967 
     57 S57       -50.9674  -25.4176    8.6967 S.3       14 UNK        -0.2604 
     58 C58       -52.7818  -25.4260    8.8303 C.3       14 UNK         0.0134 
     59 N         -48.6875  -24.7300   10.8767 N.am      6 UNK        -0.4116 
     60 C         -48.0271  -25.2060   11.9417 C.2       5 UNK         0.5034 
     61 O         -48.4225  -25.1022   13.1024 O.2       5 UNK        -0.5045 
     62 CA        -46.6783  -25.8810   11.6700 C.3       5 UNK         0.0224 
     63 CB        -46.8700  -27.2834   11.0686 C.3       5 UNK        -0.1978 
     64 N         -45.8536  -25.0584   10.7856 N.am      5 UNK        -0.4737 
     65 C         -45.1781  -23.9730   11.1892 C.2       4 UNK         0.5027 
     66 O         -45.1153  -23.6038   12.3614 O.2       4 UNK        -0.5211 
     67 CA        -44.4629  -23.1490   10.1038 C.3       4 UNK         0.0297 
     68 CB        -43.0184  -23.6413    9.9216 C.3       4 UNK        -0.1993 
     69 N         -45.1503  -23.1677    8.8095 N.am      4 UNK        -0.4486 
     70 C         -46.3569  -22.6300    8.5826 C.2       3 UNK         0.4961 
     71 O         -47.0234  -22.0511    9.4386 O.2       3 UNK        -0.5105 
     72 CA        -46.9446  -22.8217    7.1748 C.3       3 UNK         0.0299 
     73 CB        -46.3919  -21.7620    6.2085 C.3       3 UNK        -0.1972 
     74 N         -46.7274  -24.1629    6.6191 N.am      3 UNK        -0.4305 
     75 C         -47.1343  -25.3000    7.1982 C.2       2 UNK         0.5006 
     76 O         -47.6663  -25.3570    8.3087 O.2       2 UNK        -0.5106 
     77 CA        -46.8757  -26.5999    6.4397 C.3       2 UNK         0.0296 
     78 CB        -45.5792  -27.2659    6.9382 C.3       2 UNK        -0.2002 
     79 N         -48.0233  -27.4695    6.6721 N.am      2 UNK        -0.4032 
     80 C         -48.3562  -28.5470    5.9519 C.2       1 UNK         0.5000 
     81 O         -47.6919  -28.9485    4.9937 O.2       1 UNK        -0.5238 
     82 H82       -50.1038  -29.4069   10.9212 H         1 UNK         0.0889 
     83 H83       -51.4040  -28.7114    9.9499 H         1 UNK         0.0889 
     84 H84       -49.9723  -27.7469   10.3408 H         1 UNK         0.0889 
     85 H85       -51.0587  -28.4226    7.6408 H         1 UNK         0.3028 
     86 H86       -49.3622  -30.3623    6.3952 H         1 UNK         0.0864 
     87 H87       -51.0624  -28.1387    5.1554 H         1 UNK         0.0720 
     88 H88       -50.2713  -29.3944    4.2442 H         1 UNK         0.0720 
     89 H89       -53.4201  -28.3888    4.7588 H         1 UNK         0.0814 
     90 H90       -54.4304  -29.7272    5.2255 H         1 UNK         0.0814 
     91 H91       -52.6336  -26.7739    6.4690 H         1 UNK         0.1469 
     92 H92       -54.2737  -27.0780   10.4200 H         1 UNK         0.1381 
     93 H93       -54.8563  -30.2599    7.6135 H         1 UNK         0.1206 
     94 H94       -55.0320  -29.3931   11.1535 H         1 UNK         0.0813 
     95 H95       -55.4417  -30.5828    9.9383 H         1 UNK         0.0813 
     96 H96       -57.4622  -31.2149   10.9348 H         1 UNK         0.0638 
     97 H97       -58.9538  -30.4687   10.4358 H         1 UNK         0.0638 
     98 H98       -58.8366  -28.9961   12.5291 H         1 UNK         0.0568 
     99 H99       -59.9495  -32.4646   14.2819 H         1 UNK         0.3450 
    100 H100      -58.2866  -31.9344   14.3250 H         1 UNK         0.3450 
    101 H101      -56.4239  -30.5913   13.0815 H         1 UNK         0.2987 
    102 H102      -55.7090  -28.7118   15.9967 H         1 UNK         0.0766 
    103 H103      -55.1956  -30.9050   17.0070 H         1 UNK         0.0798 
    104 H104      -56.1300  -31.7374   15.7666 H         1 UNK         0.0798 
    105 H105      -56.9335  -30.6771   16.9144 H         1 UNK         0.0798 
    106 H106      -53.8630  -29.0289   14.8884 H         1 UNK         0.3198 
    107 H107      -52.1027  -30.9936   13.9655 H         1 UNK         0.0843 
    108 H108      -52.8143  -32.2965   11.9387 H         1 UNK         0.0831 
    109 H109      -51.4437  -31.2599   11.6109 H         1 UNK         0.0831 
    110 H110      -53.0470  -30.7952   11.0532 H         1 UNK         0.0831 
    111 H111      -53.0662  -28.5056   12.6498 H         1 UNK         0.3133 
    112 H112      -50.4353  -26.8421   12.6058 H         1 UNK         0.0566 
    113 H113      -52.3274  -25.2037   13.0796 H         1 UNK         0.0814 
    114 H114      -52.7810  -26.5462   12.0554 H         1 UNK         0.0814 
    115 H115      -53.2624  -26.5257   13.7544 H         1 UNK         0.0814 
    116 H116      -49.6344  -25.9523   14.4479 H         1 UNK         0.3091 
    117 H117      -50.7786  -25.2846   17.6379 H         1 UNK         0.0702 
    118 H118      -50.2803  -27.6506   18.2376 H         1 UNK         0.0785 
    119 H119      -48.8330  -27.6215   17.2411 H         1 UNK         0.0785 
    120 H120      -48.9431  -26.6033   18.6790 H         1 UNK         0.0785 
    121 H121      -48.1091  -25.3752   16.5336 H         1 UNK         0.2998 
    122 H122      -47.8536  -22.1166   16.4293 H         1 UNK         0.0697 
    123 H123      -46.6474  -24.6197   15.1177 H         1 UNK         0.0825 
    124 H124      -46.4382  -24.1183   16.7993 H         1 UNK         0.0825 
    125 H125      -45.7778  -23.1456   15.5024 H         1 UNK         0.0825 
    126 H126      -48.1044  -23.1304   13.6330 H         1 UNK         0.3029 
    127 H127      -49.4131  -20.1674   12.4492 H         1 UNK         0.0897 
    128 H128      -47.4654  -19.7775   10.9647 H         1 UNK         0.0792 
    129 H129      -46.4301  -20.7399   12.0191 H         1 UNK         0.0792 
    130 H130      -47.0971  -19.2133   12.5855 H         1 UNK         0.0792 
    131 H131      -48.0717  -22.2892   11.0588 H         1 UNK         0.3086 
    132 H132      -50.6667  -24.7010   11.4489 H         1 UNK         0.0583 
    133 H133      -51.4651  -23.2082    9.5298 H         1 UNK         0.1020 
    134 H134      -49.8538  -23.2901    8.8672 H         1 UNK         0.1020 
    135 H135      -53.0661  -25.1309    9.8416 H         1 UNK         0.0694 
    136 H136      -53.1980  -24.6763    8.1560 H         1 UNK         0.0694 
    137 H137      -48.2947  -24.8881    9.9503 H         1 UNK         0.2989 
    138 H138      -46.1646  -25.9932   12.6278 H         1 UNK         0.1055 
    139 H139      -47.4756  -27.9093   11.7258 H         1 UNK         0.0806 
    140 H140      -45.9140  -27.7890   10.9331 H         1 UNK         0.0806 
    141 H141      -47.3695  -27.2543   10.1003 H         1 UNK         0.0806 
    142 H142      -45.9116  -25.2528    9.7953 H         1 UNK         0.3061 
    143 H143      -44.4305  -22.1131   10.4488 H         1 UNK         0.0734 
    144 H144      -42.4697  -23.0141    9.2188 H         1 UNK         0.0832 
    145 H145      -42.4762  -23.6141   10.8680 H         1 UNK         0.0832 
    146 H146      -42.9833  -24.6685    9.5564 H         1 UNK         0.0832 
    147 H147      -44.6813  -23.6318    8.0453 H         1 UNK         0.3156 
    148 H148      -48.0239  -22.6760    7.2516 H         1 UNK         0.0589 
    149 H149      -45.3190  -21.8770    6.0493 H         1 UNK         0.0808 
    150 H150      -46.8838  -21.8149    5.2371 H         1 UNK         0.0808 
    151 H151      -46.5573  -20.7561    6.5976 H         1 UNK         0.0808 
    152 H152      -46.2830  -24.2106    5.7131 H         1 UNK         0.3098 
    153 H153      -46.7985  -26.3861    5.3717 H         1 UNK         0.0720 
    154 H154      -45.6391  -27.5184    7.9979 H         1 UNK         0.0791 
    155 H155      -44.7215  -26.6054    6.8055 H         1 UNK         0.0791 
    156 H156      -45.3660  -28.1836    6.3900 H         1 UNK         0.0791 
    157 H157      -48.6197  -27.1769    7.4367 H         1 UNK         0.3028 
@<TRIPOS>BOND
     1    1    2 1    
     2    1   82 1    
     3    1   83 1    
     4    1   84 1    
     5    2    3 2    
     6    2    4 am   BACKBONE|DICT|INTERRES
     7    4    5 1    
     8    4   85 1    
     9    5    6 1    
    10    5   80 1    
    11    5   86 1    
    12    6    7 1    
    13    6   87 1    
    14    6   88 1    
    15    7    8 1    
    16    8    9 1    
    17    8   89 1    
    18    8   90 1    
    19    9   10 ar   
    20    9   14 ar   
    21   10   11 ar   
    22   10   91 1    
    23   11   12 ar   
    24   11   58 1    
    25   12   13 ar   
    26   12   92 1    
    27   13   14 ar   
    28   13   15 1    
    29   14   93 1    
    30   15   16 1    
    31   15   94 1    
    32   15   95 1    
    33   16   17 1    
    34   17   18 1    
    35   17   96 1    
    36   17   97 1    
    37   18   19 1    
    38   18   22 1    
    39   18   98 1    
    40   19   20 am   BACKBONE|DICT|INTERRES
    41   19   21 2    
    42   20   99 1    
    43   20  100 1    
    44   22   23 am   BACKBONE|DICT|INTERRES
    45   22  101 1    
    46   23   24 2    
    47   23   25 1    
    48   25   26 1    
    49   25   27 1    
    50   25  102 1    
    51   26  103 1    
    52   26  104 1    
    53   26  105 1    
    54   27   28 am   BACKBONE|DICT|INTERRES
    55   27  106 1    
    56   28   29 2    
    57   28   30 1    
    58   30   31 1    
    59   30   32 1    
    60   30  107 1    
    61   31  108 1    
    62   31  109 1    
    63   31  110 1    
    64   32   33 am   BACKBONE|DICT|INTERRES
    65   32  111 1    
    66   33   34 2    
    67   33   35 1    
    68   35   36 1    
    69   35   37 1    
    70   35  112 1    
    71   36  113 1    
    72   36  114 1    
    73   36  115 1    
    74   37   38 am   BACKBONE|DICT|INTERRES
    75   37  116 1    
    76   38   39 2    
    77   38   40 1    
    78   40   41 1    
    79   40   42 1    
    80   40  117 1    
    81   41  118 1    
    82   41  119 1    
    83   41  120 1    
    84   42   43 am   BACKBONE|DICT|INTERRES
    85   42  121 1    
    86   43   44 2    
    87   43   45 1    
    88   45   46 1    
    89   45   47 1    
    90   45  122 1    
    91   46  123 1    
    92   46  124 1    
    93   46  125 1    
    94   47   48 am   BACKBONE|DICT|INTERRES
    95   47  126 1    
    96   48   49 2    
    97   48   50 1    
    98   50   51 1    
    99   50   52 1    
   100   50  127 1    
   101   51  128 1    
   102   51  129 1    
   103   51  130 1    
   104   52   53 am   BACKBONE|DICT|INTERRES
   105   52  131 1    
   106   53   54 2    
   107   53   55 1    
   108   55   56 1    
   109   55   59 1    
   110   55  132 1    
   111   56   57 1    
   112   56  133 1    
   113   56  134 1    
   114   57   58 1    
   115   58  135 1    
   116   58  136 1    
   117   59   60 am   BACKBONE|DICT|INTERRES
   118   59  137 1    
   119   60   61 2    
   120   60   62 1    
   121   62   63 1    
   122   62   64 1    
   123   62  138 1    
   124   63  139 1    
   125   63  140 1    
   126   63  141 1    
   127   64   65 am   BACKBONE|DICT|INTERRES
   128   64  142 1    
   129   65   66 2    
   130   65   67 1    
   131   67   68 1    
   132   67   69 1    
   133   67  143 1    
   134   68  144 1    
   135   68  145 1    
   136   68  146 1    
   137   69   70 am   BACKBONE|DICT|INTERRES
   138   69  147 1    
   139   70   71 2    
   140   70   72 1    
   141   72   73 1    
   142   72   74 1    
   143   72  148 1    
   144   73  149 1    
   145   73  150 1    
   146   73  151 1    
   147   74   75 am   BACKBONE|DICT|INTERRES
   148   74  152 1    
   149   75   76 2    
   150   75   77 1    
   151   77   78 1    
   152   77   79 1    
   153   77  153 1    
   154   78  154 1    
   155   78  155 1    
   156   78  156 1    
   157   79   80 am   BACKBONE|DICT|INTERRES
   158   79  157 1    
   159   80   81 2    
@<TRIPOS>SUBSTRUCTURE
     1 UNK         1 GROUP             0       ****    0 ROOT    
