@<TRIPOS>MOLECULE
3R207
157   159    1
SMALL
USER_CHARGES


@<TRIPOS>ATOM
      1 CA        -47.5125  -29.4754    2.3344 C.3       0 UNK        -0.1975 
      2 C         -46.7895  -30.1879    3.4754 C.2       0 UNK         0.4852 
      3 O         -45.8045  -30.8784    3.2204 O.2       0 UNK        -0.5216 
      4 N         -47.2296  -30.0711    4.7376 N.am      1 UNK        -0.4461 
      5 CA        -48.3488  -29.2567    5.2313 C.3       1 UNK         0.0864 
      6 C6        -48.6606  -29.5666    6.7153 C.3       14 UNK        -0.0898 
      7 S7        -49.3830  -31.2260    6.9551 S.3       14 UNK        -0.2598 
      8 C8        -51.1553  -30.9511    6.6078 C.3       14 UNK         0.0286 
      9 C9        -51.7746  -29.9075    7.5270 C.ar      14 UNK        -0.0844 
     10 C10       -51.9539  -28.5980    7.0753 C.ar      14 UNK        -0.0881 
     11 C11       -52.4543  -27.6162    7.9316 C.ar      14 UNK        -0.0643 
     12 C12       -52.8148  -27.9574    9.2361 C.ar      14 UNK        -0.0930 
     13 C13       -52.6616  -29.2715    9.7011 C.ar      14 UNK        -0.0827 
     14 C14       -52.1403  -30.2392    8.8349 C.ar      14 UNK        -0.1249 
     15 C15       -52.9731  -29.6803   11.1415 C.3       14 UNK         0.0141 
     16 S16       -53.9276  -28.4662   12.1138 S.3       14 UNK        -0.2313 
     17 C17       -55.6406  -29.0321   11.8611 C.3       14 UNK        -0.0915 
     18 CA        -56.6139  -28.3602   12.8726 C.3       13 UNK         0.0968 
     19 C         -58.1084  -28.7260   12.6246 C.2       13 UNK         0.5732 
     20 N         -58.9557  -28.7614   13.6470 N.am      13 UNK        -0.7310 
     21 O         -58.5194  -28.9485   11.4879 O.2       13 UNK        -0.5035 
     22 N         -56.1680  -28.4916   14.2709 N.am      13 UNK        -0.4233 
     23 C         -56.0759  -29.6266   14.9805 C.2       13 UNK         0.4989 
     24 O         -56.3883  -30.7354   14.5447 O.2       13 UNK        -0.4996 
     25 CA        -55.5435  -29.5248   16.4256 C.3       12 UNK         0.0216 
     26 CB        -54.1486  -30.1615   16.5335 C.3       12 UNK        -0.1964 
     27 N         -55.4889  -28.1518   16.9393 N.am      12 UNK        -0.4276 
     28 C         -56.5705  -27.4144   17.2331 C.2       12 UNK         0.5020 
     29 O         -57.7210  -27.8531   17.1929 O.2       12 UNK        -0.5489 
     30 CA        -56.3536  -25.9325   17.5912 C.3       11 UNK         0.0294 
     31 CB        -56.4532  -25.7292   19.1117 C.3       11 UNK        -0.2019 
     32 N         -55.0893  -25.3630   17.1140 N.am      11 UNK        -0.4493 
     33 C         -54.6887  -25.2725   15.8369 C.2       11 UNK         0.4932 
     34 O         -55.3451  -25.6920   14.8829 O.2       11 UNK        -0.5029 
     35 CA        -53.3135  -24.6228   15.5842 C.3       10 UNK         0.0280 
     36 CB        -52.8023  -23.7742   16.7703 C.3       10 UNK        -0.1976 
     37 N         -52.2829  -25.5887   15.1867 N.am      10 UNK        -0.4242 
     38 C         -51.9494  -26.7328   15.8058 C.2       10 UNK         0.5072 
     39 O         -52.5527  -27.1963   16.7763 O.2       10 UNK        -0.5224 
     40 CA        -50.7085  -27.4746   15.2765 C.3       9 UNK         0.0343 
     41 CB        -51.0443  -28.3315   14.0509 C.3       9 UNK        -0.2003 
     42 N         -49.6024  -26.5765   14.9411 N.am      9 UNK        -0.4272 
     43 C         -48.8560  -25.9245   15.8437 C.2       9 UNK         0.4988 
     44 O         -49.0090  -26.0208   17.0620 O.2       9 UNK        -0.5108 
     45 CA        -47.7402  -25.0183   15.2973 C.3       8 UNK         0.0248 
     46 CB        -46.5126  -25.8518   14.8957 C.3       8 UNK        -0.2001 
     47 N         -48.1806  -24.1993   14.1656 N.am      8 UNK        -0.4140 
     48 C         -49.0652  -23.1962   14.2647 C.2       8 UNK         0.5028 
     49 O         -49.5438  -22.8093   15.3307 O.2       8 UNK        -0.5428 
     50 CA        -49.4985  -22.5030   12.9625 C.3       7 UNK         0.0264 
     51 CB        -48.5106  -21.3855   12.5916 C.3       7 UNK        -0.1988 
     52 N         -49.6466  -23.4179   11.8291 N.am      7 UNK        -0.4454 
     53 C         -50.5410  -24.4160   11.7518 C.2       7 UNK         0.5027 
     54 O         -51.3538  -24.6828   12.6376 O.2       7 UNK        -0.5083 
     55 CA        -50.4832  -25.2855   10.4779 C.3       6 UNK         0.0844 
     56 C56       -51.1398  -24.5246    9.2938 C.3       14 UNK        -0.0967 
     57 S57       -50.9690  -25.3220    7.6609 S.3       14 UNK        -0.2604 
     58 C58       -52.5597  -26.1797    7.4524 C.3       14 UNK         0.0134 
     59 N         -49.1122  -25.7385   10.2128 N.am      6 UNK        -0.4116 
     60 C         -48.3723  -26.4664   11.0661 C.2       5 UNK         0.5034 
     61 O         -48.7809  -26.8954   12.1451 O.2       5 UNK        -0.5045 
     62 CA        -46.9030  -26.6971   10.6902 C.3       5 UNK         0.0224 
     63 CB        -46.7573  -27.8979    9.7429 C.3       5 UNK        -0.1978 
     64 N         -46.3107  -25.4992   10.0919 N.am      5 UNK        -0.4737 
     65 C         -46.0025  -24.3936   10.7858 C.2       4 UNK         0.5027 
     66 O         -46.1394  -24.2960   12.0043 O.2       4 UNK        -0.5211 
     67 CA        -45.4942  -23.1795    9.9887 C.3       4 UNK         0.0297 
     68 CB        -43.9739  -23.2689    9.7838 C.3       4 UNK        -0.1993 
     69 N         -46.1554  -23.0279    8.6911 N.am      4 UNK        -0.4486 
     70 C         -47.4622  -22.7784    8.5286 C.2       3 UNK         0.4961 
     71 O         -48.2422  -22.5841    9.4609 O.2       3 UNK        -0.5105 
     72 CA        -48.0012  -22.7938    7.0864 C.3       3 UNK         0.0299 
     73 CB        -47.9405  -21.3831    6.4801 C.3       3 UNK        -0.1972 
     74 N         -47.3313  -23.7439    6.1860 N.am      3 UNK        -0.4305 
     75 C         -47.1960  -25.0602    6.4046 C.2       2 UNK         0.5006 
     76 O         -47.5389  -25.6212    7.4469 O.2       2 UNK        -0.5106 
     77 CA        -46.4965  -25.8713    5.2997 C.3       2 UNK         0.0296 
     78 CB        -44.9698  -25.7753    5.4574 C.3       2 UNK        -0.2002 
     79 N         -46.8855  -27.2839    5.3265 N.am      2 UNK        -0.4032 
     80 C         -48.1130  -27.7440    5.0439 C.2       1 UNK         0.5000 
     81 O         -49.0303  -27.0407    4.6179 O.2       1 UNK        -0.5238 
     82 H82       -47.2563  -29.9353    1.3802 H         1 UNK         0.0889 
     83 H83       -47.2156  -28.4280    2.2882 H         1 UNK         0.0889 
     84 H84       -48.5950  -29.5307    2.4391 H         1 UNK         0.0889 
     85 H85       -46.7450  -30.5955    5.4520 H         1 UNK         0.3028 
     86 H86       -49.2341  -29.5114    4.6463 H         1 UNK         0.0864 
     87 H87       -47.7441  -29.5220    7.3053 H         1 UNK         0.0720 
     88 H88       -49.3163  -28.8167    7.1578 H         1 UNK         0.0720 
     89 H89       -51.6869  -31.8968    6.7232 H         1 UNK         0.0814 
     90 H90       -51.2779  -30.6632    5.5626 H         1 UNK         0.0814 
     91 H91       -51.6584  -28.3277    6.0703 H         1 UNK         0.1469 
     92 H92       -53.1860  -27.1798    9.8871 H         1 UNK         0.1381 
     93 H93       -51.9903  -31.2508    9.1875 H         1 UNK         0.1206 
     94 H94       -52.0234  -29.8430   11.6523 H         1 UNK         0.0813 
     95 H95       -53.4909  -30.6403   11.1511 H         1 UNK         0.0813 
     96 H96       -55.6804  -30.1180   11.9575 H         1 UNK         0.0638 
     97 H97       -55.9228  -28.7983   10.8332 H         1 UNK         0.0638 
     98 H98       -56.5743  -27.2886   12.6745 H         1 UNK         0.0568 
     99 H99       -59.9231  -28.9880   13.4794 H         1 UNK         0.3450 
    100 H100      -58.6343  -28.5704   14.5837 H         1 UNK         0.3450 
    101 H101      -55.8803  -27.6196   14.7019 H         1 UNK         0.2987 
    102 H102      -56.2252  -30.0950   17.0602 H         1 UNK         0.0766 
    103 H103      -53.7749  -30.1327   17.5571 H         1 UNK         0.0798 
    104 H104      -53.4255  -29.6514   15.8981 H         1 UNK         0.0798 
    105 H105      -54.1706  -31.2077   16.2255 H         1 UNK         0.0798 
    106 H106      -54.5717  -27.7162   16.9851 H         1 UNK         0.3198 
    107 H107      -57.1607  -25.3700   17.1169 H         1 UNK         0.0843 
    108 H108      -55.6513  -26.2454   19.6412 H         1 UNK         0.0831 
    109 H109      -57.3983  -26.1159   19.4963 H         1 UNK         0.0831 
    110 H110      -56.4078  -24.6727   19.3767 H         1 UNK         0.0831 
    111 H111      -54.4569  -25.0208   17.8230 H         1 UNK         0.3133 
    112 H112      -53.4462  -23.9525   14.7338 H         1 UNK         0.0566 
    113 H113      -51.9089  -23.2173   16.4896 H         1 UNK         0.0814 
    114 H114      -53.5448  -23.0393   17.0845 H         1 UNK         0.0814 
    115 H115      -52.5424  -24.3847   17.6360 H         1 UNK         0.0814 
    116 H116      -51.7740  -25.3386   14.3407 H         1 UNK         0.3091 
    117 H117      -50.3692  -28.1461   16.0680 H         1 UNK         0.0702 
    118 H118      -50.1944  -28.9456   13.7531 H         1 UNK         0.0785 
    119 H119      -51.3175  -27.7109   13.1967 H         1 UNK         0.0785 
    120 H120      -51.8755  -29.0057   14.2550 H         1 UNK         0.0785 
    121 H121      -49.3769  -26.4818   13.9542 H         1 UNK         0.2998 
    122 H122      -47.4384  -24.3432   16.1009 H         1 UNK         0.0697 
    123 H123      -46.7353  -26.5288   14.0706 H         1 UNK         0.0825 
    124 H124      -46.1624  -26.4592   15.7313 H         1 UNK         0.0825 
    125 H125      -45.6834  -25.2136   14.5900 H         1 UNK         0.0825 
    126 H126      -47.7613  -24.3986   13.2632 H         1 UNK         0.3029 
    127 H127      -50.4748  -22.0487   13.1450 H         1 UNK         0.0897 
    128 H128      -48.8509  -20.8288   11.7182 H         1 UNK         0.0792 
    129 H129      -48.4017  -20.6720   13.4096 H         1 UNK         0.0792 
    130 H130      -47.5194  -21.7824   12.3689 H         1 UNK         0.0792 
    131 H131      -49.0417  -23.2447   11.0279 H         1 UNK         0.3086 
    132 H132      -51.0735  -26.1829   10.6704 H         1 UNK         0.0583 
    133 H133      -52.1974  -24.3547    9.5026 H         1 UNK         0.1020 
    134 H134      -50.7055  -23.5286    9.1919 H         1 UNK         0.1020 
    135 H135      -53.3597  -25.6504    7.9717 H         1 UNK         0.0694 
    136 H136      -52.8261  -26.1666    6.3944 H         1 UNK         0.0694 
    137 H137      -48.7039  -25.4622    9.3273 H         1 UNK         0.2989 
    138 H138      -46.3564  -26.9253   11.6080 H         1 UNK         0.1055 
    139 H139      -47.1244  -28.8101   10.2153 H         1 UNK         0.0806 
    140 H140      -45.7155  -28.0683    9.4716 H         1 UNK         0.0806 
    141 H141      -47.3269  -27.7603    8.8251 H         1 UNK         0.0806 
    142 H142      -46.2816  -25.4692    9.0791 H         1 UNK         0.3061 
    143 H143      -45.7078  -22.2853   10.5781 H         1 UNK         0.0734 
    144 H144      -43.5852  -22.3756    9.2947 H         1 UNK         0.0832 
    145 H145      -43.4580  -23.3624   10.7406 H         1 UNK         0.0832 
    146 H146      -43.6961  -24.1330    9.1789 H         1 UNK         0.0832 
    147 H147      -45.5916  -23.1736    7.8667 H         1 UNK         0.3156 
    148 H148      -49.0497  -23.0903    7.1400 H         1 UNK         0.0589 
    149 H149      -46.9128  -21.0394    6.3561 H         1 UNK         0.0808 
    150 H150      -48.4282  -21.3474    5.5057 H         1 UNK         0.0808 
    151 H151      -48.4503  -20.6614    7.1203 H         1 UNK         0.0808 
    152 H152      -46.9974  -23.3674    5.3101 H         1 UNK         0.3098 
    153 H153      -46.7812  -25.4587    4.3295 H         1 UNK         0.0720 
    154 H154      -44.4544  -26.3249    4.6694 H         1 UNK         0.0791 
    155 H155      -44.6371  -26.1739    6.4171 H         1 UNK         0.0791 
    156 H156      -44.6312  -24.7400    5.3996 H         1 UNK         0.0791 
    157 H157      -46.1980  -27.9359    5.6740 H         1 UNK         0.3028 
@<TRIPOS>BOND
     1    1    2 1    
     2    1   82 1    
     3    1   83 1    
     4    1   84 1    
     5    2    3 2    
     6    2    4 am   BACKBONE|DICT|INTERRES
     7    4    5 1    
     8    4   85 1    
     9    5    6 1    
    10    5   80 1    
    11    5   86 1    
    12    6    7 1    
    13    6   87 1    
    14    6   88 1    
    15    7    8 1    
    16    8    9 1    
    17    8   89 1    
    18    8   90 1    
    19    9   10 ar   
    20    9   14 ar   
    21   10   11 ar   
    22   10   91 1    
    23   11   12 ar   
    24   11   58 1    
    25   12   13 ar   
    26   12   92 1    
    27   13   14 ar   
    28   13   15 1    
    29   14   93 1    
    30   15   16 1    
    31   15   94 1    
    32   15   95 1    
    33   16   17 1    
    34   17   18 1    
    35   17   96 1    
    36   17   97 1    
    37   18   19 1    
    38   18   22 1    
    39   18   98 1    
    40   19   20 am   BACKBONE|DICT|INTERRES
    41   19   21 2    
    42   20   99 1    
    43   20  100 1    
    44   22   23 am   BACKBONE|DICT|INTERRES
    45   22  101 1    
    46   23   24 2    
    47   23   25 1    
    48   25   26 1    
    49   25   27 1    
    50   25  102 1    
    51   26  103 1    
    52   26  104 1    
    53   26  105 1    
    54   27   28 am   BACKBONE|DICT|INTERRES
    55   27  106 1    
    56   28   29 2    
    57   28   30 1    
    58   30   31 1    
    59   30   32 1    
    60   30  107 1    
    61   31  108 1    
    62   31  109 1    
    63   31  110 1    
    64   32   33 am   BACKBONE|DICT|INTERRES
    65   32  111 1    
    66   33   34 2    
    67   33   35 1    
    68   35   36 1    
    69   35   37 1    
    70   35  112 1    
    71   36  113 1    
    72   36  114 1    
    73   36  115 1    
    74   37   38 am   BACKBONE|DICT|INTERRES
    75   37  116 1    
    76   38   39 2    
    77   38   40 1    
    78   40   41 1    
    79   40   42 1    
    80   40  117 1    
    81   41  118 1    
    82   41  119 1    
    83   41  120 1    
    84   42   43 am   BACKBONE|DICT|INTERRES
    85   42  121 1    
    86   43   44 2    
    87   43   45 1    
    88   45   46 1    
    89   45   47 1    
    90   45  122 1    
    91   46  123 1    
    92   46  124 1    
    93   46  125 1    
    94   47   48 am   BACKBONE|DICT|INTERRES
    95   47  126 1    
    96   48   49 2    
    97   48   50 1    
    98   50   51 1    
    99   50   52 1    
   100   50  127 1    
   101   51  128 1    
   102   51  129 1    
   103   51  130 1    
   104   52   53 am   BACKBONE|DICT|INTERRES
   105   52  131 1    
   106   53   54 2    
   107   53   55 1    
   108   55   56 1    
   109   55   59 1    
   110   55  132 1    
   111   56   57 1    
   112   56  133 1    
   113   56  134 1    
   114   57   58 1    
   115   58  135 1    
   116   58  136 1    
   117   59   60 am   BACKBONE|DICT|INTERRES
   118   59  137 1    
   119   60   61 2    
   120   60   62 1    
   121   62   63 1    
   122   62   64 1    
   123   62  138 1    
   124   63  139 1    
   125   63  140 1    
   126   63  141 1    
   127   64   65 am   BACKBONE|DICT|INTERRES
   128   64  142 1    
   129   65   66 2    
   130   65   67 1    
   131   67   68 1    
   132   67   69 1    
   133   67  143 1    
   134   68  144 1    
   135   68  145 1    
   136   68  146 1    
   137   69   70 am   BACKBONE|DICT|INTERRES
   138   69  147 1    
   139   70   71 2    
   140   70   72 1    
   141   72   73 1    
   142   72   74 1    
   143   72  148 1    
   144   73  149 1    
   145   73  150 1    
   146   73  151 1    
   147   74   75 am   BACKBONE|DICT|INTERRES
   148   74  152 1    
   149   75   76 2    
   150   75   77 1    
   151   77   78 1    
   152   77   79 1    
   153   77  153 1    
   154   78  154 1    
   155   78  155 1    
   156   78  156 1    
   157   79   80 am   BACKBONE|DICT|INTERRES
   158   79  157 1    
   159   80   81 2    
@<TRIPOS>SUBSTRUCTURE
     1 UNK         1 GROUP             0       ****    0 ROOT    
