@<TRIPOS>MOLECULE
3R207
157   159    1
SMALL
USER_CHARGES


@<TRIPOS>ATOM
      1 CA        -50.2177  -30.8566    0.8967 C.3       0 UNK        -0.1975 
      2 C         -50.5070  -29.8795    2.0270 C.2       0 UNK         0.4852 
      3 O         -50.8364  -28.7216    1.7640 O.2       0 UNK        -0.5216 
      4 N         -50.3958  -30.3416    3.2787 N.am      1 UNK        -0.4461 
      5 CA        -50.5669  -29.5386    4.4934 C.3       1 UNK         0.0864 
      6 C6        -51.1480  -30.3924    5.6528 C.3       14 UNK        -0.0898 
      7 S7        -50.0324  -31.7047    6.2622 S.3       14 UNK        -0.2598 
      8 C8        -51.1891  -32.7542    7.2040 C.3       14 UNK         0.0286 
      9 C9        -51.9780  -31.9792    8.2543 C.ar      14 UNK        -0.0844 
     10 C10       -51.3154  -31.2527    9.2501 C.ar      14 UNK        -0.0881 
     11 C11       -52.0425  -30.5339   10.2028 C.ar      14 UNK        -0.0643 
     12 C12       -53.4361  -30.5952   10.1893 C.ar      14 UNK        -0.0930 
     13 C13       -54.1170  -31.2766    9.1767 C.ar      14 UNK        -0.0827 
     14 C14       -53.3772  -31.9770    8.2185 C.ar      14 UNK        -0.1249 
     15 C15       -55.6442  -31.2695    9.0949 C.3       14 UNK         0.0141 
     16 S16       -56.4464  -29.7414    9.7097 S.3       14 UNK        -0.2313 
     17 C17       -55.7650  -28.4514    8.6086 C.3       14 UNK        -0.0915 
     18 CA        -54.7621  -27.4799    9.3022 C.3       13 UNK         0.0968 
     19 C         -54.1209  -26.5163    8.2725 C.2       13 UNK         0.5732 
     20 N         -53.2533  -27.0289    7.4102 N.am      13 UNK        -0.7310 
     21 O         -54.4177  -25.3234    8.2270 O.2       13 UNK        -0.5035 
     22 N         -55.3712  -26.7306   10.4118 N.am      13 UNK        -0.4233 
     23 C         -55.2349  -27.0257   11.7086 C.2       13 UNK         0.4989 
     24 O         -54.6076  -27.9985   12.1330 O.2       13 UNK        -0.4996 
     25 CA        -55.9478  -26.0932   12.7052 C.3       12 UNK         0.0216 
     26 CB        -57.4670  -26.3366   12.6844 C.3       12 UNK        -0.1964 
     27 N         -55.4511  -26.3282   14.0635 N.am      12 UNK        -0.4276 
     28 C         -54.2956  -25.8482   14.5362 C.2       12 UNK         0.5020 
     29 O         -53.6259  -24.9858   13.9622 O.2       12 UNK        -0.5489 
     30 CA        -53.7975  -26.4806   15.8444 C.3       11 UNK         0.0294 
     31 CB        -53.1753  -27.8601   15.5620 C.3       11 UNK        -0.2019 
     32 N         -52.7744  -25.6373   16.4565 N.am      11 UNK        -0.4493 
     33 C         -52.8575  -25.0563   17.6585 C.2       11 UNK         0.4932 
     34 O         -53.8239  -25.1847   18.4131 O.2       11 UNK        -0.5029 
     35 CA        -51.6641  -24.1767   18.0834 C.3       10 UNK         0.0280 
     36 CB        -51.6593  -23.8413   19.5905 C.3       10 UNK        -0.1976 
     37 N         -50.3665  -24.7150   17.6576 N.am      10 UNK        -0.4242 
     38 C         -49.7907  -25.8707   18.0289 C.2       10 UNK         0.5072 
     39 O         -50.2811  -26.6423   18.8549 O.2       10 UNK        -0.5224 
     40 CA        -48.4434  -26.2521   17.3758 C.3       9 UNK         0.0343 
     41 CB        -48.5537  -27.5982   16.6379 C.3       9 UNK        -0.2003 
     42 N         -47.9357  -25.2446   16.4408 N.am      9 UNK        -0.4272 
     43 C         -47.2825  -24.1270   16.7875 C.2       9 UNK         0.4988 
     44 O         -46.9484  -23.8596   17.9419 O.2       9 UNK        -0.5108 
     45 CA        -46.9927  -23.1128   15.6640 C.3       8 UNK         0.0248 
     46 CB        -45.6374  -23.4080   15.0029 C.3       8 UNK        -0.2001 
     47 N         -48.0471  -23.0591   14.6427 N.am      8 UNK        -0.4140 
     48 C         -49.3167  -22.6982   14.8876 C.2       8 UNK         0.5028 
     49 O         -49.7140  -22.3159   15.9878 O.2       8 UNK        -0.5428 
     50 CA        -50.3319  -22.8420   13.7429 C.3       7 UNK         0.0264 
     51 CB        -50.2606  -21.6335   12.7968 C.3       7 UNK        -0.1988 
     52 N         -50.1718  -24.0837   12.9828 N.am      7 UNK        -0.4454 
     53 C         -50.2990  -25.3186   13.4938 C.2       7 UNK         0.5027 
     54 O         -50.5807  -25.5430   14.6698 O.2       7 UNK        -0.5083 
     55 CA        -49.9876  -26.5016   12.5541 C.3       6 UNK         0.0844 
     56 C56       -51.1893  -26.7986   11.6234 C.3       14 UNK        -0.0967 
     57 S57       -50.8481  -28.0822   10.3724 S.3       14 UNK        -0.2604 
     58 C58       -51.3365  -29.6288   11.1999 C.3       14 UNK         0.0134 
     59 N         -48.7242  -26.2835   11.8418 N.am      6 UNK        -0.4116 
     60 C         -47.5307  -26.1556   12.4413 C.2       5 UNK         0.5034 
     61 O         -47.3512  -26.2846   13.6523 O.2       5 UNK        -0.5045 
     62 CA        -46.3462  -25.7582   11.5503 C.3       5 UNK         0.0224 
     63 CB        -45.7136  -26.9931   10.8887 C.3       5 UNK        -0.1978 
     64 N         -46.7466  -24.7862   10.5308 N.am      5 UNK        -0.4737 
     65 C         -47.0187  -23.4994   10.7898 C.2       4 UNK         0.5027 
     66 O         -46.9102  -22.9931   11.9062 O.2       4 UNK        -0.5211 
     67 CA        -47.5309  -22.6416    9.6190 C.3       4 UNK         0.0297 
     68 CB        -46.3532  -22.0819    8.8061 C.3       4 UNK        -0.1993 
     69 N         -48.4425  -23.3665    8.7293 N.am      4 UNK        -0.4486 
     70 C         -49.6493  -23.8220    9.0937 C.2       3 UNK         0.4961 
     71 O         -50.1395  -23.6413   10.2065 O.2       3 UNK        -0.5105 
     72 CA        -50.4288  -24.6582    8.0643 C.3       3 UNK         0.0299 
     73 CB        -51.2876  -23.7428    7.1775 C.3       3 UNK        -0.1972 
     74 N         -49.6122  -25.5388    7.2174 N.am      3 UNK        -0.4305 
     75 C         -48.7053  -26.4268    7.6528 C.2       2 UNK         0.5006 
     76 O         -48.3474  -26.5220    8.8265 O.2       2 UNK        -0.5106 
     77 CA        -48.1464  -27.3920    6.6021 C.3       2 UNK         0.0296 
     78 CB        -47.0846  -28.3540    7.1778 C.3       2 UNK        -0.2002 
     79 N         -49.2664  -28.1444    6.0409 N.am      2 UNK        -0.4032 
     80 C         -49.2649  -28.7855    4.8661 C.2       1 UNK         0.5000 
     81 O         -48.2935  -28.7956    4.1030 O.2       1 UNK        -0.5238 
     82 H82       -51.0714  -30.9145    0.2220 H         1 UNK         0.0889 
     83 H83       -50.0117  -31.8602    1.2682 H         1 UNK         0.0889 
     84 H84       -49.3527  -30.5220    0.3247 H         1 UNK         0.0889 
     85 H85       -50.0868  -31.2906    3.4348 H         1 UNK         0.3028 
     86 H86       -51.3046  -28.7616    4.2803 H         1 UNK         0.0864 
     87 H87       -52.0789  -30.8582    5.3245 H         1 UNK         0.0720 
     88 H88       -51.4279  -29.7595    6.4961 H         1 UNK         0.0720 
     89 H89       -50.6249  -33.5463    7.6979 H         1 UNK         0.0814 
     90 H90       -51.8609  -33.2496    6.5013 H         1 UNK         0.0814 
     91 H91       -50.2345  -31.2136    9.2592 H         1 UNK         0.1469 
     92 H92       -53.9931  -30.0612   10.9435 H         1 UNK         0.1381 
     93 H93       -53.8938  -32.5201    7.4387 H         1 UNK         0.1206 
     94 H94       -55.9651  -31.4308    8.0646 H         1 UNK         0.0813 
     95 H95       -56.0232  -32.1143    9.6710 H         1 UNK         0.0813 
     96 H96       -56.6055  -27.8891    8.1986 H         1 UNK         0.0638 
     97 H97       -55.2937  -28.9453    7.7571 H         1 UNK         0.0638 
     98 H98       -53.9258  -28.0540    9.6966 H         1 UNK         0.0568 
     99 H99       -52.8509  -26.4277    6.7113 H         1 UNK         0.3450 
    100 H100      -53.0167  -28.0068    7.4427 H         1 UNK         0.3450 
    101 H101      -55.8574  -25.8886   10.1366 H         1 UNK         0.2987 
    102 H102      -55.7485  -25.0576   12.4209 H         1 UNK         0.0766 
    103 H103      -57.9818  -25.6929   13.3980 H         1 UNK         0.0798 
    104 H104      -57.7138  -27.3714   12.9263 H         1 UNK         0.0798 
    105 H105      -57.8871  -26.1252   11.7002 H         1 UNK         0.0798 
    106 H106      -55.9064  -27.0688   14.5772 H         1 UNK         0.3198 
    107 H107      -54.6509  -26.6033   16.5147 H         1 UNK         0.0843 
    108 H108      -52.3344  -27.7875   14.8707 H         1 UNK         0.0831 
    109 H109      -53.9023  -28.5407   15.1171 H         1 UNK         0.0831 
    110 H110      -52.8132  -28.3255   16.4790 H         1 UNK         0.0831 
    111 H111      -51.9644  -25.4527   15.8645 H         1 UNK         0.3133 
    112 H112      -51.7858  -23.2365   17.5444 H         1 UNK         0.0566 
    113 H113      -50.8145  -23.2041   19.8518 H         1 UNK         0.0814 
    114 H114      -52.5665  -23.3066   19.8744 H         1 UNK         0.0814 
    115 H115      -51.6068  -24.7393   20.2066 H         1 UNK         0.0814 
    116 H116      -49.8881  -24.1512   16.9637 H         1 UNK         0.3091 
    117 H117      -47.7192  -26.3716   18.1841 H         1 UNK         0.0702 
    118 H118      -47.5989  -27.8897   16.1997 H         1 UNK         0.0785 
    119 H119      -49.2906  -27.5600   15.8354 H         1 UNK         0.0785 
    120 H120      -48.8548  -28.3959   17.3181 H         1 UNK         0.0785 
    121 H121      -48.1277  -25.4085   15.4583 H         1 UNK         0.2998 
    122 H122      -46.9354  -22.1240   16.1237 H         1 UNK         0.0697 
    123 H123      -45.6278  -24.3845   14.5191 H         1 UNK         0.0825 
    124 H124      -44.8345  -23.4030   15.7413 H         1 UNK         0.0825 
    125 H125      -45.3902  -22.6586   14.2508 H         1 UNK         0.0825 
    126 H126      -47.7781  -23.2958   13.6919 H         1 UNK         0.3029 
    127 H127      -51.3286  -22.8655   14.1896 H         1 UNK         0.0897 
    128 H128      -51.0396  -21.6810   12.0356 H         1 UNK         0.0792 
    129 H129      -50.3984  -20.7000   13.3439 H         1 UNK         0.0792 
    130 H130      -49.2986  -21.5757   12.2870 H         1 UNK         0.0792 
    131 H131      -49.9910  -23.9809   11.9850 H         1 UNK         0.3086 
    132 H132      -49.8421  -27.3821   13.1836 H         1 UNK         0.0583 
    133 H133      -52.0623  -27.0861   12.2118 H         1 UNK         0.1020 
    134 H134      -51.4858  -25.8973   11.0839 H         1 UNK         0.1020 
    135 H135      -50.4503  -30.1227   11.6004 H         1 UNK         0.0694 
    136 H136      -51.9885  -29.4176   12.0490 H         1 UNK         0.0694 
    137 H137      -48.7713  -26.2209   10.8299 H         1 UNK         0.2989 
    138 H138      -45.5910  -25.2933   12.1880 H         1 UNK         0.1055 
    139 H139      -45.3406  -27.6864   11.6437 H         1 UNK         0.0806 
    140 H140      -44.8694  -26.7173   10.2568 H         1 UNK         0.0806 
    141 H141      -46.4285  -27.5408   10.2745 H         1 UNK         0.0806 
    142 H142      -46.9729  -25.1601    9.6166 H         1 UNK         0.3061 
    143 H143      -48.0804  -21.7992   10.0445 H         1 UNK         0.0734 
    144 H144      -46.6959  -21.4021    8.0258 H         1 UNK         0.0832 
    145 H145      -45.6718  -21.5195    9.4464 H         1 UNK         0.0832 
    146 H146      -45.7736  -22.8751    8.3322 H         1 UNK         0.0832 
    147 H147      -48.1160  -23.5677    7.7955 H         1 UNK         0.3156 
    148 H148      -51.1021  -25.3062    8.6287 H         1 UNK         0.0589 
    149 H149      -50.6743  -23.0897    6.5555 H         1 UNK         0.0808 
    150 H150      -51.9310  -23.1051    7.7859 H         1 UNK         0.0808 
    151 H151      -51.9406  -24.3174    6.5212 H         1 UNK         0.0808 
    152 H152      -49.8189  -25.5221    6.2289 H         1 UNK         0.3098 
    153 H153      -47.6852  -26.7889    5.8172 H         1 UNK         0.0720 
    154 H154      -46.2539  -27.8013    7.6183 H         1 UNK         0.0791 
    155 H155      -46.6678  -28.9998    6.4051 H         1 UNK         0.0791 
    156 H156      -47.5037  -28.9927    7.9566 H         1 UNK         0.0791 
    157 H157      -50.0903  -28.1856    6.6248 H         1 UNK         0.3028 
@<TRIPOS>BOND
     1    1    2 1    
     2    1   82 1    
     3    1   83 1    
     4    1   84 1    
     5    2    3 2    
     6    2    4 am   BACKBONE|DICT|INTERRES
     7    4    5 1    
     8    4   85 1    
     9    5    6 1    
    10    5   80 1    
    11    5   86 1    
    12    6    7 1    
    13    6   87 1    
    14    6   88 1    
    15    7    8 1    
    16    8    9 1    
    17    8   89 1    
    18    8   90 1    
    19    9   10 ar   
    20    9   14 ar   
    21   10   11 ar   
    22   10   91 1    
    23   11   12 ar   
    24   11   58 1    
    25   12   13 ar   
    26   12   92 1    
    27   13   14 ar   
    28   13   15 1    
    29   14   93 1    
    30   15   16 1    
    31   15   94 1    
    32   15   95 1    
    33   16   17 1    
    34   17   18 1    
    35   17   96 1    
    36   17   97 1    
    37   18   19 1    
    38   18   22 1    
    39   18   98 1    
    40   19   20 am   BACKBONE|DICT|INTERRES
    41   19   21 2    
    42   20   99 1    
    43   20  100 1    
    44   22   23 am   BACKBONE|DICT|INTERRES
    45   22  101 1    
    46   23   24 2    
    47   23   25 1    
    48   25   26 1    
    49   25   27 1    
    50   25  102 1    
    51   26  103 1    
    52   26  104 1    
    53   26  105 1    
    54   27   28 am   BACKBONE|DICT|INTERRES
    55   27  106 1    
    56   28   29 2    
    57   28   30 1    
    58   30   31 1    
    59   30   32 1    
    60   30  107 1    
    61   31  108 1    
    62   31  109 1    
    63   31  110 1    
    64   32   33 am   BACKBONE|DICT|INTERRES
    65   32  111 1    
    66   33   34 2    
    67   33   35 1    
    68   35   36 1    
    69   35   37 1    
    70   35  112 1    
    71   36  113 1    
    72   36  114 1    
    73   36  115 1    
    74   37   38 am   BACKBONE|DICT|INTERRES
    75   37  116 1    
    76   38   39 2    
    77   38   40 1    
    78   40   41 1    
    79   40   42 1    
    80   40  117 1    
    81   41  118 1    
    82   41  119 1    
    83   41  120 1    
    84   42   43 am   BACKBONE|DICT|INTERRES
    85   42  121 1    
    86   43   44 2    
    87   43   45 1    
    88   45   46 1    
    89   45   47 1    
    90   45  122 1    
    91   46  123 1    
    92   46  124 1    
    93   46  125 1    
    94   47   48 am   BACKBONE|DICT|INTERRES
    95   47  126 1    
    96   48   49 2    
    97   48   50 1    
    98   50   51 1    
    99   50   52 1    
   100   50  127 1    
   101   51  128 1    
   102   51  129 1    
   103   51  130 1    
   104   52   53 am   BACKBONE|DICT|INTERRES
   105   52  131 1    
   106   53   54 2    
   107   53   55 1    
   108   55   56 1    
   109   55   59 1    
   110   55  132 1    
   111   56   57 1    
   112   56  133 1    
   113   56  134 1    
   114   57   58 1    
   115   58  135 1    
   116   58  136 1    
   117   59   60 am   BACKBONE|DICT|INTERRES
   118   59  137 1    
   119   60   61 2    
   120   60   62 1    
   121   62   63 1    
   122   62   64 1    
   123   62  138 1    
   124   63  139 1    
   125   63  140 1    
   126   63  141 1    
   127   64   65 am   BACKBONE|DICT|INTERRES
   128   64  142 1    
   129   65   66 2    
   130   65   67 1    
   131   67   68 1    
   132   67   69 1    
   133   67  143 1    
   134   68  144 1    
   135   68  145 1    
   136   68  146 1    
   137   69   70 am   BACKBONE|DICT|INTERRES
   138   69  147 1    
   139   70   71 2    
   140   70   72 1    
   141   72   73 1    
   142   72   74 1    
   143   72  148 1    
   144   73  149 1    
   145   73  150 1    
   146   73  151 1    
   147   74   75 am   BACKBONE|DICT|INTERRES
   148   74  152 1    
   149   75   76 2    
   150   75   77 1    
   151   77   78 1    
   152   77   79 1    
   153   77  153 1    
   154   78  154 1    
   155   78  155 1    
   156   78  156 1    
   157   79   80 am   BACKBONE|DICT|INTERRES
   158   79  157 1    
   159   80   81 2    
@<TRIPOS>SUBSTRUCTURE
     1 UNK         1 GROUP             0       ****    0 ROOT    
