@<TRIPOS>MOLECULE
3R207
157   159    1
SMALL
USER_CHARGES


@<TRIPOS>ATOM
      1 CA        -50.5708  -26.2400    6.5563 C.3       0 UNK        -0.1975 
      2 C         -51.2504  -26.8179    5.3159 C.2       0 UNK         0.4852 
      3 O         -52.1179  -26.1577    4.7469 O.2       0 UNK        -0.5216 
      4 N         -50.9109  -28.0329    4.8613 N.am      1 UNK        -0.4461 
      5 CA        -49.8737  -28.9281    5.3891 C.3       1 UNK         0.0864 
      6 C6        -49.9927  -30.3692    4.8204 C.3       14 UNK        -0.0898 
      7 S7        -51.6722  -31.0810    4.9051 S.3       14 UNK        -0.2598 
      8 C8        -51.7039  -31.8078    6.5781 C.3       14 UNK         0.0286 
      9 C9        -51.6618  -30.7504    7.6746 C.ar      14 UNK        -0.0844 
     10 C10       -50.7084  -30.8272    8.6940 C.ar      14 UNK        -0.0881 
     11 C11       -50.6600  -29.8540    9.6968 C.ar      14 UNK        -0.0643 
     12 C12       -51.5675  -28.7885    9.6690 C.ar      14 UNK        -0.0930 
     13 C13       -52.5247  -28.7008    8.6532 C.ar      14 UNK        -0.0827 
     14 C14       -52.5758  -29.6923    7.6714 C.ar      14 UNK        -0.1249 
     15 C15       -53.4931  -27.5296    8.5847 C.3       14 UNK         0.0141 
     16 S16       -55.0464  -27.8800    9.4655 S.3       14 UNK        -0.2313 
     17 C17       -54.6201  -27.3601   11.1579 C.3       14 UNK        -0.0915 
     18 CA        -55.8703  -27.0590   12.0216 C.3       13 UNK         0.0968 
     19 C         -56.5281  -28.3552   12.5658 C.2       13 UNK         0.5732 
     20 N         -57.6044  -28.8196   11.9464 N.am      13 UNK        -0.7310 
     21 O         -56.0487  -28.9575   13.5248 O.2       13 UNK        -0.5035 
     22 N         -55.5388  -26.1461   13.1221 N.am      13 UNK        -0.4233 
     23 C         -56.4259  -25.3513   13.7317 C.2       13 UNK         0.4989 
     24 O         -57.5778  -25.1702   13.3309 O.2       13 UNK        -0.4996 
     25 CA        -55.9360  -24.6773   15.0269 C.3       12 UNK         0.0216 
     26 CB        -56.9851  -23.7380   15.6598 C.3       12 UNK        -0.1964 
     27 N         -55.4653  -25.6693   16.0019 N.am      12 UNK        -0.4276 
     28 C         -56.1503  -26.6921   16.5372 C.2       12 UNK         0.5020 
     29 O         -57.3470  -26.9038   16.3316 O.2       12 UNK        -0.5489 
     30 CA        -55.3476  -27.6496   17.4456 C.3       11 UNK         0.0294 
     31 CB        -56.2145  -28.7834   18.0261 C.3       11 UNK        -0.2019 
     32 N         -54.1986  -28.2434   16.7519 N.am      11 UNK        -0.4493 
     33 C         -53.0551  -27.6060   16.4741 C.2       11 UNK         0.4932 
     34 O         -52.8545  -26.4300   16.7857 O.2       11 UNK        -0.5029 
     35 CA        -51.9992  -28.4038   15.6851 C.3       10 UNK         0.0280 
     36 CB        -52.4698  -28.6484   14.2407 C.3       10 UNK        -0.1976 
     37 N         -50.7109  -27.7125   15.6381 N.am      10 UNK        -0.4242 
     38 C         -49.8908  -27.5148   16.6784 C.2       10 UNK         0.5072 
     39 O         -50.0514  -28.0217   17.7904 O.2       10 UNK        -0.5224 
     40 CA        -48.6899  -26.5842   16.4374 C.3       9 UNK         0.0343 
     41 CB        -47.5183  -27.3600   15.8138 C.3       9 UNK        -0.2003 
     42 N         -49.0320  -25.4347   15.5925 N.am      9 UNK        -0.4272 
     43 C         -49.7889  -24.3998   15.9906 C.2       9 UNK         0.4988 
     44 O         -50.2036  -24.2603   17.1417 O.2       9 UNK        -0.5108 
     45 CA        -50.1271  -23.3214   14.9444 C.3       8 UNK         0.0248 
     46 CB        -49.0083  -22.2698   14.8742 C.3       8 UNK        -0.2001 
     47 N         -50.3643  -23.8671   13.6076 N.am      8 UNK        -0.4140 
     48 C         -51.4343  -24.5916   13.2513 C.2       8 UNK         0.5028 
     49 O         -52.4016  -24.8144   13.9796 O.2       8 UNK        -0.5428 
     50 CA        -51.4131  -25.2007   11.8400 C.3       7 UNK         0.0264 
     51 CB        -52.0079  -24.2278   10.8095 C.3       7 UNK        -0.1988 
     52 N         -50.0821  -25.6321   11.4081 N.am      7 UNK        -0.4454 
     53 C         -49.3735  -26.6009   12.0074 C.2       7 UNK         0.5027 
     54 O         -49.7646  -27.2197   12.9954 O.2       7 UNK        -0.5083 
     55 CA        -47.9785  -26.8904   11.4269 C.3       6 UNK         0.0844 
     56 C56       -48.0770  -27.7076   10.1081 C.3       14 UNK        -0.0967 
     57 S57       -47.9615  -29.5105   10.3544 S.3       14 UNK        -0.2604 
     58 C58       -49.6555  -29.9884   10.8321 C.3       14 UNK         0.0134 
     59 N         -47.2354  -25.6385   11.2584 N.am      6 UNK        -0.4116 
     60 C         -46.8304  -24.8489   12.2668 C.2       5 UNK         0.5034 
     61 O         -46.9629  -25.1359   13.4551 O.2       5 UNK        -0.5045 
     62 CA        -46.2234  -23.4828   11.8964 C.3       5 UNK         0.0224 
     63 CB        -44.6976  -23.5942   11.7528 C.3       5 UNK        -0.1978 
     64 N         -46.7875  -22.9134   10.6702 N.am      5 UNK        -0.4737 
     65 C         -48.0790  -22.5989   10.4911 C.2       4 UNK         0.5027 
     66 O         -48.9197  -22.6500   11.3875 O.2       4 UNK        -0.5211 
     67 CA        -48.5176  -22.2435    9.0567 C.3       4 UNK         0.0297 
     68 CB        -48.5559  -20.7192    8.8702 C.3       4 UNK        -0.1993 
     69 N         -47.6670  -22.8466    8.0198 N.am      4 UNK        -0.4486 
     70 C         -47.4941  -24.1648    7.8517 C.2       3 UNK         0.4961 
     71 O         -48.0943  -25.0223    8.5073 O.2       3 UNK        -0.5105 
     72 CA        -46.4105  -24.5948    6.8566 C.3       3 UNK         0.0299 
     73 CB        -45.0149  -24.2186    7.4036 C.3       3 UNK        -0.1972 
     74 N         -46.5192  -26.0401    6.6716 N.am      3 UNK        -0.4305 
     75 C         -45.8196  -26.7985    5.8198 C.2       2 UNK         0.5006 
     76 O         -44.9851  -26.3596    5.0274 O.2       2 UNK        -0.5106 
     77 CA        -46.0972  -28.3121    5.8565 C.3       2 UNK         0.0296 
     78 CB        -45.2849  -28.9823    6.9774 C.3       2 UNK        -0.2002 
     79 N         -47.5146  -28.6589    6.0072 N.am      2 UNK        -0.4032 
     80 C         -48.4634  -28.3763    5.1027 C.2       1 UNK         0.5000 
     81 O         -48.2552  -27.7489    4.0608 O.2       1 UNK        -0.5238 
     82 H82       -49.5767  -25.8744    6.3047 H         1 UNK         0.0889 
     83 H83       -50.4871  -26.9705    7.3590 H         1 UNK         0.0889 
     84 H84       -51.1428  -25.3982    6.9459 H         1 UNK         0.0889 
     85 H85       -51.3821  -28.3825    4.0399 H         1 UNK         0.3028 
     86 H86       -49.9974  -28.9836    6.4701 H         1 UNK         0.0864 
     87 H87       -49.3029  -31.0416    5.3344 H         1 UNK         0.0720 
     88 H88       -49.6987  -30.3865    3.7687 H         1 UNK         0.0720 
     89 H89       -50.8773  -32.5130    6.6773 H         1 UNK         0.0814 
     90 H90       -52.6199  -32.3892    6.6905 H         1 UNK         0.0814 
     91 H91       -50.0046  -31.6483    8.7157 H         1 UNK         0.1469 
     92 H92       -51.5360  -28.0342   10.4416 H         1 UNK         0.1381 
     93 H93       -53.3161  -29.6282    6.8855 H         1 UNK         0.1206 
     94 H94       -53.7299  -27.3140    7.5414 H         1 UNK         0.0813 
     95 H95       -53.0270  -26.6247    8.9734 H         1 UNK         0.0813 
     96 H96       -54.0399  -26.4448   11.0589 H         1 UNK         0.0638 
     97 H97       -53.9667  -28.1017   11.6206 H         1 UNK         0.0638 
     98 H98       -56.5956  -26.5468   11.3855 H         1 UNK         0.0568 
     99 H99       -57.9889  -28.3439   11.1453 H         1 UNK         0.3450 
    100 H100      -58.0340  -29.6671   12.2817 H         1 UNK         0.3450 
    101 H101      -54.6243  -26.2513   13.5364 H         1 UNK         0.2987 
    102 H102      -55.0697  -24.0715   14.7555 H         1 UNK         0.0766 
    103 H103      -57.2728  -22.9502   14.9624 H         1 UNK         0.0798 
    104 H104      -57.8942  -24.2714   15.9395 H         1 UNK         0.0798 
    105 H105      -56.5936  -23.2523   16.5536 H         1 UNK         0.0798 
    106 H106      -54.4712  -25.6334   16.2249 H         1 UNK         0.3198 
    107 H107      -54.9784  -27.0562   18.2853 H         1 UNK         0.0843 
    108 H108      -56.6217  -29.4219   17.2409 H         1 UNK         0.0831 
    109 H109      -57.0578  -28.3811   18.5892 H         1 UNK         0.0831 
    110 H110      -55.6430  -29.4118   18.7092 H         1 UNK         0.0831 
    111 H111      -54.3191  -29.1893   16.4178 H         1 UNK         0.3133 
    112 H112      -51.8544  -29.3661   16.1799 H         1 UNK         0.0566 
    113 H113      -52.6419  -27.7092   13.7148 H         1 UNK         0.0814 
    114 H114      -51.7316  -29.2158   13.6735 H         1 UNK         0.0814 
    115 H115      -53.4000  -29.2163   14.2124 H         1 UNK         0.0814 
    116 H116      -50.4552  -27.2994   14.7448 H         1 UNK         0.3091 
    117 H117      -48.3638  -26.2061   17.4086 H         1 UNK         0.0702 
    118 H118      -46.6330  -26.7308   15.7204 H         1 UNK         0.0785 
    119 H119      -47.7652  -27.7383   14.8213 H         1 UNK         0.0785 
    120 H120      -47.2438  -28.2161   16.4314 H         1 UNK         0.0785 
    121 H121      -48.6616  -25.4402   14.6490 H         1 UNK         0.2998 
    122 H122      -51.0433  -22.8224   15.2675 H         1 UNK         0.0697 
    123 H123      -48.0589  -22.7119   14.5715 H         1 UNK         0.0825 
    124 H124      -48.8537  -21.8001   15.8465 H         1 UNK         0.0825 
    125 H125      -49.2504  -21.4779   14.1649 H         1 UNK         0.0825 
    126 H126      -49.6754  -23.6514   12.8923 H         1 UNK         0.3029 
    127 H127      -52.0326  -26.0956   11.8761 H         1 UNK         0.0897 
    128 H128      -51.4517  -23.2909   10.7696 H         1 UNK         0.0792 
    129 H129      -53.0401  -23.9803   11.0614 H         1 UNK         0.0792 
    130 H130      -52.0106  -24.6546    9.8073 H         1 UNK         0.0792 
    131 H131      -49.6726  -25.1439   10.6230 H         1 UNK         0.3086 
    132 H132      -47.4292  -27.4799   12.1645 H         1 UNK         0.0583 
    133 H133      -48.9643  -27.4620    9.5213 H         1 UNK         0.1020 
    134 H134      -47.2353  -27.4537    9.4632 H         1 UNK         0.1020 
    135 H135      -49.6336  -31.0290   11.1593 H         1 UNK         0.0694 
    136 H136      -49.9770  -29.4208   11.7034 H         1 UNK         0.0694 
    137 H137      -47.1584  -25.2936   10.3096 H         1 UNK         0.2989 
    138 H138      -46.4434  -22.7939   12.7146 H         1 UNK         0.1055 
    139 H139      -44.2491  -23.9912   12.6649 H         1 UNK         0.0806 
    140 H140      -44.2434  -22.6202   11.5695 H         1 UNK         0.0806 
    141 H141      -44.4135  -24.2578   10.9352 H         1 UNK         0.0806 
    142 H142      -46.1636  -22.8177    9.8828 H         1 UNK         0.3061 
    143 H143      -49.5296  -22.6317    8.9223 H         1 UNK         0.0734 
    144 H144      -47.5659  -20.2731    8.9724 H         1 UNK         0.0832 
    145 H145      -48.9490  -20.4480    7.8902 H         1 UNK         0.0832 
    146 H146      -49.2016  -20.2524    9.6157 H         1 UNK         0.0832 
    147 H147      -47.1401  -22.2090    7.4393 H         1 UNK         0.3156 
    148 H148      -46.5908  -24.0982    5.9014 H         1 UNK         0.0589 
    149 H149      -44.7997  -24.7312    8.3421 H         1 UNK         0.0808 
    150 H150      -44.2224  -24.4725    6.7003 H         1 UNK         0.0808 
    151 H151      -44.9304  -23.1472    7.5880 H         1 UNK         0.0808 
    152 H152      -47.2095  -26.4679    7.2753 H         1 UNK         0.3098 
    153 H153      -45.7592  -28.7260    4.9039 H         1 UNK         0.0720 
    154 H154      -45.3857  -30.0675    6.9467 H         1 UNK         0.0791 
    155 H155      -45.5976  -28.6447    7.9660 H         1 UNK         0.0791 
    156 H156      -44.2223  -28.7557    6.8777 H         1 UNK         0.0791 
    157 H157      -47.7597  -29.1992    6.8249 H         1 UNK         0.3028 
@<TRIPOS>BOND
     1    1    2 1    
     2    1   82 1    
     3    1   83 1    
     4    1   84 1    
     5    2    3 2    
     6    2    4 am   BACKBONE|DICT|INTERRES
     7    4    5 1    
     8    4   85 1    
     9    5    6 1    
    10    5   80 1    
    11    5   86 1    
    12    6    7 1    
    13    6   87 1    
    14    6   88 1    
    15    7    8 1    
    16    8    9 1    
    17    8   89 1    
    18    8   90 1    
    19    9   10 ar   
    20    9   14 ar   
    21   10   11 ar   
    22   10   91 1    
    23   11   12 ar   
    24   11   58 1    
    25   12   13 ar   
    26   12   92 1    
    27   13   14 ar   
    28   13   15 1    
    29   14   93 1    
    30   15   16 1    
    31   15   94 1    
    32   15   95 1    
    33   16   17 1    
    34   17   18 1    
    35   17   96 1    
    36   17   97 1    
    37   18   19 1    
    38   18   22 1    
    39   18   98 1    
    40   19   20 am   BACKBONE|DICT|INTERRES
    41   19   21 2    
    42   20   99 1    
    43   20  100 1    
    44   22   23 am   BACKBONE|DICT|INTERRES
    45   22  101 1    
    46   23   24 2    
    47   23   25 1    
    48   25   26 1    
    49   25   27 1    
    50   25  102 1    
    51   26  103 1    
    52   26  104 1    
    53   26  105 1    
    54   27   28 am   BACKBONE|DICT|INTERRES
    55   27  106 1    
    56   28   29 2    
    57   28   30 1    
    58   30   31 1    
    59   30   32 1    
    60   30  107 1    
    61   31  108 1    
    62   31  109 1    
    63   31  110 1    
    64   32   33 am   BACKBONE|DICT|INTERRES
    65   32  111 1    
    66   33   34 2    
    67   33   35 1    
    68   35   36 1    
    69   35   37 1    
    70   35  112 1    
    71   36  113 1    
    72   36  114 1    
    73   36  115 1    
    74   37   38 am   BACKBONE|DICT|INTERRES
    75   37  116 1    
    76   38   39 2    
    77   38   40 1    
    78   40   41 1    
    79   40   42 1    
    80   40  117 1    
    81   41  118 1    
    82   41  119 1    
    83   41  120 1    
    84   42   43 am   BACKBONE|DICT|INTERRES
    85   42  121 1    
    86   43   44 2    
    87   43   45 1    
    88   45   46 1    
    89   45   47 1    
    90   45  122 1    
    91   46  123 1    
    92   46  124 1    
    93   46  125 1    
    94   47   48 am   BACKBONE|DICT|INTERRES
    95   47  126 1    
    96   48   49 2    
    97   48   50 1    
    98   50   51 1    
    99   50   52 1    
   100   50  127 1    
   101   51  128 1    
   102   51  129 1    
   103   51  130 1    
   104   52   53 am   BACKBONE|DICT|INTERRES
   105   52  131 1    
   106   53   54 2    
   107   53   55 1    
   108   55   56 1    
   109   55   59 1    
   110   55  132 1    
   111   56   57 1    
   112   56  133 1    
   113   56  134 1    
   114   57   58 1    
   115   58  135 1    
   116   58  136 1    
   117   59   60 am   BACKBONE|DICT|INTERRES
   118   59  137 1    
   119   60   61 2    
   120   60   62 1    
   121   62   63 1    
   122   62   64 1    
   123   62  138 1    
   124   63  139 1    
   125   63  140 1    
   126   63  141 1    
   127   64   65 am   BACKBONE|DICT|INTERRES
   128   64  142 1    
   129   65   66 2    
   130   65   67 1    
   131   67   68 1    
   132   67   69 1    
   133   67  143 1    
   134   68  144 1    
   135   68  145 1    
   136   68  146 1    
   137   69   70 am   BACKBONE|DICT|INTERRES
   138   69  147 1    
   139   70   71 2    
   140   70   72 1    
   141   72   73 1    
   142   72   74 1    
   143   72  148 1    
   144   73  149 1    
   145   73  150 1    
   146   73  151 1    
   147   74   75 am   BACKBONE|DICT|INTERRES
   148   74  152 1    
   149   75   76 2    
   150   75   77 1    
   151   77   78 1    
   152   77   79 1    
   153   77  153 1    
   154   78  154 1    
   155   78  155 1    
   156   78  156 1    
   157   79   80 am   BACKBONE|DICT|INTERRES
   158   79  157 1    
   159   80   81 2    
@<TRIPOS>SUBSTRUCTURE
     1 UNK         1 GROUP             0       ****    0 ROOT    
