@<TRIPOS>MOLECULE
3R207
157   159    1
SMALL
USER_CHARGES


@<TRIPOS>ATOM
      1 CA        -43.6199  -26.8521    7.6349 C.3       0 UNK        -0.1975 
      2 C         -45.0333  -27.1558    7.1616 C.2       0 UNK         0.4852 
      3 O         -45.3475  -26.9287    5.9919 O.2       0 UNK        -0.5216 
      4 N         -45.8817  -27.6631    8.0669 N.am      1 UNK        -0.4461 
      5 CA        -47.2896  -28.0235    7.8600 C.3       1 UNK         0.0864 
      6 C6        -47.9362  -28.4854    9.1866 C.3       14 UNK        -0.0898 
      7 S7        -47.3982  -30.1524    9.6879 S.3       14 UNK        -0.2598 
      8 C8        -48.5252  -31.2224    8.7283 C.3       14 UNK         0.0286 
      9 C9        -49.9945  -30.8639    8.9171 C.ar      14 UNK        -0.0844 
     10 C10       -50.7145  -30.2709    7.8731 C.ar      14 UNK        -0.0881 
     11 C11       -52.0600  -29.9344    8.0427 C.ar      14 UNK        -0.0643 
     12 C12       -52.6896  -30.2210    9.2569 C.ar      14 UNK        -0.0930 
     13 C13       -51.9777  -30.7864   10.3183 C.ar      14 UNK        -0.0827 
     14 C14       -50.6292  -31.1109   10.1387 C.ar      14 UNK        -0.1249 
     15 C15       -52.6639  -31.0619   11.6511 C.3       14 UNK         0.0141 
     16 S16       -53.1553  -29.5288   12.5107 S.3       14 UNK        -0.2313 
     17 C17       -54.9180  -29.4085   12.0419 C.3       14 UNK        -0.0915 
     18 CA        -55.7356  -28.3362   12.8088 C.3       13 UNK         0.0968 
     19 C         -55.8344  -28.6126   14.3362 C.2       13 UNK         0.5732 
     20 N         -56.5536  -29.6571   14.7267 N.am      13 UNK        -0.7310 
     21 O         -55.2614  -27.9129   15.1678 O.2       13 UNK        -0.5035 
     22 N         -55.2877  -26.9769   12.4802 N.am      13 UNK        -0.4233 
     23 C         -56.0388  -25.8781   12.6136 C.2       13 UNK         0.4989 
     24 O         -57.2200  -25.8917   12.9688 O.2       13 UNK        -0.4996 
     25 CA        -55.3426  -24.5445   12.2806 C.3       12 UNK         0.0216 
     26 CB        -56.3117  -23.3423   12.2488 C.3       12 UNK        -0.1964 
     27 N         -54.2058  -24.2807   13.1717 N.am      12 UNK        -0.4276 
     28 C         -54.2359  -24.1411   14.5055 C.2       12 UNK         0.5020 
     29 O         -55.2614  -24.1617   15.1910 O.2       12 UNK        -0.5489 
     30 CA        -52.8871  -23.8743   15.1910 C.3       11 UNK         0.0294 
     31 CB        -52.6693  -22.3655   15.3899 C.3       11 UNK        -0.2019 
     32 N         -52.8336  -24.5457   16.4897 N.am      11 UNK        -0.4493 
     33 C         -52.5205  -25.8356   16.6492 C.2       11 UNK         0.4932 
     34 O         -52.1255  -26.5653   15.7337 O.2       11 UNK        -0.5029 
     35 CA        -52.6559  -26.4018   18.0703 C.3       10 UNK         0.0280 
     36 CB        -54.1307  -26.5725   18.4735 C.3       10 UNK        -0.1976 
     37 N         -51.9954  -27.6999   18.0881 N.am      10 UNK        -0.4242 
     38 C         -51.2096  -28.1894   19.0515 C.2       10 UNK         0.5072 
     39 O         -51.0703  -27.6696   20.1596 O.2       10 UNK        -0.5224 
     40 CA        -50.4240  -29.4721   18.7082 C.3       9 UNK         0.0343 
     41 CB        -51.1506  -30.7117   19.2549 C.3       9 UNK        -0.2003 
     42 N         -50.1905  -29.6446   17.2672 N.am      9 UNK        -0.4272 
     43 C         -49.4197  -28.8436   16.5159 C.2       9 UNK         0.4988 
     44 O         -48.7547  -27.9133   16.9742 O.2       9 UNK        -0.5108 
     45 CA        -49.4077  -29.0836   15.0006 C.3       8 UNK         0.0248 
     46 CB        -50.1036  -30.3821   14.5404 C.3       8 UNK        -0.2001 
     47 N         -50.0399  -27.9291   14.3692 N.am      8 UNK        -0.4140 
     48 C         -49.6761  -27.3863   13.2059 C.2       8 UNK         0.5028 
     49 O         -48.7592  -27.8080   12.4975 O.2       8 UNK        -0.5428 
     50 CA        -50.4401  -26.1263   12.7850 C.3       7 UNK         0.0264 
     51 CB        -49.6807  -24.8654   13.2302 C.3       7 UNK        -0.1988 
     52 N         -50.5710  -26.1097   11.3329 N.am      7 UNK        -0.4454 
     53 C         -51.7163  -26.2912   10.6672 C.2       7 UNK         0.5027 
     54 O         -52.8201  -26.3738   11.2072 O.2       7 UNK        -0.5083 
     55 CA        -51.5860  -26.3534    9.1349 C.3       6 UNK         0.0844 
     56 C56       -52.8713  -26.8342    8.4074 C.3       14 UNK        -0.0967 
     57 S57       -52.4593  -27.4871    6.7510 S.3       14 UNK        -0.2604 
     58 C58       -52.8406  -29.2653    6.9174 C.3       14 UNK         0.0134 
     59 N         -51.0587  -25.0871    8.6146 N.am      6 UNK        -0.4116 
     60 C         -51.6491  -23.8831    8.6804 C.2       5 UNK         0.5034 
     61 O         -52.7583  -23.6872    9.1807 O.2       5 UNK        -0.5045 
     62 CA        -50.8774  -22.6994    8.0632 C.3       5 UNK         0.0224 
     63 CB        -51.3772  -21.3256    8.5610 C.3       5 UNK        -0.1978 
     64 N         -49.4203  -22.8119    8.2030 N.am      5 UNK        -0.4737 
     65 C         -48.6999  -22.8199    9.3372 C.2       4 UNK         0.5027 
     66 O         -49.1930  -22.6979   10.4581 O.2       4 UNK        -0.5211 
     67 CA        -47.1743  -23.0110    9.2055 C.3       4 UNK         0.0297 
     68 CB        -46.6466  -24.0305   10.2326 C.3       4 UNK        -0.1993 
     69 N         -46.8068  -23.4645    7.8625 N.am      4 UNK        -0.4486 
     70 C         -46.3117  -22.6949    6.8831 C.2       3 UNK         0.4961 
     71 O         -45.9966  -21.5148    7.0345 O.2       3 UNK        -0.5105 
     72 CA        -46.1681  -23.3332    5.4863 C.3       3 UNK         0.0299 
     73 CB        -44.6977  -23.6671    5.1899 C.3       3 UNK        -0.1972 
     74 N         -46.9924  -24.5348    5.3071 N.am      3 UNK        -0.4305 
     75 C         -48.3315  -24.5204    5.2052 C.2       2 UNK         0.5006 
     76 O         -48.9995  -23.4866    5.1960 O.2       2 UNK        -0.5106 
     77 CA        -49.0620  -25.8767    5.1864 C.3       2 UNK         0.0296 
     78 CB        -49.2854  -26.3527    3.7431 C.3       2 UNK        -0.2002 
     79 N         -48.3792  -26.9270    5.9482 N.am      2 UNK        -0.4032 
     80 C         -48.0974  -26.8597    7.2567 C.2       1 UNK         0.5000 
     81 O         -48.4156  -25.9082    7.9726 O.2       1 UNK        -0.5238 
     82 H82       -43.3995  -27.3336    8.5874 H         1 UNK         0.0889 
     83 H83       -43.4863  -25.7779    7.7576 H         1 UNK         0.0889 
     84 H84       -42.8941  -27.2060    6.9033 H         1 UNK         0.0889 
     85 H85       -45.5451  -27.8232    9.0056 H         1 UNK         0.3028 
     86 H86       -47.3165  -28.8519    7.1496 H         1 UNK         0.0864 
     87 H87       -47.6856  -27.7915    9.9911 H         1 UNK         0.0720 
     88 H88       -49.0230  -28.4697    9.1363 H         1 UNK         0.0720 
     89 H89       -48.2492  -31.1728    7.6741 H         1 UNK         0.0814 
     90 H90       -48.3681  -32.2584    9.0316 H         1 UNK         0.0814 
     91 H91       -50.2288  -30.0587    6.9305 H         1 UNK         0.1469 
     92 H92       -53.7354  -29.9857    9.3785 H         1 UNK         0.1381 
     93 H93       -50.0665  -31.5523   10.9499 H         1 UNK         0.1206 
     94 H94       -53.5301  -31.7045   11.4896 H         1 UNK         0.0813 
     95 H95       -51.9979  -31.6206   12.3098 H         1 UNK         0.0813 
     96 H96       -54.9798  -29.1946   10.9761 H         1 UNK         0.0638 
     97 H97       -55.3801  -30.3880   12.1746 H         1 UNK         0.0638 
     98 H98       -56.7583  -28.4135   12.4340 H         1 UNK         0.0568 
     99 H99       -56.6243  -29.8578   15.7115 H         1 UNK         0.3450 
    100 H100      -57.0267  -30.2462   14.0599 H         1 UNK         0.3450 
    101 H101      -54.3218  -26.8796   12.1739 H         1 UNK         0.2987 
    102 H102      -54.9298  -24.6513   11.2758 H         1 UNK         0.0766 
    103 H103      -57.1076  -23.5052   11.5212 H         1 UNK         0.0798 
    104 H104      -55.7953  -22.4256   11.9641 H         1 UNK         0.0798 
    105 H105      -56.7869  -23.1732   13.2155 H         1 UNK         0.0798 
    106 H106      -53.3071  -24.2728   12.7086 H         1 UNK         0.3198 
    107 H107      -52.0839  -24.2534   14.5596 H         1 UNK         0.0843 
    108 H108      -53.4488  -21.9224   16.0112 H         1 UNK         0.0831 
    109 H109      -52.6787  -21.8410   14.4334 H         1 UNK         0.0831 
    110 H110      -51.7071  -22.1618   15.8603 H         1 UNK         0.0831 
    111 H111      -53.1973  -24.0298   17.2780 H         1 UNK         0.3133 
    112 H112      -52.1585  -25.7179   18.7613 H         1 UNK         0.0566 
    113 H113      -54.6610  -27.2308   17.7841 H         1 UNK         0.0814 
    114 H114      -54.6539  -25.6157   18.4766 H         1 UNK         0.0814 
    115 H115      -54.2206  -26.9945   19.4745 H         1 UNK         0.0814 
    116 H116      -52.0019  -28.1656   17.1901 H         1 UNK         0.3091 
    117 H117      -49.4514  -29.4004   19.1996 H         1 UNK         0.0702 
    118 H118      -50.5689  -31.6187   19.0894 H         1 UNK         0.0785 
    119 H119      -52.1271  -30.8469   18.7880 H         1 UNK         0.0785 
    120 H120      -51.3132  -30.6251   20.3303 H         1 UNK         0.0785 
    121 H121      -50.6934  -30.3928   16.8119 H         1 UNK         0.2998 
    122 H122      -48.3576  -29.1331   14.7050 H         1 UNK         0.0697 
    123 H123      -51.1712  -30.3787   14.7633 H         1 UNK         0.0825 
    124 H124      -49.6596  -31.2603   15.0109 H         1 UNK         0.0825 
    125 H125      -49.9974  -30.5123   13.4630 H         1 UNK         0.0825 
    126 H126      -50.7805  -27.4752   14.9041 H         1 UNK         0.3029 
    127 H127      -51.4248  -26.1388   13.2549 H         1 UNK         0.0897 
    128 H128      -48.6725  -24.8344   12.8146 H         1 UNK         0.0792 
    129 H129      -49.5886  -24.8277   14.3165 H         1 UNK         0.0792 
    130 H130      -50.1953  -23.9583   12.9124 H         1 UNK         0.0792 
    131 H131      -49.7013  -26.0948   10.8190 H         1 UNK         0.3086 
    132 H132      -50.8153  -27.1009    8.9509 H         1 UNK         0.0583 
    133 H133      -53.3851  -27.6059    8.9800 H         1 UNK         0.1020 
    134 H134      -53.5967  -26.0264    8.3054 H         1 UNK         0.1020 
    135 H135      -53.9143  -29.3846    7.0712 H         1 UNK         0.0694 
    136 H136      -52.6133  -29.7628    5.9736 H         1 UNK         0.0694 
    137 H137      -50.1155  -25.1431    8.2405 H         1 UNK         0.2989 
    138 H138      -51.0793  -22.7481    6.9918 H         1 UNK         0.1055 
    139 H139      -51.2805  -21.2264    9.6426 H         1 UNK         0.0806 
    140 H140      -52.4300  -21.1801    8.3161 H         1 UNK         0.0806 
    141 H141      -50.8232  -20.5095    8.0974 H         1 UNK         0.0806 
    142 H142      -48.9203  -22.9269    7.3295 H         1 UNK         0.3061 
    143 H143      -46.7106  -22.0454    9.4170 H         1 UNK         0.0734 
    144 H144      -47.1299  -25.0022   10.1264 H         1 UNK         0.0832 
    145 H145      -45.5716  -24.1778   10.1290 H         1 UNK         0.0832 
    146 H146      -46.8276  -23.6882   11.2522 H         1 UNK         0.0832 
    147 H147      -47.0924  -24.4131    7.6437 H         1 UNK         0.3156 
    148 H148      -46.4954  -22.5905    4.7555 H         1 UNK         0.0589 
    149 H149      -44.2919  -24.3811    5.9055 H         1 UNK         0.0808 
    150 H150      -44.5784  -24.0879    4.1913 H         1 UNK         0.0808 
    151 H151      -44.0777  -22.7710    5.2396 H         1 UNK         0.0808 
    152 H152      -46.5086  -25.4286    5.3464 H         1 UNK         0.3098 
    153 H153      -50.0398  -25.7236    5.6481 H         1 UNK         0.0720 
    154 H154      -49.8912  -27.2588    3.7143 H         1 UNK         0.0791 
    155 H155      -48.3427  -26.5598    3.2347 H         1 UNK         0.0791 
    156 H156      -49.8117  -25.5956    3.1599 H         1 UNK         0.0791 
    157 H157      -48.0391  -27.7171    5.4187 H         1 UNK         0.3028 
@<TRIPOS>BOND
     1    1    2 1    
     2    1   82 1    
     3    1   83 1    
     4    1   84 1    
     5    2    3 2    
     6    2    4 am   BACKBONE|DICT|INTERRES
     7    4    5 1    
     8    4   85 1    
     9    5    6 1    
    10    5   80 1    
    11    5   86 1    
    12    6    7 1    
    13    6   87 1    
    14    6   88 1    
    15    7    8 1    
    16    8    9 1    
    17    8   89 1    
    18    8   90 1    
    19    9   10 ar   
    20    9   14 ar   
    21   10   11 ar   
    22   10   91 1    
    23   11   12 ar   
    24   11   58 1    
    25   12   13 ar   
    26   12   92 1    
    27   13   14 ar   
    28   13   15 1    
    29   14   93 1    
    30   15   16 1    
    31   15   94 1    
    32   15   95 1    
    33   16   17 1    
    34   17   18 1    
    35   17   96 1    
    36   17   97 1    
    37   18   19 1    
    38   18   22 1    
    39   18   98 1    
    40   19   20 am   BACKBONE|DICT|INTERRES
    41   19   21 2    
    42   20   99 1    
    43   20  100 1    
    44   22   23 am   BACKBONE|DICT|INTERRES
    45   22  101 1    
    46   23   24 2    
    47   23   25 1    
    48   25   26 1    
    49   25   27 1    
    50   25  102 1    
    51   26  103 1    
    52   26  104 1    
    53   26  105 1    
    54   27   28 am   BACKBONE|DICT|INTERRES
    55   27  106 1    
    56   28   29 2    
    57   28   30 1    
    58   30   31 1    
    59   30   32 1    
    60   30  107 1    
    61   31  108 1    
    62   31  109 1    
    63   31  110 1    
    64   32   33 am   BACKBONE|DICT|INTERRES
    65   32  111 1    
    66   33   34 2    
    67   33   35 1    
    68   35   36 1    
    69   35   37 1    
    70   35  112 1    
    71   36  113 1    
    72   36  114 1    
    73   36  115 1    
    74   37   38 am   BACKBONE|DICT|INTERRES
    75   37  116 1    
    76   38   39 2    
    77   38   40 1    
    78   40   41 1    
    79   40   42 1    
    80   40  117 1    
    81   41  118 1    
    82   41  119 1    
    83   41  120 1    
    84   42   43 am   BACKBONE|DICT|INTERRES
    85   42  121 1    
    86   43   44 2    
    87   43   45 1    
    88   45   46 1    
    89   45   47 1    
    90   45  122 1    
    91   46  123 1    
    92   46  124 1    
    93   46  125 1    
    94   47   48 am   BACKBONE|DICT|INTERRES
    95   47  126 1    
    96   48   49 2    
    97   48   50 1    
    98   50   51 1    
    99   50   52 1    
   100   50  127 1    
   101   51  128 1    
   102   51  129 1    
   103   51  130 1    
   104   52   53 am   BACKBONE|DICT|INTERRES
   105   52  131 1    
   106   53   54 2    
   107   53   55 1    
   108   55   56 1    
   109   55   59 1    
   110   55  132 1    
   111   56   57 1    
   112   56  133 1    
   113   56  134 1    
   114   57   58 1    
   115   58  135 1    
   116   58  136 1    
   117   59   60 am   BACKBONE|DICT|INTERRES
   118   59  137 1    
   119   60   61 2    
   120   60   62 1    
   121   62   63 1    
   122   62   64 1    
   123   62  138 1    
   124   63  139 1    
   125   63  140 1    
   126   63  141 1    
   127   64   65 am   BACKBONE|DICT|INTERRES
   128   64  142 1    
   129   65   66 2    
   130   65   67 1    
   131   67   68 1    
   132   67   69 1    
   133   67  143 1    
   134   68  144 1    
   135   68  145 1    
   136   68  146 1    
   137   69   70 am   BACKBONE|DICT|INTERRES
   138   69  147 1    
   139   70   71 2    
   140   70   72 1    
   141   72   73 1    
   142   72   74 1    
   143   72  148 1    
   144   73  149 1    
   145   73  150 1    
   146   73  151 1    
   147   74   75 am   BACKBONE|DICT|INTERRES
   148   74  152 1    
   149   75   76 2    
   150   75   77 1    
   151   77   78 1    
   152   77   79 1    
   153   77  153 1    
   154   78  154 1    
   155   78  155 1    
   156   78  156 1    
   157   79   80 am   BACKBONE|DICT|INTERRES
   158   79  157 1    
   159   80   81 2    
@<TRIPOS>SUBSTRUCTURE
     1 UNK         1 GROUP             0       ****    0 ROOT    
