@<TRIPOS>MOLECULE
3R207
157   159    1
SMALL
USER_CHARGES


@<TRIPOS>ATOM
      1 CA        -54.7607  -23.5178   11.6588 C.3       0 UNK        -0.1975 
      2 C         -53.6399  -24.0515   10.7789 C.2       0 UNK         0.4852 
      3 O         -52.4840  -24.0478   11.1965 O.2       0 UNK        -0.5216 
      4 N         -53.9789  -24.5107    9.5670 N.am      1 UNK        -0.4461 
      5 CA        -53.0431  -25.0568    8.5789 C.3       1 UNK         0.0864 
      6 C6        -53.8142  -25.7427    7.4204 C.3       14 UNK        -0.0898 
      7 S7        -52.7880  -26.8999    6.4470 S.3       14 UNK        -0.2598 
      8 C8        -53.7766  -28.4402    6.4672 C.3       14 UNK         0.0286 
      9 C9        -53.3040  -29.5260    7.4383 C.ar      14 UNK        -0.0844 
     10 C10       -52.4200  -29.2751    8.4972 C.ar      14 UNK        -0.0881 
     11 C11       -51.9769  -30.3133    9.3251 C.ar      14 UNK        -0.0643 
     12 C12       -52.4410  -31.6118    9.0986 C.ar      14 UNK        -0.0930 
     13 C13       -53.3435  -31.8764    8.0656 C.ar      14 UNK        -0.0827 
     14 C14       -53.7726  -30.8298    7.2455 C.ar      14 UNK        -0.1249 
     15 C15       -53.8104  -33.3019    7.8024 C.3       14 UNK         0.0141 
     16 S16       -54.7401  -34.0079    9.1998 S.3       14 UNK        -0.2313 
     17 C17       -56.3484  -33.1460    9.0861 C.3       14 UNK        -0.0915 
     18 CA        -56.6978  -32.2974   10.3381 C.3       13 UNK         0.0968 
     19 C         -56.9026  -33.1770   11.6093 C.2       13 UNK         0.5732 
     20 N         -56.0705  -33.0673   12.6383 N.am      13 UNK        -0.7310 
     21 O         -57.8434  -33.9659   11.6629 O.2       13 UNK        -0.5035 
     22 N         -55.7827  -31.1541   10.4809 N.am      13 UNK        -0.4233 
     23 C         -55.9986  -30.0938   11.2680 C.2       13 UNK         0.4989 
     24 O         -56.9853  -29.9508   11.9946 O.2       13 UNK        -0.4996 
     25 CA        -54.9483  -28.9850   11.2050 C.3       12 UNK         0.0216 
     26 CB        -55.2490  -28.0141   10.0520 C.3       12 UNK        -0.1964 
     27 N         -54.9341  -28.2562   12.4676 N.am      12 UNK        -0.4276 
     28 C         -53.9013  -27.5458   12.9282 C.2       12 UNK         0.5020 
     29 O         -52.8216  -27.4384   12.3436 O.2       12 UNK        -0.5489 
     30 CA        -54.1040  -26.8561   14.2791 C.3       11 UNK         0.0294 
     31 CB        -53.8681  -27.8372   15.4414 C.3       11 UNK        -0.2019 
     32 N         -53.1669  -25.7437   14.3867 N.am      11 UNK        -0.4493 
     33 C         -53.3785  -24.6188   15.0783 C.2       11 UNK         0.4932 
     34 O         -54.4233  -24.3719   15.6838 O.2       11 UNK        -0.5029 
     35 CA        -52.2062  -23.6232   15.1122 C.3       10 UNK         0.0280 
     36 CB        -52.4553  -22.4020   16.0219 C.3       10 UNK        -0.1976 
     37 N         -50.9525  -24.2990   15.4556 N.am      10 UNK        -0.4242 
     38 C         -50.6406  -24.9493   16.5870 C.2       10 UNK         0.5072 
     39 O         -51.3554  -24.9894   17.5894 O.2       10 UNK        -0.5224 
     40 CA        -49.2978  -25.7033   16.5972 C.3       9 UNK         0.0343 
     41 CB        -49.5054  -27.1624   16.1586 C.3       9 UNK        -0.2003 
     42 N         -48.2845  -25.0797   15.7415 N.am      9 UNK        -0.4272 
     43 C         -47.6841  -23.9106   16.0090 C.2       9 UNK         0.4988 
     44 O         -47.8422  -23.2822   17.0565 O.2       9 UNK        -0.5108 
     45 CA        -46.7714  -23.3298   14.9157 C.3       8 UNK         0.0248 
     46 CB        -45.3791  -23.9792   14.9636 C.3       8 UNK        -0.2001 
     47 N         -47.3407  -23.4626   13.5712 N.am      8 UNK        -0.4140 
     48 C         -48.4566  -22.8465   13.1524 C.2       8 UNK         0.5028 
     49 O         -49.0942  -22.0453   13.8359 O.2       8 UNK        -0.5428 
     50 CA        -48.9642  -23.1905   11.7415 C.3       7 UNK         0.0264 
     51 CB        -48.2503  -22.3266   10.6915 C.3       7 UNK        -0.1988 
     52 N         -48.8263  -24.6095   11.3987 N.am      7 UNK        -0.4454 
     53 C         -49.4471  -25.6088   12.0455 C.2       7 UNK         0.5027 
     54 O         -50.2184  -25.4393   12.9891 O.2       7 UNK        -0.5083 
     55 CA        -49.0772  -27.0456   11.6318 C.3       6 UNK         0.0844 
     56 C56       -49.8148  -27.4879   10.3465 C.3       14 UNK        -0.0967 
     57 S57       -49.4739  -29.2342    9.9345 S.3       14 UNK        -0.2604 
     58 C58       -51.0120  -30.0469   10.4762 C.3       14 UNK         0.0134 
     59 N         -47.6225  -27.2155   11.5518 N.am      6 UNK        -0.4116 
     60 C         -46.8063  -27.1578   12.6126 C.2       5 UNK         0.5034 
     61 O         -47.1860  -26.9312   13.7615 O.2       5 UNK        -0.5045 
     62 CA        -45.3076  -27.3725   12.3538 C.3       5 UNK         0.0224 
     63 CB        -44.9940  -28.8714   12.2170 C.3       5 UNK        -0.1978 
     64 N         -44.7639  -26.6503   11.1978 N.am      5 UNK        -0.4737 
     65 C         -44.8171  -25.3230   11.0132 C.2       4 UNK         0.5027 
     66 O         -45.4870  -24.5588   11.7055 O.2       4 UNK        -0.5211 
     67 CA        -43.9613  -24.7529    9.8742 C.3       4 UNK         0.0297 
     68 CB        -42.5613  -25.3943    9.8043 C.3       4 UNK        -0.1993 
     69 N         -44.6460  -24.9332    8.5976 N.am      4 UNK        -0.4486 
     70 C         -45.3825  -23.9987    7.9859 C.2       3 UNK         0.4961 
     71 O         -45.5230  -22.8489    8.4069 O.2       3 UNK        -0.5105 
     72 CA        -46.0550  -24.3921    6.6546 C.3       3 UNK         0.0299 
     73 CB        -45.9948  -25.9036    6.3271 C.3       3 UNK        -0.1972 
     74 N         -47.4347  -23.9006    6.5769 N.am      3 UNK        -0.4305 
     75 C         -48.4482  -24.2277    7.3907 C.2       2 UNK         0.5006 
     76 O         -48.3426  -25.0085    8.3409 O.2       2 UNK        -0.5106 
     77 CA        -49.8099  -23.5774    7.0928 C.3       2 UNK         0.0296 
     78 CB        -50.0946  -23.4290    5.5810 C.3       2 UNK        -0.2002 
     79 N         -50.8543  -24.3840    7.7160 N.am      2 UNK        -0.4032 
     80 C         -52.0835  -23.9714    8.0407 C.2       1 UNK         0.5000 
     81 O         -52.4866  -22.8149    7.8820 O.2       1 UNK        -0.5238 
     82 H82       -54.9859  -24.2308   12.4509 H         1 UNK         0.0889 
     83 H83       -55.6733  -23.3396   11.0905 H         1 UNK         0.0889 
     84 H84       -54.4616  -22.5772   12.1208 H         1 UNK         0.0889 
     85 H85       -54.9400  -24.4415    9.2665 H         1 UNK         0.3028 
     86 H86       -52.4500  -25.8114    9.1002 H         1 UNK         0.0864 
     87 H87       -54.6685  -26.2894    7.8183 H         1 UNK         0.0720 
     88 H88       -54.2406  -25.0012    6.7415 H         1 UNK         0.0720 
     89 H89       -53.7391  -28.8486    5.4562 H         1 UNK         0.0814 
     90 H90       -54.8274  -28.2186    6.6550 H         1 UNK         0.0814 
     91 H91       -52.0591  -28.2751    8.6777 H         1 UNK         0.1469 
     92 H92       -52.1007  -32.4244    9.7264 H         1 UNK         0.1381 
     93 H93       -54.4578  -31.0350    6.4339 H         1 UNK         0.1206 
     94 H94       -54.4183  -33.3595    6.8981 H         1 UNK         0.0813 
     95 H95       -52.9349  -33.9260    7.6177 H         1 UNK         0.0813 
     96 H96       -57.1209  -33.8973    8.9127 H         1 UNK         0.0638 
     97 H97       -56.3588  -32.5109    8.1990 H         1 UNK         0.0638 
     98 H98       -57.6803  -31.8625   10.1448 H         1 UNK         0.0568 
     99 H99       -56.2181  -33.6386   13.4550 H         1 UNK         0.3450 
    100 H100      -55.2937  -32.4284   12.6010 H         1 UNK         0.3450 
    101 H101      -54.9445  -31.1945    9.9175 H         1 UNK         0.2987 
    102 H102      -53.9742  -29.4501   11.0523 H         1 UNK         0.0766 
    103 H103      -54.4292  -27.3094    9.9260 H         1 UNK         0.0798 
    104 H104      -56.1617  -27.4442   10.2296 H         1 UNK         0.0798 
    105 H105      -55.3744  -28.5447    9.1085 H         1 UNK         0.0798 
    106 H106      -55.7797  -28.3550   13.0168 H         1 UNK         0.3198 
    107 H107      -55.1277  -26.4770   14.3189 H         1 UNK         0.0843 
    108 H108      -52.8534  -28.2376   15.4272 H         1 UNK         0.0831 
    109 H109      -54.5553  -28.6826   15.3908 H         1 UNK         0.0831 
    110 H110      -54.0213  -27.3530   16.4062 H         1 UNK         0.0831 
    111 H111      -52.3195  -25.8457   13.8328 H         1 UNK         0.3133 
    112 H112      -52.0824  -23.2565   14.0919 H         1 UNK         0.0566 
    113 H113      -51.6049  -21.7202   16.0062 H         1 UNK         0.0814 
    114 H114      -53.3284  -21.8408   15.6875 H         1 UNK         0.0814 
    115 H115      -52.6339  -22.6935   17.0572 H         1 UNK         0.0814 
    116 H116      -50.3269  -24.4348   14.6669 H         1 UNK         0.3091 
    117 H117      -48.9241  -25.7042   17.6233 H         1 UNK         0.0702 
    118 H118      -48.5776  -27.7313   16.2225 H         1 UNK         0.0785 
    119 H119      -49.8660  -27.2270   15.1310 H         1 UNK         0.0785 
    120 H120      -50.2383  -27.6615   16.7939 H         1 UNK         0.0785 
    121 H121      -48.0430  -25.5729   14.8860 H         1 UNK         0.2998 
    122 H122      -46.6523  -22.2632   15.1176 H         1 UNK         0.0697 
    123 H123      -45.4229  -25.0466   14.7468 H         1 UNK         0.0825 
    124 H124      -44.9285  -23.8644   15.9502 H         1 UNK         0.0825 
    125 H125      -44.7027  -23.5198   14.2426 H         1 UNK         0.0825 
    126 H126      -46.8253  -24.0402   12.9095 H         1 UNK         0.3029 
    127 H127      -50.0292  -22.9499   11.7129 H         1 UNK         0.0897 
    128 H128      -48.7099  -22.4377    9.7117 H         1 UNK         0.0792 
    129 H129      -48.3038  -21.2685   10.9514 H         1 UNK         0.0792 
    130 H130      -47.1954  -22.5889   10.6020 H         1 UNK         0.0792 
    131 H131      -48.2166  -24.8335   10.6219 H         1 UNK         0.3086 
    132 H132      -49.4284  -27.6967   12.4362 H         1 UNK         0.0583 
    133 H133      -50.8895  -27.3368   10.4622 H         1 UNK         0.1020 
    134 H134      -49.5157  -26.8795    9.4954 H         1 UNK         0.1020 
    135 H135      -50.7349  -30.9845   10.9602 H         1 UNK         0.0694 
    136 H136      -51.5075  -29.4532   11.2439 H         1 UNK         0.0694 
    137 H137      -47.2323  -27.4024   10.6403 H         1 UNK         0.2989 
    138 H138      -44.7808  -27.0003   13.2351 H         1 UNK         0.1055 
    139 H139      -45.3749  -29.4298   13.0737 H         1 UNK         0.0806 
    140 H140      -43.9197  -29.0506   12.1704 H         1 UNK         0.0806 
    141 H141      -45.4462  -29.3008   11.3220 H         1 UNK         0.0806 
    142 H142      -44.1930  -27.1918   10.5655 H         1 UNK         0.3061 
    143 H143      -43.8202  -23.6894   10.0803 H         1 UNK         0.0734 
    144 H144      -41.9275  -24.8651    9.0925 H         1 UNK         0.0832 
    145 H145      -42.0611  -25.3481   10.7729 H         1 UNK         0.0832 
    146 H146      -42.5924  -26.4404    9.4986 H         1 UNK         0.0832 
    147 H147      -44.6112  -25.8541    8.1853 H         1 UNK         0.3156 
    148 H148      -45.5027  -23.8668    5.8741 H         1 UNK         0.0589 
    149 H149      -46.4700  -26.5123    7.0976 H         1 UNK         0.0808 
    150 H150      -46.5004  -26.1178    5.3854 H         1 UNK         0.0808 
    151 H151      -44.9659  -26.2471    6.2140 H         1 UNK         0.0808 
    152 H152      -47.6118  -23.2200    5.8519 H         1 UNK         0.3098 
    153 H153      -49.8064  -22.5883    7.5545 H         1 UNK         0.0720 
    154 H154      -50.0238  -24.3871    5.0640 H         1 UNK         0.0791 
    155 H155      -49.3973  -22.7400    5.1040 H         1 UNK         0.0791 
    156 H156      -51.0937  -23.0318    5.4009 H         1 UNK         0.0791 
    157 H157      -50.5763  -25.3360    7.9129 H         1 UNK         0.3028 
@<TRIPOS>BOND
     1    1    2 1    
     2    1   82 1    
     3    1   83 1    
     4    1   84 1    
     5    2    3 2    
     6    2    4 am   BACKBONE|DICT|INTERRES
     7    4    5 1    
     8    4   85 1    
     9    5    6 1    
    10    5   80 1    
    11    5   86 1    
    12    6    7 1    
    13    6   87 1    
    14    6   88 1    
    15    7    8 1    
    16    8    9 1    
    17    8   89 1    
    18    8   90 1    
    19    9   10 ar   
    20    9   14 ar   
    21   10   11 ar   
    22   10   91 1    
    23   11   12 ar   
    24   11   58 1    
    25   12   13 ar   
    26   12   92 1    
    27   13   14 ar   
    28   13   15 1    
    29   14   93 1    
    30   15   16 1    
    31   15   94 1    
    32   15   95 1    
    33   16   17 1    
    34   17   18 1    
    35   17   96 1    
    36   17   97 1    
    37   18   19 1    
    38   18   22 1    
    39   18   98 1    
    40   19   20 am   BACKBONE|DICT|INTERRES
    41   19   21 2    
    42   20   99 1    
    43   20  100 1    
    44   22   23 am   BACKBONE|DICT|INTERRES
    45   22  101 1    
    46   23   24 2    
    47   23   25 1    
    48   25   26 1    
    49   25   27 1    
    50   25  102 1    
    51   26  103 1    
    52   26  104 1    
    53   26  105 1    
    54   27   28 am   BACKBONE|DICT|INTERRES
    55   27  106 1    
    56   28   29 2    
    57   28   30 1    
    58   30   31 1    
    59   30   32 1    
    60   30  107 1    
    61   31  108 1    
    62   31  109 1    
    63   31  110 1    
    64   32   33 am   BACKBONE|DICT|INTERRES
    65   32  111 1    
    66   33   34 2    
    67   33   35 1    
    68   35   36 1    
    69   35   37 1    
    70   35  112 1    
    71   36  113 1    
    72   36  114 1    
    73   36  115 1    
    74   37   38 am   BACKBONE|DICT|INTERRES
    75   37  116 1    
    76   38   39 2    
    77   38   40 1    
    78   40   41 1    
    79   40   42 1    
    80   40  117 1    
    81   41  118 1    
    82   41  119 1    
    83   41  120 1    
    84   42   43 am   BACKBONE|DICT|INTERRES
    85   42  121 1    
    86   43   44 2    
    87   43   45 1    
    88   45   46 1    
    89   45   47 1    
    90   45  122 1    
    91   46  123 1    
    92   46  124 1    
    93   46  125 1    
    94   47   48 am   BACKBONE|DICT|INTERRES
    95   47  126 1    
    96   48   49 2    
    97   48   50 1    
    98   50   51 1    
    99   50   52 1    
   100   50  127 1    
   101   51  128 1    
   102   51  129 1    
   103   51  130 1    
   104   52   53 am   BACKBONE|DICT|INTERRES
   105   52  131 1    
   106   53   54 2    
   107   53   55 1    
   108   55   56 1    
   109   55   59 1    
   110   55  132 1    
   111   56   57 1    
   112   56  133 1    
   113   56  134 1    
   114   57   58 1    
   115   58  135 1    
   116   58  136 1    
   117   59   60 am   BACKBONE|DICT|INTERRES
   118   59  137 1    
   119   60   61 2    
   120   60   62 1    
   121   62   63 1    
   122   62   64 1    
   123   62  138 1    
   124   63  139 1    
   125   63  140 1    
   126   63  141 1    
   127   64   65 am   BACKBONE|DICT|INTERRES
   128   64  142 1    
   129   65   66 2    
   130   65   67 1    
   131   67   68 1    
   132   67   69 1    
   133   67  143 1    
   134   68  144 1    
   135   68  145 1    
   136   68  146 1    
   137   69   70 am   BACKBONE|DICT|INTERRES
   138   69  147 1    
   139   70   71 2    
   140   70   72 1    
   141   72   73 1    
   142   72   74 1    
   143   72  148 1    
   144   73  149 1    
   145   73  150 1    
   146   73  151 1    
   147   74   75 am   BACKBONE|DICT|INTERRES
   148   74  152 1    
   149   75   76 2    
   150   75   77 1    
   151   77   78 1    
   152   77   79 1    
   153   77  153 1    
   154   78  154 1    
   155   78  155 1    
   156   78  156 1    
   157   79   80 am   BACKBONE|DICT|INTERRES
   158   79  157 1    
   159   80   81 2    
@<TRIPOS>SUBSTRUCTURE
     1 UNK         1 GROUP             0       ****    0 ROOT    
