@<TRIPOS>MOLECULE
3R207
157   159    1
SMALL
USER_CHARGES


@<TRIPOS>ATOM
      1 CA        -49.1019  -28.4010   10.2927 C.3       0 UNK        -0.1975 
      2 C         -48.4287  -29.1518    9.1555 C.2       0 UNK         0.4852 
      3 O         -47.3195  -29.6585    9.3226 O.2       0 UNK        -0.5216 
      4 N         -49.0958  -29.2249    7.9982 N.am      1 UNK        -0.4461 
      5 CA        -48.6395  -29.9666    6.8135 C.3       1 UNK         0.0864 
      6 C6        -49.8311  -30.5342    6.0011 C.3       14 UNK        -0.0898 
      7 S7        -50.8646  -31.6681    6.9931 S.3       14 UNK        -0.2598 
      8 C8        -52.4749  -30.8174    7.0156 C.3       14 UNK         0.0286 
      9 C9        -52.4582  -29.5559    7.8681 C.ar      14 UNK        -0.0844 
     10 C10       -52.3340  -28.3007    7.2669 C.ar      14 UNK        -0.0881 
     11 C11       -52.3530  -27.1376    8.0411 C.ar      14 UNK        -0.0643 
     12 C12       -52.5132  -27.2317    9.4263 C.ar      14 UNK        -0.0930 
     13 C13       -52.6384  -28.4816   10.0404 C.ar      14 UNK        -0.0827 
     14 C14       -52.6000  -29.6400    9.2565 C.ar      14 UNK        -0.1249 
     15 C15       -52.7988  -28.5816   11.5520 C.3       14 UNK         0.0141 
     16 S16       -54.3899  -29.3249   12.0349 S.3       14 UNK        -0.2313 
     17 C17       -55.5806  -28.0320   11.5346 C.3       14 UNK        -0.0915 
     18 CA        -56.0494  -27.1280   12.7070 C.3       13 UNK         0.0968 
     19 C         -57.0480  -26.0504   12.1932 C.2       13 UNK         0.5732 
     20 N         -58.3279  -26.1080   12.5418 N.am      13 UNK        -0.7310 
     21 O         -56.6512  -25.1446   11.4641 O.2       13 UNK        -0.5035 
     22 N         -56.5122  -27.9290   13.8513 N.am      13 UNK        -0.4233 
     23 C         -56.7524  -27.4674   15.0859 C.2       13 UNK         0.4989 
     24 O         -56.7241  -26.2795   15.4068 O.2       13 UNK        -0.4996 
     25 CA        -57.0288  -28.5344   16.1498 C.3       12 UNK         0.0216 
     26 CB        -58.4294  -29.1470   15.9186 C.3       12 UNK        -0.1964 
     27 N         -55.9539  -29.5346   16.1089 N.am      12 UNK        -0.4276 
     28 C         -55.8692  -30.6604   16.8321 C.2       12 UNK         0.5020 
     29 O         -56.6957  -31.0010   17.6793 O.2       12 UNK        -0.5489 
     30 CA        -54.6645  -31.5832   16.5678 C.3       11 UNK         0.0294 
     31 CB        -55.0121  -32.6131   15.4802 C.3       11 UNK        -0.2019 
     32 N         -53.4503  -30.8659   16.1767 N.am      11 UNK        -0.4493 
     33 C         -52.6832  -30.1519   17.0111 C.2       11 UNK         0.4932 
     34 O         -52.8950  -30.0506   18.2202 O.2       11 UNK        -0.5029 
     35 CA        -51.4828  -29.4011   16.3987 C.3       10 UNK         0.0280 
     36 CB        -51.0528  -29.9226   15.0081 C.3       10 UNK        -0.1976 
     37 N         -51.7321  -27.9563   16.3528 N.am      10 UNK        -0.4242 
     38 C         -52.7666  -27.3453   15.7542 C.2       10 UNK         0.5072 
     39 O         -53.6303  -27.9377   15.1096 O.2       10 UNK        -0.5224 
     40 CA        -52.8637  -25.8188   15.9098 C.3       9 UNK         0.0343 
     41 CB        -53.6555  -25.4613   17.1781 C.3       9 UNK        -0.2003 
     42 N         -51.5567  -25.1565   15.9486 N.am      9 UNK        -0.4272 
     43 C         -50.7400  -25.0453   14.8930 C.2       9 UNK         0.4988 
     44 O         -50.9994  -25.4887   13.7722 O.2       9 UNK        -0.5108 
     45 CA        -49.3936  -24.3522   15.1455 C.3       8 UNK         0.0248 
     46 CB        -48.2841  -25.3965   15.3533 C.3       8 UNK        -0.2001 
     47 N         -49.0564  -23.5081   14.0013 N.am      8 UNK        -0.4140 
     48 C         -49.4350  -22.2279   13.8678 C.2       8 UNK         0.5028 
     49 O         -49.9963  -21.5874   14.7583 O.2       8 UNK        -0.5428 
     50 CA        -49.1546  -21.5332   12.5191 C.3       7 UNK         0.0264 
     51 CB        -47.8492  -20.7248   12.5899 C.3       7 UNK        -0.1988 
     52 N         -49.0788  -22.4625   11.3907 N.am      7 UNK        -0.4454 
     53 C         -50.1007  -23.2050   10.9378 C.2       7 UNK         0.5027 
     54 O         -51.2617  -23.0551   11.3208 O.2       7 UNK        -0.5083 
     55 CA        -49.7943  -24.3040    9.8918 C.3       6 UNK         0.0844 
     56 C56       -50.4087  -23.9045    8.5260 C.3       14 UNK        -0.0967 
     57 S57       -50.4604  -25.2730    7.3205 S.3       14 UNK        -0.2604 
     58 C58       -52.2067  -25.7827    7.3718 C.3       14 UNK         0.0134 
     59 N         -48.3664  -24.6494    9.7792 N.am      6 UNK        -0.4116 
     60 C         -47.5663  -25.0799   10.7687 C.2       5 UNK         0.5034 
     61 O         -47.9534  -25.2840   11.9179 O.2       5 UNK        -0.5045 
     62 CA        -46.0713  -25.2488   10.4548 C.3       5 UNK         0.0224 
     63 CB        -45.7390  -26.7000   10.0782 C.3       5 UNK        -0.1978 
     64 N         -45.6237  -24.3572    9.3844 N.am      5 UNK        -0.4737 
     65 C         -45.2699  -23.0768    9.5532 C.2       4 UNK         0.5027 
     66 O         -45.2760  -22.5071   10.6440 O.2       4 UNK        -0.5211 
     67 CA        -44.8351  -22.3010    8.2964 C.3       4 UNK         0.0297 
     68 CB        -43.3139  -22.4069    8.1037 C.3       4 UNK        -0.1993 
     69 N         -45.5108  -22.7600    7.0793 N.am      4 UNK        -0.4486 
     70 C         -46.7899  -22.4916    6.7849 C.2       3 UNK         0.4961 
     71 O         -47.5162  -21.7788    7.4778 O.2       3 UNK        -0.5105 
     72 CA        -47.3697  -23.1493    5.5177 C.3       3 UNK         0.0299 
     73 CB        -47.1283  -22.2530    4.2926 C.3       3 UNK        -0.1972 
     74 N         -46.8897  -24.5103    5.2305 N.am      3 UNK        -0.4305 
     75 C         -46.9431  -25.5423    6.0831 C.2       2 UNK         0.5006 
     76 O         -47.2422  -25.4356    7.2726 O.2       2 UNK        -0.5106 
     77 CA        -46.5861  -26.9279    5.5451 C.3       2 UNK         0.0296 
     78 CB        -45.0921  -27.2287    5.7647 C.3       2 UNK        -0.2002 
     79 N         -47.4146  -27.8866    6.2712 N.am      2 UNK        -0.4032 
     80 C         -47.6862  -29.1462    5.9118 C.2       1 UNK         0.5000 
     81 O         -47.2176  -29.6719    4.8998 O.2       1 UNK        -0.5238 
     82 H82       -48.3665  -28.0337   11.0067 H         1 UNK         0.0889 
     83 H83       -49.7832  -29.0640   10.8238 H         1 UNK         0.0889 
     84 H84       -49.6664  -27.5472    9.9200 H         1 UNK         0.0889 
     85 H85       -50.0220  -28.8222    7.9328 H         1 UNK         0.3028 
     86 H86       -48.0519  -30.8222    7.1540 H         1 UNK         0.0864 
     87 H87       -50.4396  -29.7278    5.5905 H         1 UNK         0.0720 
     88 H88       -49.4711  -31.1035    5.1420 H         1 UNK         0.0720 
     89 H89       -52.7814  -30.5906    5.9932 H         1 UNK         0.0814 
     90 H90       -53.2262  -31.5048    7.4074 H         1 UNK         0.0814 
     91 H91       -52.2282  -28.2247    6.1932 H         1 UNK         0.1469 
     92 H92       -52.5355  -26.3311   10.0248 H         1 UNK         0.1381 
     93 H93       -52.6970  -30.6087    9.7279 H         1 UNK         0.1206 
     94 H94       -52.7003  -27.6049   12.0299 H         1 UNK         0.0813 
     95 H95       -51.9916  -29.1974   11.9481 H         1 UNK         0.0813 
     96 H96       -56.4377  -28.5372   11.0858 H         1 UNK         0.0638 
     97 H97       -55.1413  -27.4281   10.7392 H         1 UNK         0.0638 
     98 H98       -55.1752  -26.5761   13.0579 H         1 UNK         0.0568 
     99 H99       -58.9639  -25.4027   12.2051 H         1 UNK         0.3450 
    100 H100      -58.6598  -26.8435   13.1440 H         1 UNK         0.3450 
    101 H101      -56.5643  -28.9227   13.6869 H         1 UNK         0.2987 
    102 H102      -57.0063  -28.0518   17.1286 H         1 UNK         0.0766 
    103 H103      -58.7525  -29.7503   16.7662 H         1 UNK         0.0798 
    104 H104      -58.4568  -29.7786   15.0301 H         1 UNK         0.0798 
    105 H105      -59.1818  -28.3675   15.7896 H         1 UNK         0.0798 
    106 H106      -55.1588  -29.2761   15.5281 H         1 UNK         0.3198 
    107 H107      -54.4570  -32.1251   17.4935 H         1 UNK         0.0843 
    108 H108      -55.9027  -33.1815   15.7526 H         1 UNK         0.0831 
    109 H109      -54.2034  -33.3304   15.3389 H         1 UNK         0.0831 
    110 H110      -55.2116  -32.1364   14.5194 H         1 UNK         0.0831 
    111 H111      -53.2140  -30.8632   15.1948 H         1 UNK         0.3133 
    112 H112      -50.6440  -29.5519   17.0799 H         1 UNK         0.0566 
    113 H113      -50.1523  -29.4138   14.6636 H         1 UNK         0.0814 
    114 H114      -50.8251  -30.9889   15.0403 H         1 UNK         0.0814 
    115 H115      -51.8215  -29.7689   14.2513 H         1 UNK         0.0814 
    116 H116      -51.0947  -27.3834   16.8866 H         1 UNK         0.3091 
    117 H117      -53.4147  -25.4377   15.0468 H         1 UNK         0.0702 
    118 H118      -54.6355  -25.9404   17.1736 H         1 UNK         0.0785 
    119 H119      -53.1409  -25.7848   18.0838 H         1 UNK         0.0785 
    120 H120      -53.8239  -24.3867   17.2508 H         1 UNK         0.0785 
    121 H121      -51.2713  -24.7612   16.8334 H         1 UNK         0.2998 
    122 H122      -49.4617  -23.7392   16.0469 H         1 UNK         0.0697 
    123 H123      -48.1983  -26.0707   14.4999 H         1 UNK         0.0825 
    124 H124      -48.4840  -26.0099   16.2326 H         1 UNK         0.0825 
    125 H125      -47.3145  -24.9212   15.5023 H         1 UNK         0.0825 
    126 H126      -48.6652  -23.9957   13.1998 H         1 UNK         0.3029 
    127 H127      -49.9788  -20.8420   12.3299 H         1 UNK         0.0897 
    128 H128      -47.6757  -20.1677   11.6689 H         1 UNK         0.0792 
    129 H129      -46.9846  -21.3683   12.7596 H         1 UNK         0.0792 
    130 H130      -47.8822  -20.0003   13.4049 H         1 UNK         0.0792 
    131 H131      -48.1608  -22.6283   11.0028 H         1 UNK         0.3086 
    132 H132      -50.3053  -25.2007   10.2462 H         1 UNK         0.0583 
    133 H133      -51.4178  -23.5072    8.6491 H         1 UNK         0.1020 
    134 H134      -49.8339  -23.0891    8.0835 H         1 UNK         0.1020 
    135 H135      -52.8260  -25.0443    7.8818 H         1 UNK         0.0694 
    136 H136      -52.5835  -25.8300    6.3489 H         1 UNK         0.0694 
    137 H137      -47.9732  -24.6090    8.8430 H         1 UNK         0.2989 
    138 H138      -45.5203  -25.0064   11.3667 H         1 UNK         0.1055 
    139 H139      -46.0207  -27.3859   10.8778 H         1 UNK         0.0806 
    140 H140      -44.6704  -26.8295    9.9069 H         1 UNK         0.0806 
    141 H141      -46.2606  -27.0163    9.1753 H         1 UNK         0.0806 
    142 H142      -45.6971  -24.7205    8.4419 H         1 UNK         0.3061 
    143 H143      -45.0847  -21.2494    8.4551 H         1 UNK         0.0734 
    144 H144      -42.9773  -21.8051    7.2593 H         1 UNK         0.0832 
    145 H145      -42.7841  -22.0470    8.9870 H         1 UNK         0.0832 
    146 H146      -42.9972  -23.4365    7.9319 H         1 UNK         0.0832 
    147 H147      -44.9859  -23.3506    6.4505 H         1 UNK         0.3156 
    148 H148      -48.4485  -23.2256    5.6691 H         1 UNK         0.0589 
    149 H149      -46.0676  -22.1768    4.0501 H         1 UNK         0.0808 
    150 H150      -47.6488  -22.6322    3.4129 H         1 UNK         0.0808 
    151 H151      -47.4953  -21.2409    4.4703 H         1 UNK         0.0808 
    152 H152      -46.6020  -24.6897    4.2789 H         1 UNK         0.3098 
    153 H153      -46.8279  -26.9758    4.4814 H         1 UNK         0.0720 
    154 H154      -44.8282  -27.2022    6.8230 H         1 UNK         0.0791 
    155 H155      -44.4649  -26.4989    5.2513 H         1 UNK         0.0791 
    156 H156      -44.8229  -28.2121    5.3793 H         1 UNK         0.0791 
    157 H157      -47.8527  -27.5030    7.0998 H         1 UNK         0.3028 
@<TRIPOS>BOND
     1    1    2 1    
     2    1   82 1    
     3    1   83 1    
     4    1   84 1    
     5    2    3 2    
     6    2    4 am   BACKBONE|DICT|INTERRES
     7    4    5 1    
     8    4   85 1    
     9    5    6 1    
    10    5   80 1    
    11    5   86 1    
    12    6    7 1    
    13    6   87 1    
    14    6   88 1    
    15    7    8 1    
    16    8    9 1    
    17    8   89 1    
    18    8   90 1    
    19    9   10 ar   
    20    9   14 ar   
    21   10   11 ar   
    22   10   91 1    
    23   11   12 ar   
    24   11   58 1    
    25   12   13 ar   
    26   12   92 1    
    27   13   14 ar   
    28   13   15 1    
    29   14   93 1    
    30   15   16 1    
    31   15   94 1    
    32   15   95 1    
    33   16   17 1    
    34   17   18 1    
    35   17   96 1    
    36   17   97 1    
    37   18   19 1    
    38   18   22 1    
    39   18   98 1    
    40   19   20 am   BACKBONE|DICT|INTERRES
    41   19   21 2    
    42   20   99 1    
    43   20  100 1    
    44   22   23 am   BACKBONE|DICT|INTERRES
    45   22  101 1    
    46   23   24 2    
    47   23   25 1    
    48   25   26 1    
    49   25   27 1    
    50   25  102 1    
    51   26  103 1    
    52   26  104 1    
    53   26  105 1    
    54   27   28 am   BACKBONE|DICT|INTERRES
    55   27  106 1    
    56   28   29 2    
    57   28   30 1    
    58   30   31 1    
    59   30   32 1    
    60   30  107 1    
    61   31  108 1    
    62   31  109 1    
    63   31  110 1    
    64   32   33 am   BACKBONE|DICT|INTERRES
    65   32  111 1    
    66   33   34 2    
    67   33   35 1    
    68   35   36 1    
    69   35   37 1    
    70   35  112 1    
    71   36  113 1    
    72   36  114 1    
    73   36  115 1    
    74   37   38 am   BACKBONE|DICT|INTERRES
    75   37  116 1    
    76   38   39 2    
    77   38   40 1    
    78   40   41 1    
    79   40   42 1    
    80   40  117 1    
    81   41  118 1    
    82   41  119 1    
    83   41  120 1    
    84   42   43 am   BACKBONE|DICT|INTERRES
    85   42  121 1    
    86   43   44 2    
    87   43   45 1    
    88   45   46 1    
    89   45   47 1    
    90   45  122 1    
    91   46  123 1    
    92   46  124 1    
    93   46  125 1    
    94   47   48 am   BACKBONE|DICT|INTERRES
    95   47  126 1    
    96   48   49 2    
    97   48   50 1    
    98   50   51 1    
    99   50   52 1    
   100   50  127 1    
   101   51  128 1    
   102   51  129 1    
   103   51  130 1    
   104   52   53 am   BACKBONE|DICT|INTERRES
   105   52  131 1    
   106   53   54 2    
   107   53   55 1    
   108   55   56 1    
   109   55   59 1    
   110   55  132 1    
   111   56   57 1    
   112   56  133 1    
   113   56  134 1    
   114   57   58 1    
   115   58  135 1    
   116   58  136 1    
   117   59   60 am   BACKBONE|DICT|INTERRES
   118   59  137 1    
   119   60   61 2    
   120   60   62 1    
   121   62   63 1    
   122   62   64 1    
   123   62  138 1    
   124   63  139 1    
   125   63  140 1    
   126   63  141 1    
   127   64   65 am   BACKBONE|DICT|INTERRES
   128   64  142 1    
   129   65   66 2    
   130   65   67 1    
   131   67   68 1    
   132   67   69 1    
   133   67  143 1    
   134   68  144 1    
   135   68  145 1    
   136   68  146 1    
   137   69   70 am   BACKBONE|DICT|INTERRES
   138   69  147 1    
   139   70   71 2    
   140   70   72 1    
   141   72   73 1    
   142   72   74 1    
   143   72  148 1    
   144   73  149 1    
   145   73  150 1    
   146   73  151 1    
   147   74   75 am   BACKBONE|DICT|INTERRES
   148   74  152 1    
   149   75   76 2    
   150   75   77 1    
   151   77   78 1    
   152   77   79 1    
   153   77  153 1    
   154   78  154 1    
   155   78  155 1    
   156   78  156 1    
   157   79   80 am   BACKBONE|DICT|INTERRES
   158   79  157 1    
   159   80   81 2    
@<TRIPOS>SUBSTRUCTURE
     1 UNK         1 GROUP             0       ****    0 ROOT    
