@<TRIPOS>MOLECULE
3R207
157   159    1
SMALL
USER_CHARGES


@<TRIPOS>ATOM
      1 CA        -49.2161  -22.7876    9.4381 C.3       0 UNK        -0.1975 
      2 C         -48.9993  -23.7177    8.2537 C.2       0 UNK         0.4852 
      3 O         -47.8604  -24.1003    7.9803 O.2       0 UNK        -0.5216 
      4 N         -50.0776  -24.0986    7.5561 N.am      1 UNK        -0.4461 
      5 CA        -50.0480  -24.9801    6.3818 C.3       1 UNK         0.0864 
      6 C6        -51.4609  -25.4661    5.9771 C.3       14 UNK        -0.0898 
      7 S7        -52.2513  -26.4155    7.3169 S.3       14 UNK        -0.2598 
      8 C8        -51.6327  -28.0892    6.9613 C.3       14 UNK         0.0286 
      9 C9        -51.7927  -28.9969    8.1701 C.ar      14 UNK        -0.0844 
     10 C10       -50.7743  -29.0803    9.1247 C.ar      14 UNK        -0.0881 
     11 C11       -50.9087  -29.9102   10.2469 C.ar      14 UNK        -0.0643 
     12 C12       -52.0835  -30.6547   10.3990 C.ar      14 UNK        -0.0930 
     13 C13       -53.1098  -30.5774    9.4529 C.ar      14 UNK        -0.0827 
     14 C14       -52.9572  -29.7491    8.3382 C.ar      14 UNK        -0.1249 
     15 C15       -54.3857  -31.3864    9.6292 C.3       14 UNK         0.0141 
     16 S16       -55.6689  -30.4295   10.4950 S.3       14 UNK        -0.2313 
     17 C17       -55.1330  -30.5822   12.2327 C.3       14 UNK        -0.0915 
     18 CA        -56.3021  -30.3130   13.2185 C.3       13 UNK         0.0968 
     19 C         -55.9584  -30.7459   14.6749 C.2       13 UNK         0.5732 
     20 N         -56.1688  -29.9243   15.6979 N.am      13 UNK        -0.7310 
     21 O         -55.5076  -31.8685   14.8893 O.2       13 UNK        -0.5035 
     22 N         -56.7705  -28.9236   13.1167 N.am      13 UNK        -0.4233 
     23 C         -58.0472  -28.5302   13.2109 C.2       13 UNK         0.4989 
     24 O         -58.9962  -29.3103   13.3102 O.2       13 UNK        -0.4996 
     25 CA        -58.3061  -27.0058   13.1982 C.3       12 UNK         0.0216 
     26 CB        -59.6551  -26.6253   13.8462 C.3       12 UNK        -0.1964 
     27 N         -57.2106  -26.2190   13.7853 N.am      12 UNK        -0.4276 
     28 C         -56.7134  -26.3431   15.0240 C.2       12 UNK         0.5020 
     29 O         -57.1567  -27.1164   15.8771 O.2       12 UNK        -0.5489 
     30 CA        -55.4610  -25.5127   15.3436 C.3       11 UNK         0.0294 
     31 CB        -55.7544  -24.4612   16.4253 C.3       11 UNK        -0.2019 
     32 N         -54.3701  -26.3787   15.7904 N.am      11 UNK        -0.4493 
     33 C         -53.8048  -27.3487   15.0603 C.2       11 UNK         0.4932 
     34 O         -54.1141  -27.5925   13.8916 O.2       11 UNK        -0.5029 
     35 CA        -52.7094  -28.1725   15.7615 C.3       10 UNK         0.0280 
     36 CB        -52.1534  -29.2977   14.8689 C.3       10 UNK        -0.1976 
     37 N         -51.6019  -27.3207   16.1973 N.am      10 UNK        -0.4242 
     38 C         -51.5832  -26.5616   17.3019 C.2       10 UNK         0.5072 
     39 O         -52.5165  -26.5004   18.1039 O.2       10 UNK        -0.5224 
     40 CA        -50.3327  -25.6996   17.5245 C.3       9 UNK         0.0343 
     41 CB        -49.1205  -26.5686   17.9005 C.3       9 UNK        -0.2003 
     42 N         -50.0312  -24.9282   16.3195 N.am      9 UNK        -0.4272 
     43 C         -50.4642  -23.6810   16.0823 C.2       9 UNK         0.4988 
     44 O         -51.0761  -22.9975   16.9037 O.2       9 UNK        -0.5108 
     45 CA        -50.1779  -23.0952   14.6862 C.3       8 UNK         0.0248 
     46 CB        -48.8469  -22.3269   14.6851 C.3       8 UNK        -0.2001 
     47 N         -50.1565  -24.1248   13.6433 N.am      8 UNK        -0.4140 
     48 C         -51.2507  -24.7848   13.2298 C.2       8 UNK         0.5028 
     49 O         -52.3919  -24.4768   13.5725 O.2       8 UNK        -0.5428 
     50 CA        -51.0602  -26.0027   12.3046 C.3       7 UNK         0.0264 
     51 CB        -51.5454  -25.6897   10.8821 C.3       7 UNK        -0.1988 
     52 N         -49.6900  -26.5202   12.2424 N.am      7 UNK        -0.4454 
     53 C         -49.0131  -27.0615   13.2658 C.2       7 UNK         0.5027 
     54 O         -49.4711  -27.1684   14.4035 O.2       7 UNK        -0.5083 
     55 CA        -47.5652  -27.5185   12.9876 C.3       6 UNK         0.0844 
     56 C56       -47.5093  -29.0117   12.5719 C.3       14 UNK        -0.0967 
     57 S57       -48.1967  -29.3462   10.9095 S.3       14 UNK        -0.2604 
     58 C58       -49.8467  -30.0027   11.3441 C.3       14 UNK         0.0134 
     59 N         -46.8322  -26.6586   12.0497 N.am      6 UNK        -0.4116 
     60 C         -46.6900  -25.3282   12.1148 C.2       5 UNK         0.5034 
     61 O         -47.2265  -24.6269   12.9727 O.2       5 UNK        -0.5045 
     62 CA        -45.8404  -24.6443   11.0288 C.3       5 UNK         0.0224 
     63 CB        -44.3851  -24.4628   11.5003 C.3       5 UNK        -0.1978 
     64 N         -45.9010  -25.2701    9.6986 N.am      5 UNK        -0.4737 
     65 C         -45.4353  -26.4607    9.2899 C.2       4 UNK         0.5027 
     66 O         -44.8901  -27.2760   10.0328 O.2       4 UNK        -0.5211 
     67 CA        -45.6446  -26.8151    7.8094 C.3       4 UNK         0.0297 
     68 CB        -46.9448  -27.6183    7.6377 C.3       4 UNK        -0.1993 
     69 N         -45.7088  -25.6167    6.9718 N.am      4 UNK        -0.4486 
     70 C         -44.6535  -24.9991    6.4257 C.2       3 UNK         0.4961 
     71 O         -43.4954  -25.4103    6.5182 O.2       3 UNK        -0.5105 
     72 CA        -44.9621  -23.7049    5.6420 C.3       3 UNK         0.0299 
     73 CB        -43.7640  -23.1961    4.8121 C.3       3 UNK        -0.1972 
     74 N         -46.1689  -23.8258    4.8114 N.am      3 UNK        -0.4305 
     75 C         -46.3828  -24.6958    3.8111 C.2       2 UNK         0.5006 
     76 O         -45.5318  -25.4734    3.3757 O.2       2 UNK        -0.5106 
     77 CA        -47.8194  -24.7417    3.2574 C.3       2 UNK         0.0296 
     78 CB        -47.9708  -25.7033    2.0631 C.3       2 UNK        -0.2002 
     79 N         -48.7331  -25.1577    4.3238 N.am      2 UNK        -0.4032 
     80 C         -49.3188  -24.3229    5.1917 C.2       1 UNK         0.5000 
     81 O         -49.2643  -23.0935    5.0936 O.2       1 UNK        -0.5238 
     82 H82       -50.2619  -22.5004    9.5446 H         1 UNK         0.0889 
     83 H83       -48.6268  -21.8800    9.3117 H         1 UNK         0.0889 
     84 H84       -48.9003  -23.2732   10.3610 H         1 UNK         0.0889 
     85 H85       -50.9892  -23.7470    7.8100 H         1 UNK         0.3028 
     86 H86       -49.4609  -25.8555    6.6652 H         1 UNK         0.0864 
     87 H87       -51.4257  -26.0898    5.0815 H         1 UNK         0.0720 
     88 H88       -52.1021  -24.6175    5.7314 H         1 UNK         0.0720 
     89 H89       -52.1681  -28.4987    6.1032 H         1 UNK         0.0814 
     90 H90       -50.5811  -28.0456    6.6748 H         1 UNK         0.0814 
     91 H91       -49.8873  -28.4790    8.9899 H         1 UNK         0.1469 
     92 H92       -52.2063  -31.2890   11.2664 H         1 UNK         0.1381 
     93 H93       -53.7510  -29.6809    7.6066 H         1 UNK         0.1206 
     94 H94       -54.7705  -31.6793    8.6512 H         1 UNK         0.0813 
     95 H95       -54.1844  -32.3166   10.1626 H         1 UNK         0.0813 
     96 H96       -54.3062  -29.8927   12.4100 H         1 UNK         0.0638 
     97 H97       -54.7341  -31.5879   12.3753 H         1 UNK         0.0638 
     98 H98       -57.1189  -30.9747   12.9252 H         1 UNK         0.0568 
     99 H99       -56.5637  -28.9989   15.5672 H         1 UNK         0.3450 
    100 H100      -55.9542  -30.2450   16.6279 H         1 UNK         0.3450 
    101 H101      -56.0361  -28.2263   13.0944 H         1 UNK         0.2987 
    102 H102      -58.3554  -26.7223   12.1459 H         1 UNK         0.0766 
    103 H103      -59.8238  -25.5491   13.8092 H         1 UNK         0.0798 
    104 H104      -59.7041  -26.9367   14.8902 H         1 UNK         0.0798 
    105 H105      -60.4886  -27.0994   13.3263 H         1 UNK         0.0798 
    106 H106      -56.7522  -25.5762   13.1532 H         1 UNK         0.3198 
    107 H107      -55.1249  -24.9969   14.4413 H         1 UNK         0.0843 
    108 H108      -56.0689  -24.9232   17.3622 H         1 UNK         0.0831 
    109 H109      -56.5528  -23.7888   16.1087 H         1 UNK         0.0831 
    110 H110      -54.8762  -23.8483   16.6305 H         1 UNK         0.0831 
    111 H111      -54.0443  -26.2618   16.7438 H         1 UNK         0.3133 
    112 H112      -53.1631  -28.6396   16.6381 H         1 UNK         0.0566 
    113 H113      -51.3820  -29.8704   15.3838 H         1 UNK         0.0814 
    114 H114      -52.9409  -29.9969   14.5865 H         1 UNK         0.0814 
    115 H115      -51.7215  -28.9044   13.9493 H         1 UNK         0.0814 
    116 H116      -50.7975  -27.2852   15.5725 H         1 UNK         0.3091 
    117 H117      -50.5315  -25.0240   18.3593 H         1 UNK         0.0702 
    118 H118      -48.2462  -25.9531   18.1122 H         1 UNK         0.0785 
    119 H119      -48.8518  -27.2660   17.1062 H         1 UNK         0.0785 
    120 H120      -49.3266  -27.1570   18.7956 H         1 UNK         0.0785 
    121 H121      -49.5729  -25.4319   15.5697 H         1 UNK         0.2998 
    122 H122      -50.9769  -22.3889   14.4505 H         1 UNK         0.0697 
    123 H123      -48.0082  -22.9697   14.9549 H         1 UNK         0.0825 
    124 H124      -48.8713  -21.5067   15.4038 H         1 UNK         0.0825 
    125 H125      -48.6368  -21.8951   13.7064 H         1 UNK         0.0825 
    126 H126      -49.2425  -24.4168   13.3121 H         1 UNK         0.3029 
    127 H127      -51.6921  -26.7984   12.7038 H         1 UNK         0.0897 
    128 H128      -51.5337  -26.5824   10.2583 H         1 UNK         0.0792 
    129 H129      -50.9301  -24.9318   10.4005 H         1 UNK         0.0792 
    130 H130      -52.5724  -25.3220   10.8897 H         1 UNK         0.0792 
    131 H131      -49.2300  -26.4829   11.3447 H         1 UNK         0.3086 
    132 H132      -47.0376  -27.4303   13.9394 H         1 UNK         0.0583 
    133 H133      -46.4697  -29.3434   12.5685 H         1 UNK         0.1020 
    134 H134      -48.0047  -29.6396   13.3155 H         1 UNK         0.1020 
    135 H135      -49.7264  -31.0434   11.6487 H         1 UNK         0.0694 
    136 H136      -50.2290  -29.4696   12.2132 H         1 UNK         0.0694 
    137 H137      -46.3139  -27.1350   11.3173 H         1 UNK         0.2989 
    138 H138      -46.2654  -23.6474   10.8987 H         1 UNK         0.1055 
    139 H139      -44.3467  -23.8996   12.4338 H         1 UNK         0.0806 
    140 H140      -43.7967  -23.9125   10.7660 H         1 UNK         0.0806 
    141 H141      -43.8902  -25.4177   11.6793 H         1 UNK         0.0806 
    142 H142      -46.4233  -24.7337    9.0089 H         1 UNK         0.3061 
    143 H143      -44.8083  -27.4396    7.4876 H         1 UNK         0.0734 
    144 H144      -47.1232  -27.8693    6.5921 H         1 UNK         0.0832 
    145 H145      -46.8946  -28.5572    8.1907 H         1 UNK         0.0832 
    146 H146      -47.8118  -27.0706    8.0084 H         1 UNK         0.0832 
    147 H147      -46.6035  -25.1370    6.9445 H         1 UNK         0.3156 
    148 H148      -45.1864  -22.9457    6.3928 H         1 UNK         0.0589 
    149 H149      -43.4408  -23.9289    4.0722 H         1 UNK         0.0808 
    150 H150      -44.0087  -22.2734    4.2860 H         1 UNK         0.0808 
    151 H151      -42.9075  -22.9847    5.4533 H         1 UNK         0.0808 
    152 H152      -46.9527  -23.2489    5.0944 H         1 UNK         0.3098 
    153 H153      -48.0747  -23.7378    2.9107 H         1 UNK         0.0720 
    154 H154      -48.9889  -25.6925    1.6737 H         1 UNK         0.0791 
    155 H155      -47.7269  -26.7314    2.3342 H         1 UNK         0.0791 
    156 H156      -47.3092  -25.4156    1.2449 H         1 UNK         0.0791 
    157 H157      -48.8110  -26.1537    4.4729 H         1 UNK         0.3028 
@<TRIPOS>BOND
     1    1    2 1    
     2    1   82 1    
     3    1   83 1    
     4    1   84 1    
     5    2    3 2    
     6    2    4 am   BACKBONE|DICT|INTERRES
     7    4    5 1    
     8    4   85 1    
     9    5    6 1    
    10    5   80 1    
    11    5   86 1    
    12    6    7 1    
    13    6   87 1    
    14    6   88 1    
    15    7    8 1    
    16    8    9 1    
    17    8   89 1    
    18    8   90 1    
    19    9   10 ar   
    20    9   14 ar   
    21   10   11 ar   
    22   10   91 1    
    23   11   12 ar   
    24   11   58 1    
    25   12   13 ar   
    26   12   92 1    
    27   13   14 ar   
    28   13   15 1    
    29   14   93 1    
    30   15   16 1    
    31   15   94 1    
    32   15   95 1    
    33   16   17 1    
    34   17   18 1    
    35   17   96 1    
    36   17   97 1    
    37   18   19 1    
    38   18   22 1    
    39   18   98 1    
    40   19   20 am   BACKBONE|DICT|INTERRES
    41   19   21 2    
    42   20   99 1    
    43   20  100 1    
    44   22   23 am   BACKBONE|DICT|INTERRES
    45   22  101 1    
    46   23   24 2    
    47   23   25 1    
    48   25   26 1    
    49   25   27 1    
    50   25  102 1    
    51   26  103 1    
    52   26  104 1    
    53   26  105 1    
    54   27   28 am   BACKBONE|DICT|INTERRES
    55   27  106 1    
    56   28   29 2    
    57   28   30 1    
    58   30   31 1    
    59   30   32 1    
    60   30  107 1    
    61   31  108 1    
    62   31  109 1    
    63   31  110 1    
    64   32   33 am   BACKBONE|DICT|INTERRES
    65   32  111 1    
    66   33   34 2    
    67   33   35 1    
    68   35   36 1    
    69   35   37 1    
    70   35  112 1    
    71   36  113 1    
    72   36  114 1    
    73   36  115 1    
    74   37   38 am   BACKBONE|DICT|INTERRES
    75   37  116 1    
    76   38   39 2    
    77   38   40 1    
    78   40   41 1    
    79   40   42 1    
    80   40  117 1    
    81   41  118 1    
    82   41  119 1    
    83   41  120 1    
    84   42   43 am   BACKBONE|DICT|INTERRES
    85   42  121 1    
    86   43   44 2    
    87   43   45 1    
    88   45   46 1    
    89   45   47 1    
    90   45  122 1    
    91   46  123 1    
    92   46  124 1    
    93   46  125 1    
    94   47   48 am   BACKBONE|DICT|INTERRES
    95   47  126 1    
    96   48   49 2    
    97   48   50 1    
    98   50   51 1    
    99   50   52 1    
   100   50  127 1    
   101   51  128 1    
   102   51  129 1    
   103   51  130 1    
   104   52   53 am   BACKBONE|DICT|INTERRES
   105   52  131 1    
   106   53   54 2    
   107   53   55 1    
   108   55   56 1    
   109   55   59 1    
   110   55  132 1    
   111   56   57 1    
   112   56  133 1    
   113   56  134 1    
   114   57   58 1    
   115   58  135 1    
   116   58  136 1    
   117   59   60 am   BACKBONE|DICT|INTERRES
   118   59  137 1    
   119   60   61 2    
   120   60   62 1    
   121   62   63 1    
   122   62   64 1    
   123   62  138 1    
   124   63  139 1    
   125   63  140 1    
   126   63  141 1    
   127   64   65 am   BACKBONE|DICT|INTERRES
   128   64  142 1    
   129   65   66 2    
   130   65   67 1    
   131   67   68 1    
   132   67   69 1    
   133   67  143 1    
   134   68  144 1    
   135   68  145 1    
   136   68  146 1    
   137   69   70 am   BACKBONE|DICT|INTERRES
   138   69  147 1    
   139   70   71 2    
   140   70   72 1    
   141   72   73 1    
   142   72   74 1    
   143   72  148 1    
   144   73  149 1    
   145   73  150 1    
   146   73  151 1    
   147   74   75 am   BACKBONE|DICT|INTERRES
   148   74  152 1    
   149   75   76 2    
   150   75   77 1    
   151   77   78 1    
   152   77   79 1    
   153   77  153 1    
   154   78  154 1    
   155   78  155 1    
   156   78  156 1    
   157   79   80 am   BACKBONE|DICT|INTERRES
   158   79  157 1    
   159   80   81 2    
@<TRIPOS>SUBSTRUCTURE
     1 UNK         1 GROUP             0       ****    0 ROOT    
