@<TRIPOS>MOLECULE
3R207
157   159    1
SMALL
USER_CHARGES


@<TRIPOS>ATOM
      1 CA        -45.1297  -26.3550    5.1551 C.3       0 UNK        -0.1975 
      2 C         -46.5094  -26.6519    4.5848 C.2       0 UNK         0.4852 
      3 O         -46.8039  -26.2465    3.4592 O.2       0 UNK        -0.5216 
      4 N         -47.3455  -27.3665    5.3484 N.am      1 UNK        -0.4461 
      5 CA        -48.7287  -27.7076    5.0019 C.3       1 UNK         0.0864 
      6 C6        -49.0996  -29.1285    5.5101 C.3       14 UNK        -0.0898 
      7 S7        -49.0933  -29.2867    7.3270 S.3       14 UNK        -0.2598 
      8 C8        -50.1971  -30.7177    7.5590 C.3       14 UNK         0.0286 
      9 C9        -50.4560  -30.9763    9.0362 C.ar      14 UNK        -0.0844 
     10 C10       -49.4048  -31.3693    9.8691 C.ar      14 UNK        -0.0881 
     11 C11       -49.6102  -31.5625   11.2379 C.ar      14 UNK        -0.0643 
     12 C12       -50.8906  -31.3746   11.7707 C.ar      14 UNK        -0.0930 
     13 C13       -51.9609  -31.0133   10.9424 C.ar      14 UNK        -0.0827 
     14 C14       -51.7359  -30.8110    9.5768 C.ar      14 UNK        -0.1249 
     15 C15       -53.3674  -30.8899   11.5159 C.3       14 UNK         0.0141 
     16 S16       -53.7651  -29.1925   12.0368 S.3       14 UNK        -0.2313 
     17 C17       -54.3563  -28.4317   10.4889 C.3       14 UNK        -0.0915 
     18 CA        -55.2569  -27.1842   10.7000 C.3       13 UNK         0.0968 
     19 C         -56.6063  -27.5358   11.3893 C.2       13 UNK         0.5732 
     20 N         -56.7801  -27.2732   12.6792 N.am      13 UNK        -0.7310 
     21 O         -57.5155  -28.0424   10.7356 O.2       13 UNK        -0.5035 
     22 N         -54.5416  -26.0519   11.3134 N.am      13 UNK        -0.4233 
     23 C         -54.9284  -24.7754   11.1786 C.2       13 UNK         0.4989 
     24 O         -55.8953  -24.4196   10.5004 O.2       13 UNK        -0.4996 
     25 CA        -54.0918  -23.7230   11.9310 C.3       12 UNK         0.0216 
     26 CB        -54.4815  -22.2669   11.5884 C.3       12 UNK        -0.1964 
     27 N         -54.1081  -23.9454   13.3828 N.am      12 UNK        -0.4276 
     28 C         -55.1715  -23.8864   14.1986 C.2       12 UNK         0.5020 
     29 O         -56.3106  -23.6003   13.8248 O.2       12 UNK        -0.5489 
     30 CA        -54.9189  -24.1680   15.6948 C.3       11 UNK         0.0294 
     31 CB        -56.2175  -24.4976   16.4623 C.3       11 UNK        -0.2019 
     32 N         -53.9044  -25.1924   15.9687 N.am      11 UNK        -0.4493 
     33 C         -53.8891  -26.4673   15.5548 C.2       11 UNK         0.4932 
     34 O         -54.7122  -26.9365   14.7672 O.2       11 UNK        -0.5029 
     35 CA        -52.7827  -27.3650   16.1540 C.3       10 UNK         0.0280 
     36 CB        -52.7050  -28.7489   15.4883 C.3       10 UNK        -0.1976 
     37 N         -51.4556  -26.7443   16.1073 N.am      10 UNK        -0.4242 
     38 C         -50.9991  -25.8110   16.9536 C.2       10 UNK         0.5072 
     39 O         -51.6477  -25.3852   17.9102 O.2       10 UNK        -0.5224 
     40 CA        -49.6249  -25.1936   16.6400 C.3       9 UNK         0.0343 
     41 CB        -48.4862  -26.1272   17.0797 C.3       9 UNK        -0.2003 
     42 N         -49.4697  -24.8524   15.2237 N.am      9 UNK        -0.4272 
     43 C         -50.2453  -23.9826   14.5563 C.2       9 UNK         0.4988 
     44 O         -51.1504  -23.3222   15.0670 O.2       9 UNK        -0.5108 
     45 CA        -49.9961  -23.8664   13.0463 C.3       8 UNK         0.0248 
     46 CB        -48.7716  -22.9812   12.7627 C.3       8 UNK        -0.2001 
     47 N         -49.8344  -25.1829   12.4259 N.am      8 UNK        -0.4140 
     48 C         -50.8111  -26.0990   12.3395 C.2       8 UNK         0.5028 
     49 O         -51.9693  -25.9083   12.7032 O.2       8 UNK        -0.5428 
     50 CA        -50.4255  -27.4699   11.7791 C.3       7 UNK         0.0264 
     51 CB        -50.5015  -27.4618   10.2496 C.3       7 UNK        -0.1988 
     52 N         -49.1030  -27.9030   12.2271 N.am      7 UNK        -0.4454 
     53 C         -48.8399  -28.2594   13.4939 C.2       7 UNK         0.5027 
     54 O         -49.6862  -28.2662   14.3874 O.2       7 UNK        -0.5083 
     55 CA        -47.3852  -28.6170   13.8563 C.3       6 UNK         0.0844 
     56 C56       -47.1418  -30.1452   13.8202 C.3       14 UNK        -0.0967 
     57 S57       -47.0583  -30.8592   12.1378 S.3       14 UNK        -0.2604 
     58 C58       -48.4572  -32.0338   12.1162 C.3       14 UNK         0.0134 
     59 N         -46.3914  -27.8653   13.0861 N.am      6 UNK        -0.4116 
     60 C         -46.2615  -26.5316   13.0910 C.2       5 UNK         0.5034 
     61 O         -46.9646  -25.7820   13.7727 O.2       5 UNK        -0.5045 
     62 CA        -45.2010  -25.9168   12.1536 C.3       5 UNK         0.0224 
     63 CB        -44.2837  -26.9562   11.4675 C.3       5 UNK        -0.1978 
     64 N         -45.8024  -25.0336   11.1438 N.am      5 UNK        -0.4737 
     65 C         -46.7781  -25.3559   10.2841 C.2       4 UNK         0.5027 
     66 O         -47.3188  -26.4629   10.2368 O.2       4 UNK        -0.5211 
     67 CA        -47.2253  -24.2631    9.3082 C.3       4 UNK         0.0297 
     68 CB        -46.4452  -24.3613    7.9884 C.3       4 UNK        -0.1993 
     69 N         -48.6475  -24.4509    9.0405 N.am      4 UNK        -0.4486 
     70 C         -49.5665  -23.4821    9.0024 C.2       3 UNK         0.4961 
     71 O         -49.2986  -22.2822    9.0793 O.2       3 UNK        -0.5105 
     72 CA        -51.0227  -23.9397    8.8417 C.3       3 UNK         0.0299 
     73 CB        -52.0246  -22.7669    8.8610 C.3       3 UNK        -0.1972 
     74 N         -51.1542  -24.7010    7.6028 N.am      3 UNK        -0.4305 
     75 C         -52.1604  -25.5218    7.2874 C.2       2 UNK         0.5006 
     76 O         -53.0789  -25.8065    8.0554 O.2       2 UNK        -0.5106 
     77 CA        -52.1683  -26.1042    5.8617 C.3       2 UNK         0.0296 
     78 CB        -52.4000  -25.0009    4.8090 C.3       2 UNK        -0.2002 
     79 N         -51.0055  -26.9346    5.5180 N.am      2 UNK        -0.4032 
     80 C         -49.7100  -26.5916    5.4422 C.2       1 UNK         0.5000 
     81 O         -49.2903  -25.4567    5.6907 O.2       1 UNK        -0.5238 
     82 H82       -44.9963  -25.2797    5.2713 H         1 UNK         0.0889 
     83 H83       -44.3574  -26.7235    4.4805 H         1 UNK         0.0889 
     84 H84       -44.9800  -26.8237    6.1277 H         1 UNK         0.0889 
     85 H85       -47.0583  -27.6539    6.2732 H         1 UNK         0.3028 
     86 H86       -48.8070  -27.7420    3.9131 H         1 UNK         0.0864 
     87 H87       -50.0693  -29.4384    5.1178 H         1 UNK         0.0720 
     88 H88       -48.3881  -29.8535    5.1112 H         1 UNK         0.0720 
     89 H89       -49.7464  -31.6024    7.1071 H         1 UNK         0.0814 
     90 H90       -51.1362  -30.5402    7.0328 H         1 UNK         0.0814 
     91 H91       -48.4166  -31.5085    9.4522 H         1 UNK         0.1469 
     92 H92       -51.0620  -31.5335   12.8265 H         1 UNK         0.1381 
     93 H93       -52.5583  -30.5197    8.9380 H         1 UNK         0.1206 
     94 H94       -53.4655  -31.5439   12.3836 H         1 UNK         0.0813 
     95 H95       -54.1050  -31.2435   10.7943 H         1 UNK         0.0813 
     96 H96       -53.4933  -28.1682    9.8794 H         1 UNK         0.0638 
     97 H97       -54.9005  -29.1821    9.9132 H         1 UNK         0.0638 
     98 H98       -55.5290  -26.8583    9.6938 H         1 UNK         0.0568 
     99 H99       -56.0052  -26.9497   13.2497 H         1 UNK         0.3450 
    100 H100      -57.6603  -27.4971   13.1127 H         1 UNK         0.3450 
    101 H101      -53.7438  -26.2691   11.9043 H         1 UNK         0.2987 
    102 H102      -53.0625  -23.8580   11.5998 H         1 UNK         0.0766 
    103 H103      -55.5039  -22.0335   11.8858 H         1 UNK         0.0798 
    104 H104      -53.8186  -21.5547   12.0794 H         1 UNK         0.0798 
    105 H105      -54.4161  -22.0851   10.5159 H         1 UNK         0.0798 
    106 H106      -53.2336  -24.2727   13.7770 H         1 UNK         0.3198 
    107 H107      -54.5222  -23.2383   16.1056 H         1 UNK         0.0843 
    108 H108      -56.9374  -23.6816   16.3875 H         1 UNK         0.0831 
    109 H109      -56.0236  -24.6579   17.5228 H         1 UNK         0.0831 
    110 H110      -56.6992  -25.3937   16.0692 H         1 UNK         0.0831 
    111 H111      -53.1680  -24.9198   16.6123 H         1 UNK         0.3133 
    112 H112      -53.0516  -27.5266   17.1997 H         1 UNK         0.0566 
    113 H113      -52.0025  -29.3997   16.0088 H         1 UNK         0.0814 
    114 H114      -53.6738  -29.2499   15.4874 H         1 UNK         0.0814 
    115 H115      -52.3732  -28.6667   14.4543 H         1 UNK         0.0814 
    116 H116      -50.8465  -27.0609   15.3569 H         1 UNK         0.3091 
    117 H117      -49.5407  -24.2653   17.2087 H         1 UNK         0.0702 
    118 H118      -47.5097  -25.6835   16.8836 H         1 UNK         0.0785 
    119 H119      -48.5274  -27.0870   16.5654 H         1 UNK         0.0785 
    120 H120      -48.5423  -26.3300   18.1500 H         1 UNK         0.0785 
    121 H121      -48.7203  -25.3153   14.7194 H         1 UNK         0.2998 
    122 H122      -50.8687  -23.3876   12.5977 H         1 UNK         0.0697 
    123 H123      -47.8525  -23.4060   13.1654 H         1 UNK         0.0825 
    124 H124      -48.8954  -21.9958   13.2139 H         1 UNK         0.0825 
    125 H125      -48.6281  -22.8249   11.6958 H         1 UNK         0.0825 
    126 H126      -48.8997  -25.4548   12.1549 H         1 UNK         0.3029 
    127 H127      -51.1490  -28.1958   12.1495 H         1 UNK         0.0897 
    128 H128      -49.7879  -26.7796    9.8003 H         1 UNK         0.0792 
    129 H129      -51.4912  -27.1632    9.9081 H         1 UNK         0.0792 
    130 H130      -50.3016  -28.4505    9.8508 H         1 UNK         0.0792 
    131 H131      -48.3514  -27.8738   11.5469 H         1 UNK         0.3086 
    132 H132      -47.2526  -28.3066   14.8946 H         1 UNK         0.0583 
    133 H133      -46.1921  -30.3643   14.3107 H         1 UNK         0.1020 
    134 H134      -47.8926  -30.6604   14.4219 H         1 UNK         0.1020 
    135 H135      -48.0951  -32.9842   11.7216 H         1 UNK         0.0694 
    136 H136      -48.8008  -32.2475   13.1287 H         1 UNK         0.0694 
    137 H137      -45.8102  -28.4077   12.4639 H         1 UNK         0.2989 
    138 H138      -44.5734  -25.2886   12.7881 H         1 UNK         0.1055 
    139 H139      -43.7722  -27.5815   12.2007 H         1 UNK         0.0806 
    140 H140      -43.5088  -26.4620   10.8813 H         1 UNK         0.0806 
    141 H141      -44.8333  -27.6121   10.7907 H         1 UNK         0.0806 
    142 H142      -45.4399  -24.0900   11.1239 H         1 UNK         0.3061 
    143 H143      -47.0467  -23.2877    9.7657 H         1 UNK         0.0734 
    144 H144      -46.7549  -23.5862    7.2872 H         1 UNK         0.0832 
    145 H145      -45.3733  -24.2454    8.1527 H         1 UNK         0.0832 
    146 H146      -46.6035  -25.3263    7.5070 H         1 UNK         0.0832 
    147 H147      -48.9342  -25.4192    8.9879 H         1 UNK         0.3156 
    148 H148      -51.2497  -24.5951    9.6842 H         1 UNK         0.0589 
    149 H149      -51.8625  -22.0873    8.0237 H         1 UNK         0.0808 
    150 H150      -53.0539  -23.1207    8.8081 H         1 UNK         0.0808 
    151 H151      -51.9280  -22.1858    9.7789 H         1 UNK         0.0808 
    152 H152      -50.3980  -24.6080    6.9249 H         1 UNK         0.3098 
    153 H153      -53.0271  -26.7758    5.8125 H         1 UNK         0.0720 
    154 H154      -52.5353  -25.4265    3.8147 H         1 UNK         0.0791 
    155 H155      -51.5690  -24.2968    4.7595 H         1 UNK         0.0791 
    156 H156      -53.2979  -24.4258    5.0394 H         1 UNK         0.0791 
    157 H157      -51.2291  -27.9022    5.3341 H         1 UNK         0.3028 
@<TRIPOS>BOND
     1    1    2 1    
     2    1   82 1    
     3    1   83 1    
     4    1   84 1    
     5    2    3 2    
     6    2    4 am   BACKBONE|DICT|INTERRES
     7    4    5 1    
     8    4   85 1    
     9    5    6 1    
    10    5   80 1    
    11    5   86 1    
    12    6    7 1    
    13    6   87 1    
    14    6   88 1    
    15    7    8 1    
    16    8    9 1    
    17    8   89 1    
    18    8   90 1    
    19    9   10 ar   
    20    9   14 ar   
    21   10   11 ar   
    22   10   91 1    
    23   11   12 ar   
    24   11   58 1    
    25   12   13 ar   
    26   12   92 1    
    27   13   14 ar   
    28   13   15 1    
    29   14   93 1    
    30   15   16 1    
    31   15   94 1    
    32   15   95 1    
    33   16   17 1    
    34   17   18 1    
    35   17   96 1    
    36   17   97 1    
    37   18   19 1    
    38   18   22 1    
    39   18   98 1    
    40   19   20 am   BACKBONE|DICT|INTERRES
    41   19   21 2    
    42   20   99 1    
    43   20  100 1    
    44   22   23 am   BACKBONE|DICT|INTERRES
    45   22  101 1    
    46   23   24 2    
    47   23   25 1    
    48   25   26 1    
    49   25   27 1    
    50   25  102 1    
    51   26  103 1    
    52   26  104 1    
    53   26  105 1    
    54   27   28 am   BACKBONE|DICT|INTERRES
    55   27  106 1    
    56   28   29 2    
    57   28   30 1    
    58   30   31 1    
    59   30   32 1    
    60   30  107 1    
    61   31  108 1    
    62   31  109 1    
    63   31  110 1    
    64   32   33 am   BACKBONE|DICT|INTERRES
    65   32  111 1    
    66   33   34 2    
    67   33   35 1    
    68   35   36 1    
    69   35   37 1    
    70   35  112 1    
    71   36  113 1    
    72   36  114 1    
    73   36  115 1    
    74   37   38 am   BACKBONE|DICT|INTERRES
    75   37  116 1    
    76   38   39 2    
    77   38   40 1    
    78   40   41 1    
    79   40   42 1    
    80   40  117 1    
    81   41  118 1    
    82   41  119 1    
    83   41  120 1    
    84   42   43 am   BACKBONE|DICT|INTERRES
    85   42  121 1    
    86   43   44 2    
    87   43   45 1    
    88   45   46 1    
    89   45   47 1    
    90   45  122 1    
    91   46  123 1    
    92   46  124 1    
    93   46  125 1    
    94   47   48 am   BACKBONE|DICT|INTERRES
    95   47  126 1    
    96   48   49 2    
    97   48   50 1    
    98   50   51 1    
    99   50   52 1    
   100   50  127 1    
   101   51  128 1    
   102   51  129 1    
   103   51  130 1    
   104   52   53 am   BACKBONE|DICT|INTERRES
   105   52  131 1    
   106   53   54 2    
   107   53   55 1    
   108   55   56 1    
   109   55   59 1    
   110   55  132 1    
   111   56   57 1    
   112   56  133 1    
   113   56  134 1    
   114   57   58 1    
   115   58  135 1    
   116   58  136 1    
   117   59   60 am   BACKBONE|DICT|INTERRES
   118   59  137 1    
   119   60   61 2    
   120   60   62 1    
   121   62   63 1    
   122   62   64 1    
   123   62  138 1    
   124   63  139 1    
   125   63  140 1    
   126   63  141 1    
   127   64   65 am   BACKBONE|DICT|INTERRES
   128   64  142 1    
   129   65   66 2    
   130   65   67 1    
   131   67   68 1    
   132   67   69 1    
   133   67  143 1    
   134   68  144 1    
   135   68  145 1    
   136   68  146 1    
   137   69   70 am   BACKBONE|DICT|INTERRES
   138   69  147 1    
   139   70   71 2    
   140   70   72 1    
   141   72   73 1    
   142   72   74 1    
   143   72  148 1    
   144   73  149 1    
   145   73  150 1    
   146   73  151 1    
   147   74   75 am   BACKBONE|DICT|INTERRES
   148   74  152 1    
   149   75   76 2    
   150   75   77 1    
   151   77   78 1    
   152   77   79 1    
   153   77  153 1    
   154   78  154 1    
   155   78  155 1    
   156   78  156 1    
   157   79   80 am   BACKBONE|DICT|INTERRES
   158   79  157 1    
   159   80   81 2    
@<TRIPOS>SUBSTRUCTURE
     1 UNK         1 GROUP             0       ****    0 ROOT    
