@<TRIPOS>MOLECULE
3R207
157   159    1
SMALL
USER_CHARGES


@<TRIPOS>ATOM
      1 CA        -50.6527  -24.6783    4.7359 C.3       0 UNK        -0.1975 
      2 C         -50.6353  -25.4808    3.4355 C.2       0 UNK         0.4852 
      3 O         -50.4465  -24.8957    2.3703 O.2       0 UNK        -0.5216 
      4 N         -50.8430  -26.8052    3.4606 N.am      1 UNK        -0.4461 
      5 CA        -51.0125  -27.6491    4.6493 C.3       1 UNK         0.0864 
      6 C6        -51.7525  -28.9714    4.3221 C.3       14 UNK        -0.0898 
      7 S7        -53.4039  -28.7866    3.5566 S.3       14 UNK        -0.2598 
      8 C8        -54.2396  -27.4968    4.5486 C.3       14 UNK         0.0286 
      9 C9        -54.1914  -27.7441    6.0540 C.ar      14 UNK        -0.0844 
     10 C10       -53.7483  -26.7300    6.9105 C.ar      14 UNK        -0.0881 
     11 C11       -53.6631  -26.9462    8.2879 C.ar      14 UNK        -0.0643 
     12 C12       -54.0584  -28.1772    8.8140 C.ar      14 UNK        -0.0930 
     13 C13       -54.5160  -29.1963    7.9728 C.ar      14 UNK        -0.0827 
     14 C14       -54.5858  -28.9731    6.5945 C.ar      14 UNK        -0.1249 
     15 C15       -54.9360  -30.5319    8.5646 C.3       14 UNK         0.0141 
     16 S16       -53.5151  -31.3994    9.3032 S.3       14 UNK        -0.2313 
     17 C17       -54.3522  -32.4437   10.5434 C.3       14 UNK        -0.0915 
     18 CA        -54.7843  -31.6577   11.8148 C.3       13 UNK         0.0968 
     19 C         -55.5424  -32.5535   12.8380 C.2       13 UNK         0.5732 
     20 N         -55.3262  -32.4150   14.1419 N.am      13 UNK        -0.7310 
     21 O         -56.3591  -33.3844   12.4469 O.2       13 UNK        -0.5035 
     22 N         -53.6615  -30.9259   12.4222 N.am      13 UNK        -0.4233 
     23 C         -53.6684  -29.6211   12.7090 C.2       13 UNK         0.4989 
     24 O         -54.5742  -28.8425   12.4031 O.2       13 UNK        -0.4996 
     25 CA        -52.4638  -29.0993   13.5105 C.3       12 UNK         0.0216 
     26 CB        -51.6688  -28.0704   12.6918 C.3       12 UNK        -0.1964 
     27 N         -52.8909  -28.4893   14.7724 N.am      12 UNK        -0.4276 
     28 C         -53.6120  -29.1045   15.7239 C.2       12 UNK         0.5020 
     29 O         -53.9036  -30.3024   15.6862 O.2       12 UNK        -0.5489 
     30 CA        -54.0897  -28.2639   16.9253 C.3       11 UNK         0.0294 
     31 CB        -53.3307  -28.6696   18.1999 C.3       11 UNK        -0.2019 
     32 N         -53.9520  -26.8178   16.7356 N.am      11 UNK        -0.4493 
     33 C         -54.6672  -26.0617   15.8898 C.2       11 UNK         0.4932 
     34 O         -55.6034  -26.4938   15.2183 O.2       11 UNK        -0.5029 
     35 CA        -54.2723  -24.5747   15.7620 C.3       10 UNK         0.0280 
     36 CB        -55.3930  -23.6693   16.3005 C.3       10 UNK        -0.1976 
     37 N         -53.0144  -24.2266   16.4358 N.am      10 UNK        -0.4242 
     38 C         -51.7940  -24.6285   16.0553 C.2       10 UNK         0.5072 
     39 O         -51.5815  -25.3415   15.0736 O.2       10 UNK        -0.5224 
     40 CA        -50.6501  -24.2586   17.0046 C.3       9 UNK         0.0343 
     41 CB        -50.4733  -25.3554   18.0739 C.3       9 UNK        -0.2003 
     42 N         -49.3992  -24.0683   16.2724 N.am      9 UNK        -0.4272 
     43 C         -48.3617  -23.3593   16.7403 C.2       9 UNK         0.4988 
     44 O         -48.3639  -22.7844   17.8303 O.2       9 UNK        -0.5108 
     45 CA        -47.1058  -23.2644   15.8614 C.3       8 UNK         0.0248 
     46 CB        -46.2642  -24.5477   15.9602 C.3       8 UNK        -0.2001 
     47 N         -47.4261  -22.9739   14.4645 N.am      8 UNK        -0.4140 
     48 C         -47.7552  -21.7583   14.0041 C.2       8 UNK         0.5028 
     49 O         -47.7964  -20.7483   14.7084 O.2       8 UNK        -0.5428 
     50 CA        -48.0783  -21.6304   12.5046 C.3       7 UNK         0.0264 
     51 CB        -46.8154  -21.2406   11.7196 C.3       7 UNK        -0.1988 
     52 N         -48.6480  -22.8484   11.9263 N.am      7 UNK        -0.4454 
     53 C         -49.8728  -23.3208   12.2033 C.2       7 UNK         0.5027 
     54 O         -50.6855  -22.7315   12.9167 O.2       7 UNK        -0.5083 
     55 CA        -50.2424  -24.6909   11.5961 C.3       6 UNK         0.0844 
     56 C56       -50.8121  -24.4975   10.1678 C.3       14 UNK        -0.0967 
     57 S57       -51.3103  -26.0566    9.3630 S.3       14 UNK        -0.2604 
     58 C58       -53.1089  -25.8634    9.1995 C.3       14 UNK         0.0134 
     59 N         -49.1227  -25.6434   11.6446 N.am      6 UNK        -0.4116 
     60 C         -48.4898  -26.0390   12.7608 C.2       5 UNK         0.5034 
     61 O         -48.7659  -25.6390   13.8897 O.2       5 UNK        -0.5045 
     62 CA        -47.3138  -27.0078   12.5926 C.3       5 UNK         0.0224 
     63 CB        -47.8097  -28.4472   12.3742 C.3       5 UNK        -0.1978 
     64 N         -46.4529  -26.5917   11.4866 N.am      5 UNK        -0.4737 
     65 C         -45.5415  -25.6131   11.5723 C.2       4 UNK         0.5027 
     66 O         -45.2754  -25.0189   12.6163 O.2       4 UNK        -0.5211 
     67 CA        -44.8170  -25.2112   10.2748 C.3       4 UNK         0.0297 
     68 CB        -43.5416  -26.0486   10.0906 C.3       4 UNK        -0.1993 
     69 N         -45.6538  -25.3264    9.0770 N.am      4 UNK        -0.4486 
     70 C         -46.7475  -24.5886    8.8438 C.2       3 UNK         0.4961 
     71 O         -47.1660  -23.7196    9.6083 O.2       3 UNK        -0.5105 
     72 CA        -47.5387  -24.9028    7.5628 C.3       3 UNK         0.0299 
     73 CB        -46.9121  -24.1879    6.3552 C.3       3 UNK        -0.1972 
     74 N         -47.7129  -26.3282    7.2512 N.am      3 UNK        -0.4305 
     75 C         -48.1223  -27.2884    8.0937 C.2       2 UNK         0.5006 
     76 O         -48.2142  -27.1388    9.3112 O.2       2 UNK        -0.5106 
     77 CA        -48.5584  -28.6194    7.4557 C.3       2 UNK         0.0296 
     78 CB        -48.9218  -29.6844    8.5086 C.3       2 UNK        -0.2002 
     79 N         -49.7186  -28.4013    6.5887 N.am      2 UNK        -0.4032 
     80 C         -49.6609  -27.9344    5.3348 C.2       1 UNK         0.5000 
     81 O         -48.5991  -27.7029    4.7484 O.2       1 UNK        -0.5238 
     82 H82       -50.3567  -23.6461    4.5494 H         1 UNK         0.0889 
     83 H83       -49.9624  -25.0863    5.4719 H         1 UNK         0.0889 
     84 H84       -51.6543  -24.6625    5.1634 H         1 UNK         0.0889 
     85 H85       -50.8162  -27.3086    2.5859 H         1 UNK         0.3028 
     86 H86       -51.6021  -27.0955    5.3753 H         1 UNK         0.0864 
     87 H87       -51.8893  -29.5665    5.2272 H         1 UNK         0.0720 
     88 H88       -51.1483  -29.5856    3.6514 H         1 UNK         0.0720 
     89 H89       -55.2839  -27.4429    4.2385 H         1 UNK         0.0814 
     90 H90       -53.8014  -26.5295    4.2982 H         1 UNK         0.0814 
     91 H91       -53.4447  -25.7744    6.5061 H         1 UNK         0.1469 
     92 H92       -53.9896  -28.3513    9.8788 H         1 UNK         0.1381 
     93 H93       -54.9352  -29.7584    5.9381 H         1 UNK         0.1206 
     94 H94       -55.7046  -30.3472    9.3147 H         1 UNK         0.0813 
     95 H95       -55.3913  -31.1734    7.8086 H         1 UNK         0.0813 
     96 H96       -55.2130  -32.9159   10.0664 H         1 UNK         0.0638 
     97 H97       -53.6716  -33.2527   10.8140 H         1 UNK         0.0638 
     98 H98       -55.5429  -30.9415   11.4996 H         1 UNK         0.0568 
     99 H99       -55.8323  -33.0043   14.7831 H         1 UNK         0.3450 
    100 H100      -54.7100  -31.6955   14.5074 H         1 UNK         0.3450 
    101 H101      -52.8897  -31.4964   12.7349 H         1 UNK         0.2987 
    102 H102      -51.8008  -29.9317   13.7547 H         1 UNK         0.0766 
    103 H103      -51.2832  -28.5094   11.7705 H         1 UNK         0.0798 
    104 H104      -50.8178  -27.6941   13.2577 H         1 UNK         0.0798 
    105 H105      -52.2855  -27.2155   12.4110 H         1 UNK         0.0798 
    106 H106      -52.6953  -27.5029   14.8838 H         1 UNK         0.3198 
    107 H107      -55.1492  -28.4857   17.0698 H         1 UNK         0.0843 
    108 H108      -52.2626  -28.4636   18.1175 H         1 UNK         0.0831 
    109 H109      -53.4412  -29.7370   18.3967 H         1 UNK         0.0831 
    110 H110      -53.7101  -28.1415   19.0749 H         1 UNK         0.0831 
    111 H111      -53.2116  -26.3665   17.2507 H         1 UNK         0.3133 
    112 H112      -54.1487  -24.3674   14.6968 H         1 UNK         0.0566 
    113 H113      -55.1617  -22.6151   16.1464 H         1 UNK         0.0814 
    114 H114      -56.3364  -23.8678   15.7898 H         1 UNK         0.0814 
    115 H115      -55.5617  -23.8256   17.3668 H         1 UNK         0.0814 
    116 H116      -53.0977  -23.6626   17.2702 H         1 UNK         0.3091 
    117 H117      -50.9116  -23.3183   17.4954 H         1 UNK         0.0702 
    118 H118      -51.3936  -25.5124   18.6377 H         1 UNK         0.0785 
    119 H119      -50.1956  -26.3099   17.6245 H         1 UNK         0.0785 
    120 H120      -49.7004  -25.0904   18.7954 H         1 UNK         0.0785 
    121 H121      -49.3387  -24.5360   15.3682 H         1 UNK         0.2998 
    122 H122      -46.4943  -22.4453   16.2463 H         1 UNK         0.0697 
    123 H123      -46.8097  -25.4250   15.6138 H         1 UNK         0.0825 
    124 H124      -45.9688  -24.7383   16.9927 H         1 UNK         0.0825 
    125 H125      -45.3502  -24.4684   15.3714 H         1 UNK         0.0825 
    126 H126      -47.4486  -23.7611   13.8302 H         1 UNK         0.3029 
    127 H127      -48.8114  -20.8283   12.3940 H         1 UNK         0.0897 
    128 H128      -47.0421  -21.0605   10.6685 H         1 UNK         0.0792 
    129 H129      -46.0549  -22.0215   11.7680 H         1 UNK         0.0792 
    130 H130      -46.3729  -20.3261   12.1171 H         1 UNK         0.0792 
    131 H131      -48.0682  -23.3469   11.2541 H         1 UNK         0.3086 
    132 H132      -51.0347  -25.1088   12.2201 H         1 UNK         0.0583 
    133 H133      -51.6671  -23.8191   10.1930 H         1 UNK         0.1020 
    134 H134      -50.0711  -24.0181    9.5261 H         1 UNK         0.1020 
    135 H135      -53.5729  -25.9164   10.1858 H         1 UNK         0.0694 
    136 H136      -53.3413  -24.8781    8.7924 H         1 UNK         0.0694 
    137 H137      -48.8441  -26.0592   10.7592 H         1 UNK         0.2989 
    138 H138      -46.7304  -26.9915   13.5163 H         1 UNK         0.1055 
    139 H139      -48.3887  -28.7898   13.2327 H         1 UNK         0.0806 
    140 H140      -46.9768  -29.1389   12.2486 H         1 UNK         0.0806 
    141 H141      -48.4523  -28.5339   11.4980 H         1 UNK         0.0806 
    142 H142      -46.6961  -26.9544   10.5704 H         1 UNK         0.3061 
    143 H143      -44.5254  -24.1634   10.3759 H         1 UNK         0.0734 
    144 H144      -42.8892  -25.9598   10.9606 H         1 UNK         0.0832 
    145 H145      -42.9692  -25.7168    9.2242 H         1 UNK         0.0832 
    146 H146      -43.7680  -27.1077    9.9607 H         1 UNK         0.0832 
    147 H147      -45.3991  -26.0315    8.4006 H         1 UNK         0.3156 
    148 H148      -48.5420  -24.4973    7.7036 H         1 UNK         0.0589 
    149 H149      -45.9234  -24.5838    6.1202 H         1 UNK         0.0808 
    150 H150      -47.5324  -24.2878    5.4645 H         1 UNK         0.0808 
    151 H151      -46.7982  -23.1202    6.5489 H         1 UNK         0.0808 
    152 H152      -47.6820  -26.5781    6.2685 H         1 UNK         0.3098 
    153 H153      -47.7221  -28.9988    6.8647 H         1 UNK         0.0720 
    154 H154      -49.1984  -30.6286    8.0393 H         1 UNK         0.0791 
    155 H155      -49.7559  -29.3654    9.1360 H         1 UNK         0.0791 
    156 H156      -48.0765  -29.8859    9.1680 H         1 UNK         0.0791 
    157 H157      -50.6224  -28.5259    7.0238 H         1 UNK         0.3028 
@<TRIPOS>BOND
     1    1    2 1    
     2    1   82 1    
     3    1   83 1    
     4    1   84 1    
     5    2    3 2    
     6    2    4 am   BACKBONE|DICT|INTERRES
     7    4    5 1    
     8    4   85 1    
     9    5    6 1    
    10    5   80 1    
    11    5   86 1    
    12    6    7 1    
    13    6   87 1    
    14    6   88 1    
    15    7    8 1    
    16    8    9 1    
    17    8   89 1    
    18    8   90 1    
    19    9   10 ar   
    20    9   14 ar   
    21   10   11 ar   
    22   10   91 1    
    23   11   12 ar   
    24   11   58 1    
    25   12   13 ar   
    26   12   92 1    
    27   13   14 ar   
    28   13   15 1    
    29   14   93 1    
    30   15   16 1    
    31   15   94 1    
    32   15   95 1    
    33   16   17 1    
    34   17   18 1    
    35   17   96 1    
    36   17   97 1    
    37   18   19 1    
    38   18   22 1    
    39   18   98 1    
    40   19   20 am   BACKBONE|DICT|INTERRES
    41   19   21 2    
    42   20   99 1    
    43   20  100 1    
    44   22   23 am   BACKBONE|DICT|INTERRES
    45   22  101 1    
    46   23   24 2    
    47   23   25 1    
    48   25   26 1    
    49   25   27 1    
    50   25  102 1    
    51   26  103 1    
    52   26  104 1    
    53   26  105 1    
    54   27   28 am   BACKBONE|DICT|INTERRES
    55   27  106 1    
    56   28   29 2    
    57   28   30 1    
    58   30   31 1    
    59   30   32 1    
    60   30  107 1    
    61   31  108 1    
    62   31  109 1    
    63   31  110 1    
    64   32   33 am   BACKBONE|DICT|INTERRES
    65   32  111 1    
    66   33   34 2    
    67   33   35 1    
    68   35   36 1    
    69   35   37 1    
    70   35  112 1    
    71   36  113 1    
    72   36  114 1    
    73   36  115 1    
    74   37   38 am   BACKBONE|DICT|INTERRES
    75   37  116 1    
    76   38   39 2    
    77   38   40 1    
    78   40   41 1    
    79   40   42 1    
    80   40  117 1    
    81   41  118 1    
    82   41  119 1    
    83   41  120 1    
    84   42   43 am   BACKBONE|DICT|INTERRES
    85   42  121 1    
    86   43   44 2    
    87   43   45 1    
    88   45   46 1    
    89   45   47 1    
    90   45  122 1    
    91   46  123 1    
    92   46  124 1    
    93   46  125 1    
    94   47   48 am   BACKBONE|DICT|INTERRES
    95   47  126 1    
    96   48   49 2    
    97   48   50 1    
    98   50   51 1    
    99   50   52 1    
   100   50  127 1    
   101   51  128 1    
   102   51  129 1    
   103   51  130 1    
   104   52   53 am   BACKBONE|DICT|INTERRES
   105   52  131 1    
   106   53   54 2    
   107   53   55 1    
   108   55   56 1    
   109   55   59 1    
   110   55  132 1    
   111   56   57 1    
   112   56  133 1    
   113   56  134 1    
   114   57   58 1    
   115   58  135 1    
   116   58  136 1    
   117   59   60 am   BACKBONE|DICT|INTERRES
   118   59  137 1    
   119   60   61 2    
   120   60   62 1    
   121   62   63 1    
   122   62   64 1    
   123   62  138 1    
   124   63  139 1    
   125   63  140 1    
   126   63  141 1    
   127   64   65 am   BACKBONE|DICT|INTERRES
   128   64  142 1    
   129   65   66 2    
   130   65   67 1    
   131   67   68 1    
   132   67   69 1    
   133   67  143 1    
   134   68  144 1    
   135   68  145 1    
   136   68  146 1    
   137   69   70 am   BACKBONE|DICT|INTERRES
   138   69  147 1    
   139   70   71 2    
   140   70   72 1    
   141   72   73 1    
   142   72   74 1    
   143   72  148 1    
   144   73  149 1    
   145   73  150 1    
   146   73  151 1    
   147   74   75 am   BACKBONE|DICT|INTERRES
   148   74  152 1    
   149   75   76 2    
   150   75   77 1    
   151   77   78 1    
   152   77   79 1    
   153   77  153 1    
   154   78  154 1    
   155   78  155 1    
   156   78  156 1    
   157   79   80 am   BACKBONE|DICT|INTERRES
   158   79  157 1    
   159   80   81 2    
@<TRIPOS>SUBSTRUCTURE
     1 UNK         1 GROUP             0       ****    0 ROOT    
