@<TRIPOS>MOLECULE
3R207
157   159    1
SMALL
USER_CHARGES


@<TRIPOS>ATOM
      1 CA        -52.1754  -29.9840    6.1670 C.3       0 UNK        -0.1975 
      2 C         -51.2807  -30.1894    4.9479 C.2       0 UNK         0.4852 
      3 O         -51.7211  -30.8019    3.9760 O.2       0 UNK        -0.5216 
      4 N         -50.0333  -29.7035    4.9372 N.am      1 UNK        -0.4461 
      5 CA        -49.3752  -28.8901    5.9633 C.3       1 UNK         0.0864 
      6 C6        -48.2652  -29.6700    6.7183 C.3       14 UNK        -0.0898 
      7 S7        -48.8650  -31.1044    7.6732 S.3       14 UNK        -0.2598 
      8 C8        -49.0527  -30.4201    9.3537 C.3       14 UNK         0.0286 
      9 C9        -50.4696  -29.9249    9.5940 C.ar      14 UNK        -0.0844 
     10 C10       -50.8067  -28.5830    9.3871 C.ar      14 UNK        -0.0881 
     11 C11       -52.1294  -28.1450    9.5548 C.ar      14 UNK        -0.0643 
     12 C12       -53.0977  -29.0657    9.9665 C.ar      14 UNK        -0.0930 
     13 C13       -52.7659  -30.4013   10.2090 C.ar      14 UNK        -0.0827 
     14 C14       -51.4511  -30.8259   10.0135 C.ar      14 UNK        -0.1249 
     15 C15       -53.8290  -31.3932   10.6597 C.3       14 UNK         0.0141 
     16 S16       -53.7491  -31.7260   12.4504 S.3       14 UNK        -0.2313 
     17 C17       -54.3444  -30.1481   13.1426 C.3       14 UNK        -0.0915 
     18 CA        -55.8867  -30.1076   13.3009 C.3       13 UNK         0.0968 
     19 C         -56.3451  -30.7657   14.6327 C.2       13 UNK         0.5732 
     20 N         -56.5810  -32.0703   14.6351 N.am      13 UNK        -0.7310 
     21 O         -56.4561  -30.1095   15.6671 O.2       13 UNK        -0.5035 
     22 N         -56.3963  -28.7370   13.1458 N.am      13 UNK        -0.4233 
     23 C         -57.6916  -28.4280   12.9881 C.2       13 UNK         0.4989 
     24 O         -58.5740  -29.2731   12.8293 O.2       13 UNK        -0.4996 
     25 CA        -58.0985  -26.9421   13.0274 C.3       12 UNK         0.0216 
     26 CB        -58.9885  -26.6645   14.2518 C.3       12 UNK        -0.1964 
     27 N         -56.9619  -26.0198   13.0604 N.am      12 UNK        -0.4276 
     28 C         -56.2968  -25.5729   11.9869 C.2       12 UNK         0.5020 
     29 O         -56.5762  -25.8783   10.8276 O.2       12 UNK        -0.5489 
     30 CA        -55.1070  -24.6335   12.2607 C.3       11 UNK         0.0294 
     31 CB        -55.5541  -23.1639   12.2121 C.3       11 UNK        -0.2019 
     32 N         -54.4440  -24.9020   13.5431 N.am      11 UNK        -0.4493 
     33 C         -53.7527  -26.0188   13.8012 C.2       11 UNK         0.4932 
     34 O         -53.5928  -26.9262   12.9838 O.2       11 UNK        -0.5029 
     35 CA        -53.1946  -26.1805   15.2163 C.3       10 UNK         0.0280 
     36 CB        -54.2248  -26.8563   16.1393 C.3       10 UNK        -0.1976 
     37 N         -51.9947  -27.0011   15.1193 N.am      10 UNK        -0.4242 
     38 C         -50.9453  -26.9577   15.9455 C.2       10 UNK         0.5072 
     39 O         -50.9300  -26.3001   16.9878 O.2       10 UNK        -0.5224 
     40 CA        -49.7072  -27.7887   15.5534 C.3       9 UNK         0.0343 
     41 CB        -49.9425  -28.7440   14.3621 C.3       9 UNK        -0.2003 
     42 N         -48.5947  -26.8962   15.2299 N.am      9 UNK        -0.4272 
     43 C         -47.7364  -26.3625   16.1098 C.2       9 UNK         0.4988 
     44 O         -47.7124  -26.6423   17.3094 O.2       9 UNK        -0.5108 
     45 CA        -46.7200  -25.3460   15.5575 C.3       8 UNK         0.0248 
     46 CB        -45.5265  -26.0635   14.9061 C.3       8 UNK        -0.2001 
     47 N         -47.3158  -24.4065   14.6028 N.am      8 UNK        -0.4140 
     48 C         -48.1828  -23.4376   14.9340 C.2       8 UNK         0.5028 
     49 O         -48.5171  -23.1834   16.0918 O.2       8 UNK        -0.5428 
     50 CA        -48.7855  -22.6087   13.7847 C.3       7 UNK         0.0264 
     51 CB        -47.8637  -21.4360   13.4139 C.3       7 UNK        -0.1988 
     52 N         -49.0753  -23.4099   12.5926 N.am      7 UNK        -0.4454 
     53 C         -50.0215  -24.3602   12.5385 C.2       7 UNK         0.5027 
     54 O         -50.8014  -24.5879   13.4603 O.2       7 UNK        -0.5083 
     55 CA        -50.1007  -25.2185   11.2586 C.3       6 UNK         0.0844 
     56 C56       -51.0245  -24.5430   10.2176 C.3       14 UNK        -0.0967 
     57 S57       -51.2987  -25.5478    8.7202 S.3       14 UNK        -0.2604 
     58 C58       -52.5894  -26.7113    9.2809 C.3       14 UNK         0.0134 
     59 N         -48.7689  -25.5274   10.7288 N.am      6 UNK        -0.4116 
     60 C         -47.8360  -26.2439   11.3716 C.2       5 UNK         0.5034 
     61 O         -48.0225  -26.7934   12.4549 O.2       5 UNK        -0.5045 
     62 CA        -46.4386  -26.3034   10.7378 C.3       5 UNK         0.0224 
     63 CB        -46.3525  -27.3998    9.6668 C.3       5 UNK        -0.1978 
     64 N         -46.0545  -25.0149   10.1616 N.am      5 UNK        -0.4737 
     65 C         -45.6836  -23.9517   10.8862 C.2       4 UNK         0.5027 
     66 O         -45.5953  -23.9635   12.1136 O.2       4 UNK        -0.5211 
     67 CA        -45.3903  -22.6529   10.1151 C.3       4 UNK         0.0297 
     68 CB        -43.9274  -22.6259    9.6455 C.3       4 UNK        -0.1993 
     69 N         -46.2787  -22.4535    8.9656 N.am      4 UNK        -0.4486 
     70 C         -47.5934  -22.2140    9.0652 C.2       3 UNK         0.4961 
     71 O         -48.1925  -22.1218   10.1363 O.2       3 UNK        -0.5105 
     72 CA        -48.3857  -22.1092    7.7489 C.3       3 UNK         0.0299 
     73 CB        -48.2380  -20.7046    7.1425 C.3       3 UNK        -0.1972 
     74 N         -48.0567  -23.1231    6.7354 N.am      3 UNK        -0.4305 
     75 C         -48.0355  -24.4458    6.9470 C.2       2 UNK         0.5006 
     76 O         -48.1371  -24.9658    8.0600 O.2       2 UNK        -0.5106 
     77 CA        -47.8546  -25.3569    5.7303 C.3       2 UNK         0.0296 
     78 CB        -46.3611  -25.5292    5.3955 C.3       2 UNK        -0.2002 
     79 N         -48.4502  -26.6388    6.0928 N.am      2 UNK        -0.4032 
     80 C         -48.7711  -27.6480    5.2795 C.2       1 UNK         0.5000 
     81 O         -48.5869  -27.6346    4.0582 O.2       1 UNK        -0.5238 
     82 H82       -51.7102  -30.3923    7.0622 H         1 UNK         0.0889 
     83 H83       -53.1298  -30.4925    6.0334 H         1 UNK         0.0889 
     84 H84       -52.3828  -28.9265    6.3279 H         1 UNK         0.0889 
     85 H85       -49.4906  -29.7895    4.0881 H         1 UNK         0.3028 
     86 H86       -50.1044  -28.5217    6.6836 H         1 UNK         0.0864 
     87 H87       -47.7139  -29.0144    7.3926 H         1 UNK         0.0720 
     88 H88       -47.5246  -30.0428    6.0079 H         1 UNK         0.0720 
     89 H89       -48.3326  -29.6235    9.5312 H         1 UNK         0.0814 
     90 H90       -48.8146  -31.2024   10.0762 H         1 UNK         0.0814 
     91 H91       -50.0353  -27.8952    9.0758 H         1 UNK         0.1469 
     92 H92       -54.1191  -28.7362   10.1033 H         1 UNK         0.1381 
     93 H93       -51.1933  -31.8628   10.1813 H         1 UNK         0.1206 
     94 H94       -53.6957  -32.3332   10.1223 H         1 UNK         0.0813 
     95 H95       -54.8265  -31.0355   10.3996 H         1 UNK         0.0813 
     96 H96       -54.0108  -29.3555   12.4782 H         1 UNK         0.0638 
     97 H97       -53.8375  -29.9575   14.0906 H         1 UNK         0.0638 
     98 H98       -56.3280  -30.6799   12.4823 H         1 UNK         0.0568 
     99 H99       -56.8668  -32.5156   15.4927 H         1 UNK         0.3450 
    100 H100      -56.4609  -32.6201   13.7988 H         1 UNK         0.3450 
    101 H101      -55.7202  -27.9945   13.2501 H         1 UNK         0.2987 
    102 H102      -58.6878  -26.7457   12.1290 H         1 UNK         0.0766 
    103 H103      -59.8791  -27.2946   14.2405 H         1 UNK         0.0798 
    104 H104      -59.3297  -25.6291   14.2690 H         1 UNK         0.0798 
    105 H105      -58.4630  -26.8622   15.1872 H         1 UNK         0.0798 
    106 H106      -56.6602  -25.7026   13.9701 H         1 UNK         0.3198 
    107 H107      -54.3775  -24.7910   11.4643 H         1 UNK         0.0843 
    108 H108      -56.2743  -22.9321   12.9977 H         1 UNK         0.0831 
    109 H109      -56.0289  -22.9335   11.2572 H         1 UNK         0.0831 
    110 H110      -54.7064  -22.4871   12.3210 H         1 UNK         0.0831 
    111 H111      -54.5221  -24.1943   14.2602 H         1 UNK         0.3133 
    112 H112      -52.9315  -25.1945   15.6056 H         1 UNK         0.0566 
    113 H113      -54.5134  -27.8414   15.7697 H         1 UNK         0.0814 
    114 H114      -55.1326  -26.2579   16.2218 H         1 UNK         0.0814 
    115 H115      -53.8299  -26.9824   17.1474 H         1 UNK         0.0814 
    116 H116      -51.9287  -27.5228   14.2539 H         1 UNK         0.3091 
    117 H117      -49.4412  -28.3977   16.4198 H         1 UNK         0.0702 
    118 H118      -50.1832  -28.2082   13.4424 H         1 UNK         0.0785 
    119 H119      -50.7555  -29.4424   14.5663 H         1 UNK         0.0785 
    120 H120      -49.0530  -29.3420   14.1629 H         1 UNK         0.0785 
    121 H121      -48.4916  -26.6507   14.2480 H         1 UNK         0.2998 
    122 H122      -46.3403  -24.7661   16.4015 H         1 UNK         0.0697 
    123 H123      -44.7787  -25.3518   14.5553 H         1 UNK         0.0825 
    124 H124      -45.8332  -26.6721   14.0555 H         1 UNK         0.0825 
    125 H125      -45.0350  -26.7263   15.6194 H         1 UNK         0.0825 
    126 H126      -47.0353  -24.4969   13.6330 H         1 UNK         0.3029 
    127 H127      -49.7302  -22.1933   14.1427 H         1 UNK         0.0897 
    128 H128      -46.9027  -21.7804   13.0322 H         1 UNK         0.0792 
    129 H129      -47.6633  -20.8080   14.2830 H         1 UNK         0.0792 
    130 H130      -48.3173  -20.8008   12.6527 H         1 UNK         0.0792 
    131 H131      -48.5368  -23.2012   11.7564 H         1 UNK         0.3086 
    132 H132      -50.5590  -26.1684   11.5434 H         1 UNK         0.0583 
    133 H133      -51.9937  -24.3024   10.6588 H         1 UNK         0.1020 
    134 H134      -50.5990  -23.5889    9.9010 H         1 UNK         0.1020 
    135 H135      -53.0749  -26.3235   10.1767 H         1 UNK         0.0694 
    136 H136      -53.3593  -26.7431    8.5088 H         1 UNK         0.0694 
    137 H137      -48.5468  -25.1548    9.8074 H         1 UNK         0.2989 
    138 H138      -45.7251  -26.5496   11.5275 H         1 UNK         0.1055 
    139 H139      -45.3759  -27.4074    9.1826 H         1 UNK         0.0806 
    140 H140      -47.1092  -27.2733    8.8937 H         1 UNK         0.0806 
    141 H141      -46.4935  -28.3827   10.1160 H         1 UNK         0.0806 
    142 H142      -46.2002  -24.8984    9.1677 H         1 UNK         0.3061 
    143 H143      -45.5412  -21.8199   10.8052 H         1 UNK         0.0734 
    144 H144      -43.7146  -23.4247    8.9338 H         1 UNK         0.0832 
    145 H145      -43.6797  -21.6764    9.1708 H         1 UNK         0.0832 
    146 H146      -43.2464  -22.7517   10.4886 H         1 UNK         0.0832 
    147 H147      -45.8707  -22.5253    8.0448 H         1 UNK         0.3156 
    148 H148      -49.4381  -22.2534    8.0017 H         1 UNK         0.0589 
    149 H149      -48.9033  -20.5674    6.2899 H         1 UNK         0.0808 
    150 H150      -47.2179  -20.5128    6.8075 H         1 UNK         0.0808 
    151 H151      -48.4910  -19.9349    7.8734 H         1 UNK         0.0808 
    152 H152      -47.9383  -22.7876    5.7900 H         1 UNK         0.3098 
    153 H153      -48.3916  -24.9359    4.8780 H         1 UNK         0.0720 
    154 H154      -45.8990  -24.5710    5.1550 H         1 UNK         0.0791 
    155 H155      -46.2181  -26.1795    4.5324 H         1 UNK         0.0791 
    156 H156      -45.8086  -25.9594    6.2320 H         1 UNK         0.0791 
    157 H157      -48.6630  -26.6911    7.0821 H         1 UNK         0.3028 
@<TRIPOS>BOND
     1    1    2 1    
     2    1   82 1    
     3    1   83 1    
     4    1   84 1    
     5    2    3 2    
     6    2    4 am   BACKBONE|DICT|INTERRES
     7    4    5 1    
     8    4   85 1    
     9    5    6 1    
    10    5   80 1    
    11    5   86 1    
    12    6    7 1    
    13    6   87 1    
    14    6   88 1    
    15    7    8 1    
    16    8    9 1    
    17    8   89 1    
    18    8   90 1    
    19    9   10 ar   
    20    9   14 ar   
    21   10   11 ar   
    22   10   91 1    
    23   11   12 ar   
    24   11   58 1    
    25   12   13 ar   
    26   12   92 1    
    27   13   14 ar   
    28   13   15 1    
    29   14   93 1    
    30   15   16 1    
    31   15   94 1    
    32   15   95 1    
    33   16   17 1    
    34   17   18 1    
    35   17   96 1    
    36   17   97 1    
    37   18   19 1    
    38   18   22 1    
    39   18   98 1    
    40   19   20 am   BACKBONE|DICT|INTERRES
    41   19   21 2    
    42   20   99 1    
    43   20  100 1    
    44   22   23 am   BACKBONE|DICT|INTERRES
    45   22  101 1    
    46   23   24 2    
    47   23   25 1    
    48   25   26 1    
    49   25   27 1    
    50   25  102 1    
    51   26  103 1    
    52   26  104 1    
    53   26  105 1    
    54   27   28 am   BACKBONE|DICT|INTERRES
    55   27  106 1    
    56   28   29 2    
    57   28   30 1    
    58   30   31 1    
    59   30   32 1    
    60   30  107 1    
    61   31  108 1    
    62   31  109 1    
    63   31  110 1    
    64   32   33 am   BACKBONE|DICT|INTERRES
    65   32  111 1    
    66   33   34 2    
    67   33   35 1    
    68   35   36 1    
    69   35   37 1    
    70   35  112 1    
    71   36  113 1    
    72   36  114 1    
    73   36  115 1    
    74   37   38 am   BACKBONE|DICT|INTERRES
    75   37  116 1    
    76   38   39 2    
    77   38   40 1    
    78   40   41 1    
    79   40   42 1    
    80   40  117 1    
    81   41  118 1    
    82   41  119 1    
    83   41  120 1    
    84   42   43 am   BACKBONE|DICT|INTERRES
    85   42  121 1    
    86   43   44 2    
    87   43   45 1    
    88   45   46 1    
    89   45   47 1    
    90   45  122 1    
    91   46  123 1    
    92   46  124 1    
    93   46  125 1    
    94   47   48 am   BACKBONE|DICT|INTERRES
    95   47  126 1    
    96   48   49 2    
    97   48   50 1    
    98   50   51 1    
    99   50   52 1    
   100   50  127 1    
   101   51  128 1    
   102   51  129 1    
   103   51  130 1    
   104   52   53 am   BACKBONE|DICT|INTERRES
   105   52  131 1    
   106   53   54 2    
   107   53   55 1    
   108   55   56 1    
   109   55   59 1    
   110   55  132 1    
   111   56   57 1    
   112   56  133 1    
   113   56  134 1    
   114   57   58 1    
   115   58  135 1    
   116   58  136 1    
   117   59   60 am   BACKBONE|DICT|INTERRES
   118   59  137 1    
   119   60   61 2    
   120   60   62 1    
   121   62   63 1    
   122   62   64 1    
   123   62  138 1    
   124   63  139 1    
   125   63  140 1    
   126   63  141 1    
   127   64   65 am   BACKBONE|DICT|INTERRES
   128   64  142 1    
   129   65   66 2    
   130   65   67 1    
   131   67   68 1    
   132   67   69 1    
   133   67  143 1    
   134   68  144 1    
   135   68  145 1    
   136   68  146 1    
   137   69   70 am   BACKBONE|DICT|INTERRES
   138   69  147 1    
   139   70   71 2    
   140   70   72 1    
   141   72   73 1    
   142   72   74 1    
   143   72  148 1    
   144   73  149 1    
   145   73  150 1    
   146   73  151 1    
   147   74   75 am   BACKBONE|DICT|INTERRES
   148   74  152 1    
   149   75   76 2    
   150   75   77 1    
   151   77   78 1    
   152   77   79 1    
   153   77  153 1    
   154   78  154 1    
   155   78  155 1    
   156   78  156 1    
   157   79   80 am   BACKBONE|DICT|INTERRES
   158   79  157 1    
   159   80   81 2    
@<TRIPOS>SUBSTRUCTURE
     1 UNK         1 GROUP             0       ****    0 ROOT    
