@<TRIPOS>MOLECULE
3R207
157   159    1
SMALL
USER_CHARGES


@<TRIPOS>ATOM
      1 CA        -45.4801  -30.9407    4.2088 C.3       0 UNK        -0.1975 
      2 C         -45.5249  -29.9403    5.3541 C.2       0 UNK         0.4852 
      3 O         -44.5001  -29.7005    5.9935 O.2       0 UNK        -0.5216 
      4 N         -46.6984  -29.3400    5.5993 N.am      1 UNK        -0.4461 
      5 CA        -47.0401  -28.3884    6.6736 C.3       1 UNK         0.0864 
      6 C6        -46.8414  -28.9441    8.1098 C.3       14 UNK        -0.0898 
      7 S7        -47.6898  -30.5368    8.3999 S.3       14 UNK        -0.2598 
      8 C8        -48.5850  -30.2216    9.9625 C.3       14 UNK         0.0286 
      9 C9        -50.0461  -29.7935    9.8101 C.ar      14 UNK        -0.0844 
     10 C10       -50.5350  -29.1560    8.6609 C.ar      14 UNK        -0.0881 
     11 C11       -51.8798  -28.7835    8.5665 C.ar      14 UNK        -0.0643 
     12 C12       -52.7422  -29.0477    9.6339 C.ar      14 UNK        -0.0930 
     13 C13       -52.2680  -29.6675   10.7915 C.ar      14 UNK        -0.0827 
     14 C14       -50.9239  -30.0394   10.8718 C.ar      14 UNK        -0.1249 
     15 C15       -53.2109  -29.9349   11.9521 C.3       14 UNK         0.0141 
     16 S16       -53.1354  -28.5900   13.1708 S.3       14 UNK        -0.2313 
     17 C17       -54.5893  -28.9835   14.1974 C.3       14 UNK        -0.0915 
     18 CA        -55.8134  -28.0769   13.9037 C.3       13 UNK         0.0968 
     19 C         -57.0464  -28.5355   14.7381 C.2       13 UNK         0.5732 
     20 N         -57.5815  -27.7356   15.6546 N.am      13 UNK        -0.7310 
     21 O         -57.5335  -29.6466   14.5435 O.2       13 UNK        -0.5035 
     22 N         -55.4952  -26.6472   14.0429 N.am      13 UNK        -0.4233 
     23 C         -56.2145  -25.6596   13.4904 C.2       13 UNK         0.4989 
     24 O         -57.1510  -25.8594   12.7138 O.2       13 UNK        -0.4996 
     25 CA        -55.8484  -24.2080   13.8774 C.3       12 UNK         0.0216 
     26 CB        -57.0490  -23.2451   13.7555 C.3       12 UNK        -0.1964 
     27 N         -55.2246  -24.0767   15.2016 N.am      12 UNK        -0.4276 
     28 C         -55.7247  -24.4781   16.3790 C.2       12 UNK         0.5020 
     29 O         -56.8275  -25.0103   16.5247 O.2       12 UNK        -0.5489 
     30 CA        -54.7900  -24.3284   17.5929 C.3       11 UNK         0.0294 
     31 CB        -55.4684  -23.5243   18.7147 C.3       11 UNK        -0.2019 
     32 N         -54.3635  -25.6309   18.1162 N.am      11 UNK        -0.4493 
     33 C         -53.7637  -26.5918   17.4010 C.2       11 UNK         0.4932 
     34 O         -53.4800  -26.4845   16.2042 O.2       11 UNK        -0.5029 
     35 CA        -53.4546  -27.9038   18.1306 C.3       10 UNK         0.0280 
     36 CB        -54.7541  -28.6940   18.3937 C.3       10 UNK        -0.1976 
     37 N         -52.5464  -28.6650   17.2788 N.am      10 UNK        -0.4242 
     38 C         -51.9131  -29.8057   17.5666 C.2       10 UNK         0.5072 
     39 O         -51.9789  -30.3759   18.6564 O.2       10 UNK        -0.5224 
     40 CA        -51.0671  -30.4258   16.4413 C.3       9 UNK         0.0343 
     41 CB        -51.8890  -31.4618   15.6569 C.3       9 UNK        -0.2003 
     42 N         -50.5318  -29.4283   15.5087 N.am      9 UNK        -0.4272 
     43 C         -49.4232  -28.7111   15.7405 C.2       9 UNK         0.4988 
     44 O         -48.7583  -28.7896   16.7742 O.2       9 UNK        -0.5108 
     45 CA        -48.9633  -27.7630   14.6233 C.3       8 UNK         0.0248 
     46 CB        -48.2387  -28.5408   13.5121 C.3       8 UNK        -0.2001 
     47 N         -50.0627  -26.9955   14.0390 N.am      8 UNK        -0.4140 
     48 C         -50.6128  -25.9084   14.6003 C.2       8 UNK         0.5028 
     49 O         -50.2847  -25.4756   15.7062 O.2       8 UNK        -0.5428 
     50 CA        -51.6580  -25.1526   13.7583 C.3       7 UNK         0.0264 
     51 CB        -51.7781  -23.6638   14.1393 C.3       7 UNK        -0.1988 
     52 N         -51.3381  -25.2823   12.3391 N.am      7 UNK        -0.4454 
     53 C         -52.2083  -25.2986   11.3257 C.2       7 UNK         0.5027 
     54 O         -53.4155  -25.0917   11.4542 O.2       7 UNK        -0.5083 
     55 CA        -51.6067  -25.6021    9.9387 C.3       6 UNK         0.0844 
     56 C56       -52.6661  -25.6864    8.8105 C.3       14 UNK        -0.0967 
     57 S57       -51.9334  -26.3231    7.2611 S.3       14 UNK        -0.2604 
     58 C58       -52.4023  -28.0843    7.3180 C.3       14 UNK         0.0134 
     59 N         -50.5329  -24.6692    9.5926 N.am      6 UNK        -0.4116 
     60 C         -49.2683  -24.7176   10.0241 C.2       5 UNK         0.5034 
     61 O         -48.8775  -25.5072   10.8874 O.2       5 UNK        -0.5045 
     62 CA        -48.2882  -23.7267    9.3663 C.3       5 UNK         0.0224 
     63 CB        -46.8299  -23.9650    9.7997 C.3       5 UNK        -0.1978 
     64 N         -48.3613  -23.7971    7.9039 N.am      5 UNK        -0.4737 
     65 C         -49.2845  -23.2079    7.1342 C.2       4 UNK         0.5027 
     66 O         -50.1922  -22.5088    7.5890 O.2       4 UNK        -0.5211 
     67 CA        -49.1827  -23.4742    5.6191 C.3       4 UNK         0.0297 
     68 CB        -50.1944  -22.6521    4.7933 C.3       4 UNK        -0.1993 
     69 N         -47.8188  -23.2967    5.1042 N.am      4 UNK        -0.4486 
     70 C         -47.0610  -22.1906    5.1522 C.2       3 UNK         0.4961 
     71 O         -47.4421  -21.1134    5.6132 O.2       3 UNK        -0.5105 
     72 CA        -45.6222  -22.3281    4.6108 C.3       3 UNK         0.0299 
     73 CB        -44.7982  -21.0365    4.7731 C.3       3 UNK        -0.1972 
     74 N         -44.9120  -23.4279    5.2689 N.am      3 UNK        -0.4305 
     75 C         -45.0084  -24.7214    4.9356 C.2       2 UNK         0.5006 
     76 O         -45.6588  -25.1191    3.9659 O.2       2 UNK        -0.5106 
     77 CA        -44.2995  -25.7476    5.8457 C.3       2 UNK         0.0296 
     78 CB        -43.8305  -25.1682    7.2003 C.3       2 UNK        -0.2002 
     79 N         -45.1195  -26.9446    6.0715 N.am      2 UNK        -0.4032 
     80 C         -46.3749  -27.0002    6.5402 C.2       1 UNK         0.5000 
     81 O         -47.0229  -26.0043    6.8639 O.2       1 UNK        -0.5238 
     82 H82       -44.7589  -30.6197    3.4576 H         1 UNK         0.0889 
     83 H83       -46.4498  -31.0506    3.7236 H         1 UNK         0.0889 
     84 H84       -45.1742  -31.9188    4.5792 H         1 UNK         0.0889 
     85 H85       -47.4779  -29.5744    5.0002 H         1 UNK         0.3028 
     86 H86       -48.1071  -28.2028    6.5452 H         1 UNK         0.0864 
     87 H87       -45.7809  -29.0860    8.3249 H         1 UNK         0.0720 
     88 H88       -47.1996  -28.2128    8.8374 H         1 UNK         0.0720 
     89 H89       -48.5487  -31.1468   10.5400 H         1 UNK         0.0814 
     90 H90       -48.0531  -29.4785   10.5573 H         1 UNK         0.0814 
     91 H91       -49.8768  -28.9394    7.8339 H         1 UNK         0.1469 
     92 H92       -53.7823  -28.7585    9.5702 H         1 UNK         0.1381 
     93 H93       -50.5622  -30.5251   11.7677 H         1 UNK         0.1206 
     94 H94       -52.9573  -30.8798   12.4352 H         1 UNK         0.0813 
     95 H95       -54.2340  -30.0382   11.5866 H         1 UNK         0.0813 
     96 H96       -54.2997  -28.8926   15.2421 H         1 UNK         0.0638 
     97 H97       -54.8470  -30.0344   14.0534 H         1 UNK         0.0638 
     98 H98       -56.0865  -28.2456   12.8604 H         1 UNK         0.0568 
     99 H99       -58.3815  -28.0582   16.1739 H         1 UNK         0.3450 
    100 H100      -57.2145  -26.8051   15.8304 H         1 UNK         0.3450 
    101 H101      -54.7513  -26.4232   14.6952 H         1 UNK         0.2987 
    102 H102      -55.0970  -23.8881   13.1548 H         1 UNK         0.0766 
    103 H103      -57.4361  -23.2255   12.7359 H         1 UNK         0.0798 
    104 H104      -56.7667  -22.2238   14.0109 H         1 UNK         0.0798 
    105 H105      -57.8700  -23.5402   14.4100 H         1 UNK         0.0798 
    106 H106      -54.2907  -23.6930   15.1984 H         1 UNK         0.3198 
    107 H107      -53.8914  -23.7888   17.2863 H         1 UNK         0.0843 
    108 H108      -56.3530  -24.0341   19.0991 H         1 UNK         0.0831 
    109 H109      -55.7890  -22.5463   18.3532 H         1 UNK         0.0831 
    110 H110      -54.7890  -23.3528   19.5497 H         1 UNK         0.0831 
    111 H111      -54.5854  -25.8189   19.0832 H         1 UNK         0.3133 
    112 H112      -52.9519  -27.6771   19.0725 H         1 UNK         0.0566 
    113 H113      -55.2715  -28.9425   17.4667 H         1 UNK         0.0814 
    114 H114      -55.4492  -28.1195   19.0069 H         1 UNK         0.0814 
    115 H115      -54.5601  -29.6250   18.9259 H         1 UNK         0.0814 
    116 H116      -52.4043  -28.2331   16.3731 H         1 UNK         0.3091 
    117 H117      -50.2323  -30.9512   16.9106 H         1 UNK         0.0702 
    118 H118      -51.2864  -31.9487   14.8899 H         1 UNK         0.0785 
    119 H119      -52.7529  -31.0115   15.1691 H         1 UNK         0.0785 
    120 H120      -52.2623  -32.2439   16.3194 H         1 UNK         0.0785 
    121 H121      -51.0281  -29.2976   14.6386 H         1 UNK         0.2998 
    122 H122      -48.2480  -27.0607   15.0575 H         1 UNK         0.0697 
    123 H123      -48.8924  -29.2694   13.0331 H         1 UNK         0.0825 
    124 H124      -47.3829  -29.0857   13.9128 H         1 UNK         0.0825 
    125 H125      -47.8619  -27.8693   12.7397 H         1 UNK         0.0825 
    126 H126      -50.4076  -27.3003   13.1401 H         1 UNK         0.3029 
    127 H127      -52.6176  -25.6373   13.9415 H         1 UNK         0.0897 
    128 H128      -50.8372  -23.1361   13.9798 H         1 UNK         0.0792 
    129 H129      -52.0427  -23.5477   15.1909 H         1 UNK         0.0792 
    130 H130      -52.5459  -23.1619   13.5506 H         1 UNK         0.0792 
    131 H131      -50.3557  -25.4194   12.1084 H         1 UNK         0.3086 
    132 H132      -51.1568  -26.5913   10.0373 H         1 UNK         0.0583 
    133 H133      -53.5023  -26.3245    9.1006 H         1 UNK         0.1020 
    134 H134      -53.0969  -24.7024    8.6167 H         1 UNK         0.1020 
    135 H135      -53.4885  -28.1674    7.2557 H         1 UNK         0.0694 
    136 H136      -52.0081  -28.5827    6.4313 H         1 UNK         0.0694 
    137 H137      -50.7561  -23.9670    8.8957 H         1 UNK         0.2989 
    138 H138      -48.5766  -22.7238    9.6892 H         1 UNK         0.1055 
    139 H139      -46.4888  -24.9647    9.5265 H         1 UNK         0.0806 
    140 H140      -46.7209  -23.8666   10.8805 H         1 UNK         0.0806 
    141 H141      -46.1562  -23.2420    9.3397 H         1 UNK         0.0806 
    142 H142      -47.7310  -24.4654    7.4597 H         1 UNK         0.3061 
    143 H143      -49.4265  -24.5291    5.4824 H         1 UNK         0.0734 
    144 H144      -50.0415  -21.5794    4.9155 H         1 UNK         0.0832 
    145 H145      -50.1213  -22.8835    3.7308 H         1 UNK         0.0832 
    146 H146      -51.2173  -22.8713    5.1023 H         1 UNK         0.0832 
    147 H147      -47.3777  -24.1313    4.7313 H         1 UNK         0.3156 
    148 H148      -45.6983  -22.5375    3.5416 H         1 UNK         0.0589 
    149 H149      -43.7993  -21.1474    4.3509 H         1 UNK         0.0808 
    150 H150      -45.2743  -20.2018    4.2567 H         1 UNK         0.0808 
    151 H151      -44.6906  -20.7534    5.8211 H         1 UNK         0.0808 
    152 H152      -44.3903  -23.1899    6.1003 H         1 UNK         0.3098 
    153 H153      -43.4161  -26.0803    5.2992 H         1 UNK         0.0720 
    154 H154      -44.6587  -24.7518    7.7745 H         1 UNK         0.0791 
    155 H155      -43.0853  -24.3834    7.0649 H         1 UNK         0.0791 
    156 H156      -43.3638  -25.9395    7.8134 H         1 UNK         0.0791 
    157 H157      -44.6809  -27.8379    5.8614 H         1 UNK         0.3028 
@<TRIPOS>BOND
     1    1    2 1    
     2    1   82 1    
     3    1   83 1    
     4    1   84 1    
     5    2    3 2    
     6    2    4 am   BACKBONE|DICT|INTERRES
     7    4    5 1    
     8    4   85 1    
     9    5    6 1    
    10    5   80 1    
    11    5   86 1    
    12    6    7 1    
    13    6   87 1    
    14    6   88 1    
    15    7    8 1    
    16    8    9 1    
    17    8   89 1    
    18    8   90 1    
    19    9   10 ar   
    20    9   14 ar   
    21   10   11 ar   
    22   10   91 1    
    23   11   12 ar   
    24   11   58 1    
    25   12   13 ar   
    26   12   92 1    
    27   13   14 ar   
    28   13   15 1    
    29   14   93 1    
    30   15   16 1    
    31   15   94 1    
    32   15   95 1    
    33   16   17 1    
    34   17   18 1    
    35   17   96 1    
    36   17   97 1    
    37   18   19 1    
    38   18   22 1    
    39   18   98 1    
    40   19   20 am   BACKBONE|DICT|INTERRES
    41   19   21 2    
    42   20   99 1    
    43   20  100 1    
    44   22   23 am   BACKBONE|DICT|INTERRES
    45   22  101 1    
    46   23   24 2    
    47   23   25 1    
    48   25   26 1    
    49   25   27 1    
    50   25  102 1    
    51   26  103 1    
    52   26  104 1    
    53   26  105 1    
    54   27   28 am   BACKBONE|DICT|INTERRES
    55   27  106 1    
    56   28   29 2    
    57   28   30 1    
    58   30   31 1    
    59   30   32 1    
    60   30  107 1    
    61   31  108 1    
    62   31  109 1    
    63   31  110 1    
    64   32   33 am   BACKBONE|DICT|INTERRES
    65   32  111 1    
    66   33   34 2    
    67   33   35 1    
    68   35   36 1    
    69   35   37 1    
    70   35  112 1    
    71   36  113 1    
    72   36  114 1    
    73   36  115 1    
    74   37   38 am   BACKBONE|DICT|INTERRES
    75   37  116 1    
    76   38   39 2    
    77   38   40 1    
    78   40   41 1    
    79   40   42 1    
    80   40  117 1    
    81   41  118 1    
    82   41  119 1    
    83   41  120 1    
    84   42   43 am   BACKBONE|DICT|INTERRES
    85   42  121 1    
    86   43   44 2    
    87   43   45 1    
    88   45   46 1    
    89   45   47 1    
    90   45  122 1    
    91   46  123 1    
    92   46  124 1    
    93   46  125 1    
    94   47   48 am   BACKBONE|DICT|INTERRES
    95   47  126 1    
    96   48   49 2    
    97   48   50 1    
    98   50   51 1    
    99   50   52 1    
   100   50  127 1    
   101   51  128 1    
   102   51  129 1    
   103   51  130 1    
   104   52   53 am   BACKBONE|DICT|INTERRES
   105   52  131 1    
   106   53   54 2    
   107   53   55 1    
   108   55   56 1    
   109   55   59 1    
   110   55  132 1    
   111   56   57 1    
   112   56  133 1    
   113   56  134 1    
   114   57   58 1    
   115   58  135 1    
   116   58  136 1    
   117   59   60 am   BACKBONE|DICT|INTERRES
   118   59  137 1    
   119   60   61 2    
   120   60   62 1    
   121   62   63 1    
   122   62   64 1    
   123   62  138 1    
   124   63  139 1    
   125   63  140 1    
   126   63  141 1    
   127   64   65 am   BACKBONE|DICT|INTERRES
   128   64  142 1    
   129   65   66 2    
   130   65   67 1    
   131   67   68 1    
   132   67   69 1    
   133   67  143 1    
   134   68  144 1    
   135   68  145 1    
   136   68  146 1    
   137   69   70 am   BACKBONE|DICT|INTERRES
   138   69  147 1    
   139   70   71 2    
   140   70   72 1    
   141   72   73 1    
   142   72   74 1    
   143   72  148 1    
   144   73  149 1    
   145   73  150 1    
   146   73  151 1    
   147   74   75 am   BACKBONE|DICT|INTERRES
   148   74  152 1    
   149   75   76 2    
   150   75   77 1    
   151   77   78 1    
   152   77   79 1    
   153   77  153 1    
   154   78  154 1    
   155   78  155 1    
   156   78  156 1    
   157   79   80 am   BACKBONE|DICT|INTERRES
   158   79  157 1    
   159   80   81 2    
@<TRIPOS>SUBSTRUCTURE
     1 UNK         1 GROUP             0       ****    0 ROOT    
