@<TRIPOS>MOLECULE
3R207
157   159    1
SMALL
USER_CHARGES


@<TRIPOS>ATOM
      1 CA        -47.8667  -21.4492    4.6220 C.3       0 UNK        -0.1975 
      2 C         -48.1182  -22.6476    5.5239 C.2       0 UNK         0.4852 
      3 O         -47.1703  -23.1991    6.0847 O.2       0 UNK        -0.5216 
      4 N         -49.3860  -23.0557    5.6712 N.am      1 UNK        -0.4461 
      5 CA        -49.8149  -24.2109    6.4664 C.3       1 UNK         0.0864 
      6 C6        -51.3592  -24.2834    6.5482 C.3       14 UNK        -0.0898 
      7 S7        -51.9293  -25.2954    7.9494 S.3       14 UNK        -0.2598 
      8 C8        -52.7821  -26.6618    7.0990 C.3       14 UNK         0.0286 
      9 C9        -53.2995  -27.6465    8.1321 C.ar      14 UNK        -0.0844 
     10 C10       -52.4879  -28.6992    8.5595 C.ar      14 UNK        -0.0881 
     11 C11       -52.8664  -29.4884    9.6497 C.ar      14 UNK        -0.0643 
     12 C12       -54.1076  -29.2705   10.2563 C.ar      14 UNK        -0.0930 
     13 C13       -54.9552  -28.2578    9.7960 C.ar      14 UNK        -0.0827 
     14 C14       -54.5445  -27.4464    8.7347 C.ar      14 UNK        -0.1249 
     15 C15       -56.2762  -27.9807   10.4976 C.3       14 UNK         0.0141 
     16 S16       -57.6912  -28.7691    9.6670 S.3       14 UNK        -0.2313 
     17 C17       -57.4872  -30.5283   10.1106 C.3       14 UNK        -0.0915 
     18 CA        -58.4476  -30.9824   11.2503 C.3       13 UNK         0.0968 
     19 C         -58.5182  -32.5350   11.3997 C.2       13 UNK         0.5732 
     20 N         -58.7476  -33.0747   12.5912 N.am      13 UNK        -0.7310 
     21 O         -58.4025  -33.2666   10.4188 O.2       13 UNK        -0.5035 
     22 N         -58.2359  -30.2490   12.5149 N.am      13 UNK        -0.4233 
     23 C         -57.1418  -30.3037   13.2866 C.2       13 UNK         0.4989 
     24 O         -56.1461  -30.9862   13.0331 O.2       13 UNK        -0.4996 
     25 CA        -57.1913  -29.4755   14.5814 C.3       12 UNK         0.0216 
     26 CB        -57.9875  -30.2213   15.6663 C.3       12 UNK        -0.1964 
     27 N         -55.8425  -29.2112   15.0853 N.am      12 UNK        -0.4276 
     28 C         -55.0600  -28.2049   14.6798 C.2       12 UNK         0.5020 
     29 O         -55.4166  -27.3278   13.8888 O.2       12 UNK        -0.5489 
     30 CA        -53.6222  -28.2121   15.2282 C.3       11 UNK         0.0294 
     31 CB        -52.7197  -29.0881   14.3444 C.3       11 UNK        -0.2019 
     32 N         -53.0486  -26.8674   15.3126 N.am      11 UNK        -0.4493 
     33 C         -53.4257  -25.9286   16.1913 C.2       11 UNK         0.4932 
     34 O         -54.3031  -26.0931   17.0417 O.2       11 UNK        -0.5029 
     35 CA        -52.6453  -24.6023   16.1204 C.3       10 UNK         0.0280 
     36 CB        -53.0686  -23.5755   17.1926 C.3       10 UNK        -0.1976 
     37 N         -51.1976  -24.8408   16.1438 N.am      10 UNK        -0.4242 
     38 C         -50.4715  -25.3937   17.1284 C.2       10 UNK         0.5072 
     39 O         -50.9134  -25.6804   18.2417 O.2       10 UNK        -0.5224 
     40 CA        -48.9982  -25.7132   16.8132 C.3       9 UNK         0.0343 
     41 CB        -48.8517  -27.1950   16.4291 C.3       9 UNK        -0.2003 
     42 N         -48.4298  -24.8915   15.7426 N.am      9 UNK        -0.4272 
     43 C         -48.1537  -23.5830   15.8375 C.2       9 UNK         0.4988 
     44 O         -48.3139  -22.9177   16.8609 O.2       9 UNK        -0.5108 
     45 CA        -47.6278  -22.9007   14.5653 C.3       8 UNK         0.0248 
     46 CB        -46.1188  -23.1419   14.3932 C.3       8 UNK        -0.2001 
     47 N         -48.3433  -23.3676   13.3762 N.am      8 UNK        -0.4140 
     48 C         -49.5495  -22.9202   12.9988 C.2       8 UNK         0.5028 
     49 O         -50.1538  -22.0137   13.5719 O.2       8 UNK        -0.5428 
     50 CA        -50.2041  -23.6028   11.7857 C.3       7 UNK         0.0264 
     51 CB        -49.8562  -22.8530   10.4901 C.3       7 UNK        -0.1988 
     52 N         -49.8349  -25.0133   11.6487 N.am      7 UNK        -0.4454 
     53 C         -50.2649  -25.9879   12.4660 C.2       7 UNK         0.5027 
     54 O         -51.0215  -25.8035   13.4198 O.2       7 UNK        -0.5083 
     55 CA        -49.7544  -27.4148   12.1800 C.3       6 UNK         0.0844 
     56 C56       -50.6736  -28.0503   11.1176 C.3       14 UNK        -0.0967 
     57 S57       -50.2656  -29.7817   10.6947 S.3       14 UNK        -0.2604 
     58 C58       -51.8923  -30.5019   10.2438 C.3       14 UNK         0.0134 
     59 N         -48.3484  -27.4522   11.7708 N.am      6 UNK        -0.4116 
     60 C         -47.3156  -26.8783   12.4008 C.2       5 UNK         0.5034 
     61 O         -47.4094  -26.2655   13.4644 O.2       5 UNK        -0.5045 
     62 CA        -45.9560  -26.9269   11.6893 C.3       5 UNK         0.0224 
     63 CB        -45.7959  -28.1332   10.7390 C.3       5 UNK        -0.1978 
     64 N         -45.6695  -25.6751   10.9772 N.am      5 UNK        -0.4737 
     65 C         -46.4144  -25.0655   10.0415 C.2       4 UNK         0.5027 
     66 O         -47.5286  -25.4486    9.6693 O.2       4 UNK        -0.5211 
     67 CA        -45.8094  -23.8185    9.3748 C.3       4 UNK         0.0297 
     68 CB        -44.6718  -23.1373   10.1697 C.3       4 UNK        -0.1993 
     69 N         -45.4100  -24.1556    8.0084 N.am      4 UNK        -0.4486 
     70 C         -44.4584  -25.0173    7.6190 C.2       3 UNK         0.4961 
     71 O         -43.5855  -25.4806    8.3552 O.2       3 UNK        -0.5105 
     72 CA        -44.5820  -25.4917    6.1596 C.3       3 UNK         0.0299 
     73 CB        -43.4128  -26.3879    5.6975 C.3       3 UNK        -0.1972 
     74 N         -45.8836  -26.1459    5.9617 N.am      3 UNK        -0.4305 
     75 C         -46.3410  -27.2517    6.5754 C.2       2 UNK         0.5006 
     76 O         -45.6450  -28.0048    7.2569 O.2       2 UNK        -0.5106 
     77 CA        -47.8485  -27.5242    6.4357 C.3       2 UNK         0.0296 
     78 CB        -48.3416  -28.6852    7.3206 C.3       2 UNK        -0.2002 
     79 N         -48.5884  -26.3124    6.7904 N.am      2 UNK        -0.4032 
     80 C         -49.2107  -25.5174    5.9118 C.2       1 UNK         0.5000 
     81 O         -49.3013  -25.7609    4.7055 O.2       1 UNK        -0.5238 
     82 H82       -47.3854  -20.6511    5.1865 H         1 UNK         0.0889 
     83 H83       -48.7905  -21.0563    4.1978 H         1 UNK         0.0889 
     84 H84       -47.2084  -21.7312    3.8008 H         1 UNK         0.0889 
     85 H85       -50.1170  -22.5803    5.1619 H         1 UNK         0.3028 
     86 H86       -49.4221  -24.0495    7.4732 H         1 UNK         0.0864 
     87 H87       -51.7939  -24.6394    5.6118 H         1 UNK         0.0720 
     88 H88       -51.7697  -23.2846    6.7051 H         1 UNK         0.0720 
     89 H89       -52.0954  -27.1551    6.4090 H         1 UNK         0.0814 
     90 H90       -53.6063  -26.2698    6.5010 H         1 UNK         0.0814 
     91 H91       -51.5153  -28.8428    8.1113 H         1 UNK         0.1469 
     92 H92       -54.3996  -29.8633   11.1129 H         1 UNK         0.1381 
     93 H93       -55.1728  -26.6278    8.4108 H         1 UNK         0.1206 
     94 H94       -56.4490  -26.9041   10.5315 H         1 UNK         0.0813 
     95 H95       -56.2286  -28.3026   11.5361 H         1 UNK         0.0813 
     96 H96       -57.6851  -31.0929    9.1982 H         1 UNK         0.0638 
     97 H97       -56.4510  -30.7423   10.3678 H         1 UNK         0.0638 
     98 H98       -59.4557  -30.7115   10.9351 H         1 UNK         0.0568 
     99 H99       -58.8039  -34.0775   12.6741 H         1 UNK         0.3450 
    100 H100      -58.8598  -32.4932   13.4051 H         1 UNK         0.3450 
    101 H101      -59.0129  -29.6777   12.8140 H         1 UNK         0.2987 
    102 H102      -57.6887  -28.5258   14.3712 H         1 UNK         0.0766 
    103 H103      -58.0301  -29.6460   16.5915 H         1 UNK         0.0798 
    104 H104      -57.5476  -31.1928   15.8964 H         1 UNK         0.0798 
    105 H105      -59.0170  -30.3960   15.3511 H         1 UNK         0.0798 
    106 H106      -55.4462  -29.9201   15.6856 H         1 UNK         0.3198 
    107 H107      -53.6342  -28.6311   16.2370 H         1 UNK         0.0843 
    108 H108      -51.6875  -29.0868   14.6952 H         1 UNK         0.0831 
    109 H109      -52.7286  -28.7474   13.3105 H         1 UNK         0.0831 
    110 H110      -53.0607  -30.1243   14.3422 H         1 UNK         0.0831 
    111 H111      -52.3501  -26.6153   14.6193 H         1 UNK         0.3133 
    112 H112      -52.8656  -24.1667   15.1445 H         1 UNK         0.0566 
    113 H113      -52.4993  -22.6505   17.1010 H         1 UNK         0.0814 
    114 H114      -54.1236  -23.3196   17.0881 H         1 UNK         0.0814 
    115 H115      -52.9282  -23.9574   18.2040 H         1 UNK         0.0814 
    116 H116      -50.7399  -24.7333   15.2467 H         1 UNK         0.3091 
    117 H117      -48.4193  -25.5334   17.7215 H         1 UNK         0.0702 
    118 H118      -47.8081  -27.4598   16.2579 H         1 UNK         0.0785 
    119 H119      -49.4101  -27.4319   15.5227 H         1 UNK         0.0785 
    120 H120      -49.2258  -27.8440   17.2222 H         1 UNK         0.0785 
    121 H121      -48.1911  -25.3741   14.8790 H         1 UNK         0.2998 
    122 H122      -47.7845  -21.8250   14.6729 H         1 UNK         0.0697 
    123 H123      -45.7281  -22.5991   13.5330 H         1 UNK         0.0825 
    124 H124      -45.5682  -22.7960   15.2691 H         1 UNK         0.0825 
    125 H125      -45.8840  -24.1983   14.2590 H         1 UNK         0.0825 
    126 H126      -47.9461  -24.1602   12.8904 H         1 UNK         0.3029 
    127 H127      -51.2862  -23.5501   11.9268 H         1 UNK         0.0897 
    128 H128      -50.3884  -23.2713    9.6366 H         1 UNK         0.0792 
    129 H129      -50.1383  -21.8015   10.5602 H         1 UNK         0.0792 
    130 H130      -48.7891  -22.8902   10.2741 H         1 UNK         0.0792 
    131 H131      -49.1940  -25.2517   10.8977 H         1 UNK         0.3086 
    132 H132      -49.8374  -27.9892   13.1043 H         1 UNK         0.0583 
    133 H133      -51.7078  -28.0012   11.4588 H         1 UNK         0.1020 
    134 H134      -50.6373  -27.4676   10.1944 H         1 UNK         0.1020 
    135 H135      -51.7365  -31.3111    9.5293 H         1 UNK         0.0694 
    136 H136      -52.3187  -30.9596   11.1379 H         1 UNK         0.0694 
    137 H137      -48.1641  -27.9109   10.8913 H         1 UNK         0.2989 
    138 H138      -45.2059  -27.0242   12.4761 H         1 UNK         0.1055 
    139 H139      -46.0147  -29.0729   11.2481 H         1 UNK         0.0806 
    140 H140      -44.7734  -28.2005   10.3667 H         1 UNK         0.0806 
    141 H141      -46.4472  -28.0650    9.8687 H         1 UNK         0.0806 
    142 H142      -44.7732  -25.2583   11.1869 H         1 UNK         0.3061 
    143 H143      -46.6194  -23.0943    9.2817 H         1 UNK         0.0734 
    144 H144      -43.7955  -23.7734   10.2927 H         1 UNK         0.0832 
    145 H145      -44.3435  -22.2260    9.6699 H         1 UNK         0.0832 
    146 H146      -45.0116  -22.8490   11.1648 H         1 UNK         0.0832 
    147 H147      -46.0654  -23.8387    7.2911 H         1 UNK         0.3156 
    148 H148      -44.5812  -24.5982    5.5332 H         1 UNK         0.0589 
    149 H149      -43.5396  -26.7015    4.6615 H         1 UNK         0.0808 
    150 H150      -42.4666  -25.8495    5.7613 H         1 UNK         0.0808 
    151 H151      -43.3133  -27.2846    6.3094 H         1 UNK         0.0808 
    152 H152      -46.5572  -25.5966    5.4442 H         1 UNK         0.3098 
    153 H153      -48.0237  -27.8030    5.3947 H         1 UNK         0.0720 
    154 H154      -48.2436  -28.4572    8.3817 H         1 UNK         0.0791 
    155 H155      -47.7791  -29.5991    7.1253 H         1 UNK         0.0791 
    156 H156      -49.3895  -28.9073    7.1235 H         1 UNK         0.0791 
    157 H157      -48.4981  -26.0098    7.7548 H         1 UNK         0.3028 
@<TRIPOS>BOND
     1    1    2 1    
     2    1   82 1    
     3    1   83 1    
     4    1   84 1    
     5    2    3 2    
     6    2    4 am   BACKBONE|DICT|INTERRES
     7    4    5 1    
     8    4   85 1    
     9    5    6 1    
    10    5   80 1    
    11    5   86 1    
    12    6    7 1    
    13    6   87 1    
    14    6   88 1    
    15    7    8 1    
    16    8    9 1    
    17    8   89 1    
    18    8   90 1    
    19    9   10 ar   
    20    9   14 ar   
    21   10   11 ar   
    22   10   91 1    
    23   11   12 ar   
    24   11   58 1    
    25   12   13 ar   
    26   12   92 1    
    27   13   14 ar   
    28   13   15 1    
    29   14   93 1    
    30   15   16 1    
    31   15   94 1    
    32   15   95 1    
    33   16   17 1    
    34   17   18 1    
    35   17   96 1    
    36   17   97 1    
    37   18   19 1    
    38   18   22 1    
    39   18   98 1    
    40   19   20 am   BACKBONE|DICT|INTERRES
    41   19   21 2    
    42   20   99 1    
    43   20  100 1    
    44   22   23 am   BACKBONE|DICT|INTERRES
    45   22  101 1    
    46   23   24 2    
    47   23   25 1    
    48   25   26 1    
    49   25   27 1    
    50   25  102 1    
    51   26  103 1    
    52   26  104 1    
    53   26  105 1    
    54   27   28 am   BACKBONE|DICT|INTERRES
    55   27  106 1    
    56   28   29 2    
    57   28   30 1    
    58   30   31 1    
    59   30   32 1    
    60   30  107 1    
    61   31  108 1    
    62   31  109 1    
    63   31  110 1    
    64   32   33 am   BACKBONE|DICT|INTERRES
    65   32  111 1    
    66   33   34 2    
    67   33   35 1    
    68   35   36 1    
    69   35   37 1    
    70   35  112 1    
    71   36  113 1    
    72   36  114 1    
    73   36  115 1    
    74   37   38 am   BACKBONE|DICT|INTERRES
    75   37  116 1    
    76   38   39 2    
    77   38   40 1    
    78   40   41 1    
    79   40   42 1    
    80   40  117 1    
    81   41  118 1    
    82   41  119 1    
    83   41  120 1    
    84   42   43 am   BACKBONE|DICT|INTERRES
    85   42  121 1    
    86   43   44 2    
    87   43   45 1    
    88   45   46 1    
    89   45   47 1    
    90   45  122 1    
    91   46  123 1    
    92   46  124 1    
    93   46  125 1    
    94   47   48 am   BACKBONE|DICT|INTERRES
    95   47  126 1    
    96   48   49 2    
    97   48   50 1    
    98   50   51 1    
    99   50   52 1    
   100   50  127 1    
   101   51  128 1    
   102   51  129 1    
   103   51  130 1    
   104   52   53 am   BACKBONE|DICT|INTERRES
   105   52  131 1    
   106   53   54 2    
   107   53   55 1    
   108   55   56 1    
   109   55   59 1    
   110   55  132 1    
   111   56   57 1    
   112   56  133 1    
   113   56  134 1    
   114   57   58 1    
   115   58  135 1    
   116   58  136 1    
   117   59   60 am   BACKBONE|DICT|INTERRES
   118   59  137 1    
   119   60   61 2    
   120   60   62 1    
   121   62   63 1    
   122   62   64 1    
   123   62  138 1    
   124   63  139 1    
   125   63  140 1    
   126   63  141 1    
   127   64   65 am   BACKBONE|DICT|INTERRES
   128   64  142 1    
   129   65   66 2    
   130   65   67 1    
   131   67   68 1    
   132   67   69 1    
   133   67  143 1    
   134   68  144 1    
   135   68  145 1    
   136   68  146 1    
   137   69   70 am   BACKBONE|DICT|INTERRES
   138   69  147 1    
   139   70   71 2    
   140   70   72 1    
   141   72   73 1    
   142   72   74 1    
   143   72  148 1    
   144   73  149 1    
   145   73  150 1    
   146   73  151 1    
   147   74   75 am   BACKBONE|DICT|INTERRES
   148   74  152 1    
   149   75   76 2    
   150   75   77 1    
   151   77   78 1    
   152   77   79 1    
   153   77  153 1    
   154   78  154 1    
   155   78  155 1    
   156   78  156 1    
   157   79   80 am   BACKBONE|DICT|INTERRES
   158   79  157 1    
   159   80   81 2    
@<TRIPOS>SUBSTRUCTURE
     1 UNK         1 GROUP             0       ****    0 ROOT    
