@<TRIPOS>MOLECULE
3R207
157   159    1
SMALL
USER_CHARGES


@<TRIPOS>ATOM
      1 CA        -49.8007  -25.3709    3.4329 C.3       0 UNK        -0.1975 
      2 C         -50.1565  -25.3355    4.9111 C.2       0 UNK         0.4852 
      3 O         -50.5268  -24.2807    5.4284 O.2       0 UNK        -0.5216 
      4 N         -50.0347  -26.4809    5.5937 N.am      1 UNK        -0.4461 
      5 CA        -50.3062  -26.6864    7.0206 C.3       1 UNK         0.0864 
      6 C6        -50.1281  -28.1769    7.3975 C.3       14 UNK        -0.0898 
      7 S7        -51.5083  -29.2029    6.7839 S.3       14 UNK        -0.2598 
      8 C8        -52.8060  -28.9102    8.0358 C.3       14 UNK         0.0286 
      9 C9        -52.4349  -29.4892    9.3923 C.ar      14 UNK        -0.0844 
     10 C10       -51.7537  -28.7054   10.3277 C.ar      14 UNK        -0.0881 
     11 C11       -51.3602  -29.2476   11.5512 C.ar      14 UNK        -0.0643 
     12 C12       -51.6991  -30.5668   11.8627 C.ar      14 UNK        -0.0930 
     13 C13       -52.4078  -31.3512   10.9496 C.ar      14 UNK        -0.0827 
     14 C14       -52.7649  -30.8102    9.7103 C.ar      14 UNK        -0.1249 
     15 C15       -52.7571  -32.7907   11.2975 C.3       14 UNK         0.0141 
     16 S16       -54.1288  -32.8941   12.4917 S.3       14 UNK        -0.2313 
     17 C17       -55.5519  -32.3841   11.4655 C.3       14 UNK        -0.0915 
     18 CA        -56.3969  -31.2301   12.0728 C.3       13 UNK         0.0968 
     19 C         -57.2767  -31.6505   13.2862 C.2       13 UNK         0.5732 
     20 N         -57.5881  -30.7531   14.2149 N.am      13 UNK        -0.7310 
     21 O         -57.7084  -32.7971   13.3837 O.2       13 UNK        -0.5035 
     22 N         -55.5920  -30.0298   12.3467 N.am      13 UNK        -0.4233 
     23 C         -55.5892  -28.9122   11.6136 C.2       13 UNK         0.4989 
     24 O         -56.1838  -28.8013   10.5392 O.2       13 UNK        -0.4996 
     25 CA        -54.8132  -27.7040   12.1899 C.3       12 UNK         0.0216 
     26 CB        -55.2373  -26.3714   11.5409 C.3       12 UNK        -0.1964 
     27 N         -54.8346  -27.5737   13.6571 N.am      12 UNK        -0.4276 
     28 C         -55.9026  -27.6232   14.4711 C.2       12 UNK         0.5020 
     29 O         -57.0505  -27.8716   14.1015 O.2       12 UNK        -0.5489 
     30 CA        -55.6409  -27.3655   15.9595 C.3       11 UNK         0.0294 
     31 CB        -54.8090  -28.5006   16.5827 C.3       11 UNK        -0.2019 
     32 N         -54.9614  -26.0835   16.1409 N.am      11 UNK        -0.4493 
     33 C         -55.5900  -24.9137   16.3338 C.2       11 UNK         0.4932 
     34 O         -56.8104  -24.8038   16.4557 O.2       11 UNK        -0.5029 
     35 CA        -54.7195  -23.6445   16.4140 C.3       10 UNK         0.0280 
     36 CB        -54.4055  -23.3016   17.8793 C.3       10 UNK        -0.1976 
     37 N         -53.4662  -23.7650   15.6681 N.am      10 UNK        -0.4242 
     38 C         -53.3724  -23.7856   14.3307 C.2       10 UNK         0.5072 
     39 O         -54.3186  -23.5583   13.5776 O.2       10 UNK        -0.5224 
     40 CA        -51.9999  -24.1430   13.7283 C.3       9 UNK         0.0343 
     41 CB        -51.2813  -22.8815   13.2249 C.3       9 UNK        -0.2003 
     42 N         -51.1129  -24.8569   14.6521 N.am      9 UNK        -0.4272 
     43 C         -51.3238  -26.0773   15.1616 C.2       9 UNK         0.4988 
     44 O         -52.3256  -26.7508   14.9075 O.2       9 UNK        -0.5108 
     45 CA        -50.2471  -26.6097   16.1291 C.3       8 UNK         0.0248 
     46 CB        -50.4672  -28.0780   16.5391 C.3       8 UNK        -0.2001 
     47 N         -48.8874  -26.4467   15.6010 N.am      8 UNK        -0.4140 
     48 C         -48.1803  -25.3078   15.6367 C.2       8 UNK         0.5028 
     49 O         -48.6175  -24.2538   16.1004 O.2       8 UNK        -0.5428 
     50 CA        -46.7690  -25.3335   15.0296 C.3       7 UNK         0.0264 
     51 CB        -45.7388  -25.7811   16.0789 C.3       7 UNK        -0.1988 
     52 N         -46.6627  -26.1878   13.8446 N.am      7 UNK        -0.4454 
     53 C         -47.2094  -25.9049   12.6540 C.2       7 UNK         0.5027 
     54 O         -47.8902  -24.9024   12.4273 O.2       7 UNK        -0.5083 
     55 CA        -46.9382  -26.9121   11.5159 C.3       6 UNK         0.0844 
     56 C56       -48.2248  -27.6581   11.0875 C.3       14 UNK        -0.0967 
     57 S57       -48.7838  -28.8013   12.4029 S.3       14 UNK        -0.2604 
     58 C58       -50.5572  -28.4197   12.5351 C.3       14 UNK         0.0134 
     59 N         -46.2708  -26.2225   10.4053 N.am      6 UNK        -0.4116 
     60 C         -45.0062  -25.7756   10.4894 C.2       5 UNK         0.5034 
     61 O         -44.2468  -26.0820   11.4115 O.2       5 UNK        -0.5045 
     62 CA        -44.5109  -24.7821    9.4227 C.3       5 UNK         0.0224 
     63 CB        -42.9713  -24.7370    9.3009 C.3       5 UNK        -0.1978 
     64 N         -45.1440  -24.9238    8.1105 N.am      5 UNK        -0.4737 
     65 C         -44.9937  -25.9114    7.2143 C.2       4 UNK         0.5027 
     66 O         -44.3154  -26.9193    7.4140 O.2       4 UNK        -0.5211 
     67 CA        -45.7073  -25.7365    5.8557 C.3       4 UNK         0.0297 
     68 CB        -46.4191  -27.0276    5.4134 C.3       4 UNK        -0.1993 
     69 N         -46.6770  -24.6378    5.8939 N.am      4 UNK        -0.4486 
     70 C         -46.4298  -23.3689    5.5354 C.2       3 UNK         0.4961 
     71 O         -45.3915  -23.0059    4.9836 O.2       3 UNK        -0.5105 
     72 CA        -47.4965  -22.3131    5.8882 C.3       3 UNK         0.0299 
     73 CB        -48.2351  -21.8322    4.6288 C.3       3 UNK        -0.1972 
     74 N         -48.4681  -22.7868    6.8809 N.am      3 UNK        -0.4305 
     75 C         -48.2094  -22.9134    8.1927 C.2       2 UNK         0.5006 
     76 O         -47.1394  -22.5906    8.7076 O.2       2 UNK        -0.5106 
     77 CA        -49.2913  -23.5808    9.0628 C.3       2 UNK         0.0296 
     78 CB        -50.2986  -22.5392    9.5729 C.3       2 UNK        -0.2002 
     79 N         -50.0065  -24.6459    8.3543 N.am      2 UNK        -0.4032 
     80 C         -49.4345  -25.7717    7.9056 C.2       1 UNK         0.5000 
     81 O         -48.2581  -26.0663    8.1263 O.2       1 UNK        -0.5238 
     82 H82       -49.8030  -26.3881    3.0415 H         1 UNK         0.0889 
     83 H83       -48.8097  -24.9468    3.2740 H         1 UNK         0.0889 
     84 H84       -50.5196  -24.7879    2.8579 H         1 UNK         0.0889 
     85 H85       -49.7352  -27.3092    5.0995 H         1 UNK         0.3028 
     86 H86       -51.3467  -26.4067    7.1951 H         1 UNK         0.0864 
     87 H87       -50.0142  -28.3193    8.4694 H         1 UNK         0.0720 
     88 H88       -49.2013  -28.5668    6.9729 H         1 UNK         0.0720 
     89 H89       -53.7358  -29.3628    7.6877 H         1 UNK         0.0814 
     90 H90       -53.0098  -27.8423    8.1214 H         1 UNK         0.0814 
     91 H91       -51.5048  -27.6798   10.0944 H         1 UNK         0.1469 
     92 H92       -51.4013  -30.9876   12.8135 H         1 UNK         0.1381 
     93 H93       -53.2949  -31.4175    8.9894 H         1 UNK         0.1206 
     94 H94       -53.0114  -33.3584   10.4010 H         1 UNK         0.0813 
     95 H95       -51.8809  -33.2790   11.7264 H         1 UNK         0.0813 
     96 H96       -55.1963  -32.0762   10.4825 H         1 UNK         0.0638 
     97 H97       -56.1723  -33.2621   11.2790 H         1 UNK         0.0638 
     98 H98       -57.1431  -30.9783   11.3177 H         1 UNK         0.0568 
     99 H99       -57.3385  -29.7749   14.1024 H         1 UNK         0.3450 
    100 H100      -58.1661  -31.0357   14.9898 H         1 UNK         0.3450 
    101 H101      -55.0783  -30.0451   13.2150 H         1 UNK         0.2987 
    102 H102      -53.7710  -27.8716   11.9285 H         1 UNK         0.0766 
    103 H103      -56.2715  -26.1211   11.7796 H         1 UNK         0.0798 
    104 H104      -54.6064  -25.5509   11.8783 H         1 UNK         0.0798 
    105 H105      -55.1493  -26.4114   10.4545 H         1 UNK         0.0798 
    106 H106      -53.9322  -27.3757   14.0854 H         1 UNK         0.3198 
    107 H107      -56.6056  -27.3453   16.4721 H         1 UNK         0.0843 
    108 H108      -55.3195  -29.4587   16.4745 H         1 UNK         0.0831 
    109 H109      -54.6554  -28.3362   17.6492 H         1 UNK         0.0831 
    110 H110      -53.8285  -28.6021   16.1176 H         1 UNK         0.0831 
    111 H111      -53.9602  -26.0825   15.9882 H         1 UNK         0.3133 
    112 H112      -55.2942  -22.8200   15.9864 H         1 UNK         0.0566 
    113 H113      -53.8467  -22.3688   17.9584 H         1 UNK         0.0814 
    114 H114      -55.3238  -23.1762   18.4549 H         1 UNK         0.0814 
    115 H115      -53.8228  -24.0861   18.3639 H         1 UNK         0.0814 
    116 H116      -52.6263  -23.9208   16.2056 H         1 UNK         0.3091 
    117 H117      -52.1831  -24.7983   12.8741 H         1 UNK         0.0702 
    118 H118      -50.3488  -23.1335   12.7185 H         1 UNK         0.0785 
    119 H119      -51.0449  -22.1990   14.0422 H         1 UNK         0.0785 
    120 H120      -51.9012  -22.3352   12.5126 H         1 UNK         0.0785 
    121 H121      -50.2676  -24.3749   14.9429 H         1 UNK         0.2998 
    122 H122      -50.3375  -26.0123   17.0388 H         1 UNK         0.0697 
    123 H123      -50.3408  -28.7646   15.7037 H         1 UNK         0.0825 
    124 H124      -51.4694  -28.2302   16.9414 H         1 UNK         0.0825 
    125 H125      -49.7649  -28.3756   17.3179 H         1 UNK         0.0825 
    126 H126      -48.4719  -27.2534   15.1578 H         1 UNK         0.3029 
    127 H127      -46.5250  -24.3117   14.7296 H         1 UNK         0.0897 
    128 H128      -44.7227  -25.7198   15.6885 H         1 UNK         0.0792 
    129 H129      -45.7822  -25.1442   16.9638 H         1 UNK         0.0792 
    130 H130      -45.9120  -26.8068   16.4073 H         1 UNK         0.0792 
    131 H131      -46.1026  -27.0241   13.9341 H         1 UNK         0.3086 
    132 H132      -46.2397  -27.6688   11.8813 H         1 UNK         0.0583 
    133 H133      -49.0144  -26.9538   10.8201 H         1 UNK         0.1020 
    134 H134      -48.0320  -28.2501   10.1913 H         1 UNK         0.1020 
    135 H135      -50.8964  -28.6557   13.5418 H         1 UNK         0.0694 
    136 H136      -50.7336  -27.3519   12.3960 H         1 UNK         0.0694 
    137 H137      -46.8465  -25.9628    9.6111 H         1 UNK         0.2989 
    138 H138      -44.8263  -23.8031    9.7877 H         1 UNK         0.1055 
    139 H139      -42.6524  -24.0082    8.5557 H         1 UNK         0.0806 
    140 H140      -42.5573  -25.7064    9.0225 H         1 UNK         0.0806 
    141 H141      -42.5111  -24.4496   10.2472 H         1 UNK         0.0806 
    142 H142      -45.7563  -24.1578    7.8595 H         1 UNK         0.3061 
    143 H143      -44.9337  -25.5152    5.1176 H         1 UNK         0.0734 
    144 H144      -45.7019  -27.8362    5.2678 H         1 UNK         0.0832 
    145 H145      -47.1404  -27.3688    6.1549 H         1 UNK         0.0832 
    146 H146      -46.9439  -26.8894    4.4682 H         1 UNK         0.0832 
    147 H147      -47.5326  -24.8388    6.3940 H         1 UNK         0.3156 
    148 H148      -46.9705  -21.4542    6.3106 H         1 UNK         0.0589 
    149 H149      -48.7776  -22.6394    4.1387 H         1 UNK         0.0808 
    150 H150      -48.9503  -21.0445    4.8657 H         1 UNK         0.0808 
    151 H151      -47.5349  -21.4231    3.8991 H         1 UNK         0.0808 
    152 H152      -49.3574  -23.1209    6.5171 H         1 UNK         0.3098 
    153 H153      -48.7948  -24.0285    9.9266 H         1 UNK         0.0720 
    154 H154      -51.0533  -22.9985   10.2109 H         1 UNK         0.0791 
    155 H155      -50.8138  -22.0370    8.7529 H         1 UNK         0.0791 
    156 H156      -49.7978  -21.7713   10.1643 H         1 UNK         0.0791 
    157 H157      -50.9605  -24.4476    8.0864 H         1 UNK         0.3028 
@<TRIPOS>BOND
     1    1    2 1    
     2    1   82 1    
     3    1   83 1    
     4    1   84 1    
     5    2    3 2    
     6    2    4 am   BACKBONE|DICT|INTERRES
     7    4    5 1    
     8    4   85 1    
     9    5    6 1    
    10    5   80 1    
    11    5   86 1    
    12    6    7 1    
    13    6   87 1    
    14    6   88 1    
    15    7    8 1    
    16    8    9 1    
    17    8   89 1    
    18    8   90 1    
    19    9   10 ar   
    20    9   14 ar   
    21   10   11 ar   
    22   10   91 1    
    23   11   12 ar   
    24   11   58 1    
    25   12   13 ar   
    26   12   92 1    
    27   13   14 ar   
    28   13   15 1    
    29   14   93 1    
    30   15   16 1    
    31   15   94 1    
    32   15   95 1    
    33   16   17 1    
    34   17   18 1    
    35   17   96 1    
    36   17   97 1    
    37   18   19 1    
    38   18   22 1    
    39   18   98 1    
    40   19   20 am   BACKBONE|DICT|INTERRES
    41   19   21 2    
    42   20   99 1    
    43   20  100 1    
    44   22   23 am   BACKBONE|DICT|INTERRES
    45   22  101 1    
    46   23   24 2    
    47   23   25 1    
    48   25   26 1    
    49   25   27 1    
    50   25  102 1    
    51   26  103 1    
    52   26  104 1    
    53   26  105 1    
    54   27   28 am   BACKBONE|DICT|INTERRES
    55   27  106 1    
    56   28   29 2    
    57   28   30 1    
    58   30   31 1    
    59   30   32 1    
    60   30  107 1    
    61   31  108 1    
    62   31  109 1    
    63   31  110 1    
    64   32   33 am   BACKBONE|DICT|INTERRES
    65   32  111 1    
    66   33   34 2    
    67   33   35 1    
    68   35   36 1    
    69   35   37 1    
    70   35  112 1    
    71   36  113 1    
    72   36  114 1    
    73   36  115 1    
    74   37   38 am   BACKBONE|DICT|INTERRES
    75   37  116 1    
    76   38   39 2    
    77   38   40 1    
    78   40   41 1    
    79   40   42 1    
    80   40  117 1    
    81   41  118 1    
    82   41  119 1    
    83   41  120 1    
    84   42   43 am   BACKBONE|DICT|INTERRES
    85   42  121 1    
    86   43   44 2    
    87   43   45 1    
    88   45   46 1    
    89   45   47 1    
    90   45  122 1    
    91   46  123 1    
    92   46  124 1    
    93   46  125 1    
    94   47   48 am   BACKBONE|DICT|INTERRES
    95   47  126 1    
    96   48   49 2    
    97   48   50 1    
    98   50   51 1    
    99   50   52 1    
   100   50  127 1    
   101   51  128 1    
   102   51  129 1    
   103   51  130 1    
   104   52   53 am   BACKBONE|DICT|INTERRES
   105   52  131 1    
   106   53   54 2    
   107   53   55 1    
   108   55   56 1    
   109   55   59 1    
   110   55  132 1    
   111   56   57 1    
   112   56  133 1    
   113   56  134 1    
   114   57   58 1    
   115   58  135 1    
   116   58  136 1    
   117   59   60 am   BACKBONE|DICT|INTERRES
   118   59  137 1    
   119   60   61 2    
   120   60   62 1    
   121   62   63 1    
   122   62   64 1    
   123   62  138 1    
   124   63  139 1    
   125   63  140 1    
   126   63  141 1    
   127   64   65 am   BACKBONE|DICT|INTERRES
   128   64  142 1    
   129   65   66 2    
   130   65   67 1    
   131   67   68 1    
   132   67   69 1    
   133   67  143 1    
   134   68  144 1    
   135   68  145 1    
   136   68  146 1    
   137   69   70 am   BACKBONE|DICT|INTERRES
   138   69  147 1    
   139   70   71 2    
   140   70   72 1    
   141   72   73 1    
   142   72   74 1    
   143   72  148 1    
   144   73  149 1    
   145   73  150 1    
   146   73  151 1    
   147   74   75 am   BACKBONE|DICT|INTERRES
   148   74  152 1    
   149   75   76 2    
   150   75   77 1    
   151   77   78 1    
   152   77   79 1    
   153   77  153 1    
   154   78  154 1    
   155   78  155 1    
   156   78  156 1    
   157   79   80 am   BACKBONE|DICT|INTERRES
   158   79  157 1    
   159   80   81 2    
@<TRIPOS>SUBSTRUCTURE
     1 UNK         1 GROUP             0       ****    0 ROOT    
