@<TRIPOS>MOLECULE
3R207
157   159    1
SMALL
USER_CHARGES


@<TRIPOS>ATOM
      1 CA        -52.2390  -26.5455    8.0714 C.3       0 UNK        -0.1975 
      2 C         -51.6878  -25.6514    6.9645 C.2       0 UNK         0.4852 
      3 O         -52.0093  -24.4651    6.9481 O.2       0 UNK        -0.5216 
      4 N         -50.8700  -26.1410    6.0257 N.am      1 UNK        -0.4461 
      5 CA        -50.3476  -27.4958    5.8707 C.3       1 UNK         0.0864 
      6 C6        -51.4016  -28.4539    5.2461 C.3       14 UNK        -0.0898 
      7 S7        -50.8200  -30.1699    5.0012 S.3       14 UNK        -0.2598 
      8 C8        -51.6612  -31.0812    6.3439 C.3       14 UNK         0.0286 
      9 C9        -51.2040  -30.6686    7.7396 C.ar      14 UNK        -0.0844 
     10 C10       -49.8455  -30.4856    8.0225 C.ar      14 UNK        -0.0881 
     11 C11       -49.4369  -30.0442    9.2819 C.ar      14 UNK        -0.0643 
     12 C12       -50.3873  -29.8632   10.2898 C.ar      14 UNK        -0.0930 
     13 C13       -51.7448  -30.0591   10.0294 C.ar      14 UNK        -0.0827 
     14 C14       -52.1485  -30.4627    8.7525 C.ar      14 UNK        -0.1249 
     15 C15       -52.7677  -29.7822   11.1204 C.3       14 UNK         0.0141 
     16 S16       -53.3664  -28.0684   11.0044 S.3       14 UNK        -0.2313 
     17 C17       -53.9634  -27.7372   12.6937 C.3       14 UNK        -0.0915 
     18 CA        -55.5162  -27.7235   12.7891 C.3       13 UNK         0.0968 
     19 C         -56.0945  -29.1096   13.2062 C.2       13 UNK         0.5732 
     20 N         -56.8057  -29.2383   14.3215 N.am      13 UNK        -0.7310 
     21 O         -55.9043  -30.0934   12.4966 O.2       13 UNK        -0.5035 
     22 N         -55.9877  -26.6008   13.6129 N.am      13 UNK        -0.4233 
     23 C         -57.2049  -26.0465   13.5138 C.2       13 UNK         0.4989 
     24 O         -58.0176  -26.3463   12.6367 O.2       13 UNK        -0.4996 
     25 CA        -57.5845  -24.9845   14.5706 C.3       12 UNK         0.0216 
     26 CB        -59.1111  -24.8756   14.7776 C.3       12 UNK        -0.1964 
     27 N         -56.9036  -25.1621   15.8614 N.am      12 UNK        -0.4276 
     28 C         -56.9309  -26.2514   16.6427 C.2       12 UNK         0.5020 
     29 O         -57.5751  -27.2734   16.3934 O.2       12 UNK        -0.5489 
     30 CA        -56.0183  -26.2208   17.8791 C.3       11 UNK         0.0294 
     31 CB        -56.8317  -26.4207   19.1686 C.3       11 UNK        -0.2019 
     32 N         -54.9746  -27.2462   17.7954 N.am      11 UNK        -0.4493 
     33 C         -54.0638  -27.3413   16.8178 C.2       11 UNK         0.4932 
     34 O         -53.9836  -26.5600   15.8647 O.2       11 UNK        -0.5029 
     35 CA        -53.0873  -28.5159   16.9131 C.3       10 UNK         0.0280 
     36 CB        -53.7227  -29.8149   16.3827 C.3       10 UNK        -0.1976 
     37 N         -51.8977  -28.1756   16.1418 N.am      10 UNK        -0.4242 
     38 C         -50.6909  -28.7362   16.2670 C.2       10 UNK         0.5072 
     39 O         -50.4427  -29.6701   17.0312 O.2       10 UNK        -0.5224 
     40 CA        -49.5619  -28.1578   15.3960 C.3       9 UNK         0.0343 
     41 CB        -49.4545  -28.9466   14.0825 C.3       9 UNK        -0.2003 
     42 N         -49.7113  -26.7254   15.1050 N.am      9 UNK        -0.4272 
     43 C         -49.5759  -25.7551   16.0256 C.2       9 UNK         0.4988 
     44 O         -49.3538  -25.9863   17.2151 O.2       9 UNK        -0.5108 
     45 CA        -49.6794  -24.2844   15.5767 C.3       8 UNK         0.0248 
     46 CB        -48.3941  -23.5157   15.9324 C.3       8 UNK        -0.2001 
     47 N         -49.9202  -24.1439   14.1411 N.am      8 UNK        -0.4140 
     48 C         -51.1135  -23.9034   13.5782 C.2       8 UNK         0.5028 
     49 O         -52.1465  -23.7153   14.2209 O.2       8 UNK        -0.5428 
     50 CA        -51.1810  -23.8729   12.0366 C.3       7 UNK         0.0264 
     51 CB        -51.2815  -22.4268   11.5267 C.3       7 UNK        -0.1988 
     52 N         -50.0553  -24.5356   11.3703 N.am      7 UNK        -0.4454 
     53 C         -49.7765  -25.8427   11.4823 C.2       7 UNK         0.5027 
     54 O         -50.4517  -26.6191   12.1547 O.2       7 UNK        -0.5083 
     55 CA        -48.5029  -26.3702   10.7932 C.3       6 UNK         0.0844 
     56 C56       -48.8546  -26.9588    9.4105 C.3       14 UNK        -0.0967 
     57 S57       -47.5517  -28.0677    8.7669 S.3       14 UNK        -0.2604 
     58 C58       -47.9831  -29.6723    9.5312 C.3       14 UNK         0.0134 
     59 N         -47.4324  -25.3705   10.7160 N.am      6 UNK        -0.4116 
     60 C         -46.8702  -24.7622   11.7731 C.2       5 UNK         0.5034 
     61 O         -47.1931  -24.9906   12.9395 O.2       5 UNK        -0.5045 
     62 CA        -45.7959  -23.6937   11.4986 C.3       5 UNK         0.0224 
     63 CB        -44.3920  -24.2871   11.6944 C.3       5 UNK        -0.1978 
     64 N         -45.8792  -23.0880   10.1666 N.am      5 UNK        -0.4737 
     65 C         -46.9071  -22.3593    9.7080 C.2       4 UNK         0.5027 
     66 O         -47.8980  -22.0771   10.3815 O.2       4 UNK        -0.5211 
     67 CA        -46.8378  -21.9152    8.2338 C.3       4 UNK         0.0297 
     68 CB        -46.2529  -20.4979    8.1296 C.3       4 UNK        -0.1993 
     69 N         -46.0740  -22.8257    7.3668 N.am      4 UNK        -0.4486 
     70 C         -46.3730  -24.1171    7.1720 C.2       3 UNK         0.4961 
     71 O         -47.3166  -24.6867    7.7222 O.2       3 UNK        -0.5105 
     72 CA        -45.4424  -24.9174    6.2558 C.3       3 UNK         0.0299 
     73 CB        -44.1031  -25.2168    6.9547 C.3       3 UNK        -0.1972 
     74 N         -46.1091  -26.1703    5.9155 N.am      3 UNK        -0.4305 
     75 C         -45.9001  -26.9030    4.8168 C.2       2 UNK         0.5006 
     76 O         -45.0687  -26.6181    3.9537 O.2       2 UNK        -0.5106 
     77 CA        -46.7518  -28.1755    4.6434 C.3       2 UNK         0.0296 
     78 CB        -45.9663  -29.4107    5.1142 C.3       2 UNK        -0.2002 
     79 N         -48.0395  -28.1405    5.3430 N.am      2 UNK        -0.4032 
     80 C         -49.0741  -27.3544    5.0163 C.2       1 UNK         0.5000 
     81 O         -49.0544  -26.5408    4.0876 O.2       1 UNK        -0.5238 
     82 H82       -51.9749  -26.1314    9.0430 H         1 UNK         0.0889 
     83 H83       -51.8816  -27.5709    8.0432 H         1 UNK         0.0889 
     84 H84       -53.3252  -26.5780    8.0114 H         1 UNK         0.0889 
     85 H85       -50.5090  -25.5128    5.3170 H         1 UNK         0.3028 
     86 H86       -50.0464  -27.8721    6.8483 H         1 UNK         0.0864 
     87 H87       -51.7224  -28.0718    4.2751 H         1 UNK         0.0720 
     88 H88       -52.3020  -28.4779    5.8607 H         1 UNK         0.0720 
     89 H89       -51.4668  -32.1469    6.2177 H         1 UNK         0.0814 
     90 H90       -52.7389  -30.9502    6.2340 H         1 UNK         0.0814 
     91 H91       -49.1074  -30.6376    7.2477 H         1 UNK         0.1469 
     92 H92       -50.0760  -29.5073   11.2614 H         1 UNK         0.1381 
     93 H93       -53.2016  -30.5966    8.5456 H         1 UNK         0.1206 
     94 H94       -52.3200  -29.9566   12.0997 H         1 UNK         0.0813 
     95 H95       -53.6099  -30.4701   11.0361 H         1 UNK         0.0813 
     96 H96       -53.5122  -28.4300   13.4048 H         1 UNK         0.0638 
     97 H97       -53.5567  -26.7596   12.9594 H         1 UNK         0.0638 
     98 H98       -55.9083  -27.5445   11.7862 H         1 UNK         0.0568 
     99 H99       -57.0033  -28.4464   14.9254 H         1 UNK         0.3450 
    100 H100      -57.1737  -30.1450   14.5587 H         1 UNK         0.3450 
    101 H101      -55.3807  -26.3341   14.3810 H         1 UNK         0.2987 
    102 H102      -57.2367  -24.0305   14.1712 H         1 UNK         0.0766 
    103 H103      -59.6163  -24.6043   13.8497 H         1 UNK         0.0798 
    104 H104      -59.5405  -25.8188   15.1177 H         1 UNK         0.0798 
    105 H105      -59.3586  -24.1101   15.5130 H         1 UNK         0.0798 
    106 H106      -56.3013  -24.3982   16.1389 H         1 UNK         0.3198 
    107 H107      -55.5238  -25.2487   17.9362 H         1 UNK         0.0843 
    108 H108      -56.2009  -26.3433   20.0544 H         1 UNK         0.0831 
    109 H109      -57.3240  -27.3940   19.1894 H         1 UNK         0.0831 
    110 H110      -57.6098  -25.6616   19.2589 H         1 UNK         0.0831 
    111 H111      -54.9837  -27.9536   18.5161 H         1 UNK         0.3133 
    112 H112      -52.8053  -28.6453   17.9602 H         1 UNK         0.0566 
    113 H113      -53.9765  -29.7388   15.3261 H         1 UNK         0.0814 
    114 H114      -53.0507  -30.6646   16.5021 H         1 UNK         0.0814 
    115 H115      -54.6410  -30.0536   16.9206 H         1 UNK         0.0814 
    116 H116      -52.0199  -27.3835   15.5220 H         1 UNK         0.3091 
    117 H117      -48.6261  -28.2883   15.9434 H         1 UNK         0.0702 
    118 H118      -48.6448  -28.5727   13.4562 H         1 UNK         0.0785 
    119 H119      -50.3808  -28.8914   13.5106 H         1 UNK         0.0785 
    120 H120      -49.2554  -30.0011   14.2761 H         1 UNK         0.0785 
    121 H121      -49.9250  -26.4790   14.1445 H         1 UNK         0.2998 
    122 H122      -50.5023  -23.8381   16.1386 H         1 UNK         0.0697 
    123 H123      -47.5186  -23.9435   15.4426 H         1 UNK         0.0825 
    124 H124      -48.2083  -23.5363   17.0070 H         1 UNK         0.0825 
    125 H125      -48.4641  -22.4685   15.6389 H         1 UNK         0.0825 
    126 H126      -49.1180  -24.3048   13.5417 H         1 UNK         0.3029 
    127 H127      -52.0917  -24.4030   11.7483 H         1 UNK         0.0897 
    128 H128      -50.3872  -21.8515   11.7702 H         1 UNK         0.0792 
    129 H129      -52.1332  -21.9124   11.9739 H         1 UNK         0.0792 
    130 H130      -51.4165  -22.3952   10.4452 H         1 UNK         0.0792 
    131 H131      -49.4319  -23.9447   10.8347 H         1 UNK         0.3086 
    132 H132      -48.1326  -27.1809   11.4238 H         1 UNK         0.0583 
    133 H133      -49.8034  -27.4892    9.4389 H         1 UNK         0.1020 
    134 H134      -49.0284  -26.1603    8.6906 H         1 UNK         0.1020 
    135 H135      -47.3304  -30.4474    9.1270 H         1 UNK         0.0694 
    136 H136      -47.7763  -29.6245   10.6015 H         1 UNK         0.0694 
    137 H137      -47.1381  -25.1093    9.7817 H         1 UNK         0.2989 
    138 H138      -45.9410  -22.8993   12.2342 H         1 UNK         0.1055 
    139 H139      -44.2876  -24.7228   12.6893 H         1 UNK         0.0806 
    140 H140      -43.6200  -23.5236   11.5960 H         1 UNK         0.0806 
    141 H141      -44.1814  -25.0752   10.9702 H         1 UNK         0.0806 
    142 H142      -45.1109  -23.2664    9.5365 H         1 UNK         0.3061 
    143 H143      -47.8630  -21.8902    7.8582 H         1 UNK         0.0734 
    144 H144      -45.2154  -20.4624    8.4641 H         1 UNK         0.0832 
    145 H145      -46.2904  -20.1258    7.1056 H         1 UNK         0.0832 
    146 H146      -46.8176  -19.7972    8.7465 H         1 UNK         0.0832 
    147 H147      -45.2783  -22.4324    6.8841 H         1 UNK         0.3156 
    148 H148      -45.2696  -24.3361    5.3478 H         1 UNK         0.0589 
    149 H149      -44.2486  -25.7857    7.8743 H         1 UNK         0.0808 
    150 H150      -43.4396  -25.7928    6.3093 H         1 UNK         0.0808 
    151 H151      -43.5766  -24.2983    7.2161 H         1 UNK         0.0808 
    152 H152      -46.8378  -26.4364    6.5672 H         1 UNK         0.3098 
    153 H153      -46.9553  -28.2866    3.5762 H         1 UNK         0.0720 
    154 H154      -46.5170  -30.3309    4.9175 H         1 UNK         0.0791 
    155 H155      -45.7512  -29.3686    6.1831 H         1 UNK         0.0791 
    156 H156      -45.0114  -29.4889    4.5924 H         1 UNK         0.0791 
    157 H157      -48.1352  -28.7669    6.1288 H         1 UNK         0.3028 
@<TRIPOS>BOND
     1    1    2 1    
     2    1   82 1    
     3    1   83 1    
     4    1   84 1    
     5    2    3 2    
     6    2    4 am   BACKBONE|DICT|INTERRES
     7    4    5 1    
     8    4   85 1    
     9    5    6 1    
    10    5   80 1    
    11    5   86 1    
    12    6    7 1    
    13    6   87 1    
    14    6   88 1    
    15    7    8 1    
    16    8    9 1    
    17    8   89 1    
    18    8   90 1    
    19    9   10 ar   
    20    9   14 ar   
    21   10   11 ar   
    22   10   91 1    
    23   11   12 ar   
    24   11   58 1    
    25   12   13 ar   
    26   12   92 1    
    27   13   14 ar   
    28   13   15 1    
    29   14   93 1    
    30   15   16 1    
    31   15   94 1    
    32   15   95 1    
    33   16   17 1    
    34   17   18 1    
    35   17   96 1    
    36   17   97 1    
    37   18   19 1    
    38   18   22 1    
    39   18   98 1    
    40   19   20 am   BACKBONE|DICT|INTERRES
    41   19   21 2    
    42   20   99 1    
    43   20  100 1    
    44   22   23 am   BACKBONE|DICT|INTERRES
    45   22  101 1    
    46   23   24 2    
    47   23   25 1    
    48   25   26 1    
    49   25   27 1    
    50   25  102 1    
    51   26  103 1    
    52   26  104 1    
    53   26  105 1    
    54   27   28 am   BACKBONE|DICT|INTERRES
    55   27  106 1    
    56   28   29 2    
    57   28   30 1    
    58   30   31 1    
    59   30   32 1    
    60   30  107 1    
    61   31  108 1    
    62   31  109 1    
    63   31  110 1    
    64   32   33 am   BACKBONE|DICT|INTERRES
    65   32  111 1    
    66   33   34 2    
    67   33   35 1    
    68   35   36 1    
    69   35   37 1    
    70   35  112 1    
    71   36  113 1    
    72   36  114 1    
    73   36  115 1    
    74   37   38 am   BACKBONE|DICT|INTERRES
    75   37  116 1    
    76   38   39 2    
    77   38   40 1    
    78   40   41 1    
    79   40   42 1    
    80   40  117 1    
    81   41  118 1    
    82   41  119 1    
    83   41  120 1    
    84   42   43 am   BACKBONE|DICT|INTERRES
    85   42  121 1    
    86   43   44 2    
    87   43   45 1    
    88   45   46 1    
    89   45   47 1    
    90   45  122 1    
    91   46  123 1    
    92   46  124 1    
    93   46  125 1    
    94   47   48 am   BACKBONE|DICT|INTERRES
    95   47  126 1    
    96   48   49 2    
    97   48   50 1    
    98   50   51 1    
    99   50   52 1    
   100   50  127 1    
   101   51  128 1    
   102   51  129 1    
   103   51  130 1    
   104   52   53 am   BACKBONE|DICT|INTERRES
   105   52  131 1    
   106   53   54 2    
   107   53   55 1    
   108   55   56 1    
   109   55   59 1    
   110   55  132 1    
   111   56   57 1    
   112   56  133 1    
   113   56  134 1    
   114   57   58 1    
   115   58  135 1    
   116   58  136 1    
   117   59   60 am   BACKBONE|DICT|INTERRES
   118   59  137 1    
   119   60   61 2    
   120   60   62 1    
   121   62   63 1    
   122   62   64 1    
   123   62  138 1    
   124   63  139 1    
   125   63  140 1    
   126   63  141 1    
   127   64   65 am   BACKBONE|DICT|INTERRES
   128   64  142 1    
   129   65   66 2    
   130   65   67 1    
   131   67   68 1    
   132   67   69 1    
   133   67  143 1    
   134   68  144 1    
   135   68  145 1    
   136   68  146 1    
   137   69   70 am   BACKBONE|DICT|INTERRES
   138   69  147 1    
   139   70   71 2    
   140   70   72 1    
   141   72   73 1    
   142   72   74 1    
   143   72  148 1    
   144   73  149 1    
   145   73  150 1    
   146   73  151 1    
   147   74   75 am   BACKBONE|DICT|INTERRES
   148   74  152 1    
   149   75   76 2    
   150   75   77 1    
   151   77   78 1    
   152   77   79 1    
   153   77  153 1    
   154   78  154 1    
   155   78  155 1    
   156   78  156 1    
   157   79   80 am   BACKBONE|DICT|INTERRES
   158   79  157 1    
   159   80   81 2    
@<TRIPOS>SUBSTRUCTURE
     1 UNK         1 GROUP             0       ****    0 ROOT    
