@<TRIPOS>MOLECULE
3R207
157   159    1
SMALL
USER_CHARGES


@<TRIPOS>ATOM
      1 CA        -50.2037  -22.4406    6.6972 C.3       0 UNK        -0.1975 
      2 C         -49.7347  -23.8395    7.0639 C.2       0 UNK         0.4852 
      3 O         -49.1524  -24.0232    8.1314 O.2       0 UNK        -0.5216 
      4 N         -49.9797  -24.8239    6.1852 N.am      1 UNK        -0.4461 
      5 CA        -49.6532  -26.2514    6.3455 C.3       1 UNK         0.0864 
      6 C6        -50.0179  -27.0389    5.0604 C.3       14 UNK        -0.0898 
      7 S7        -50.3133  -28.8154    5.3488 S.3       14 UNK        -0.2598 
      8 C8        -52.0994  -28.9728    5.0212 C.3       14 UNK         0.0286 
      9 C9        -52.9492  -28.6692    6.2490 C.ar      14 UNK        -0.0844 
     10 C10       -53.2737  -27.3501    6.5859 C.ar      14 UNK        -0.0881 
     11 C11       -54.0973  -27.0778    7.6842 C.ar      14 UNK        -0.0643 
     12 C12       -54.5965  -28.1390    8.4456 C.ar      14 UNK        -0.0930 
     13 C13       -54.2815  -29.4614    8.1193 C.ar      14 UNK        -0.0827 
     14 C14       -53.4549  -29.7196    7.0223 C.ar      14 UNK        -0.1249 
     15 C15       -54.8605  -30.6066    8.9369 C.3       14 UNK         0.0141 
     16 S16       -53.7378  -31.0990   10.2794 S.3       14 UNK        -0.2313 
     17 C17       -54.8968  -31.9214   11.4195 C.3       14 UNK        -0.0915 
     18 CA        -55.5296  -30.9298   12.4406 C.3       13 UNK         0.0968 
     19 C         -56.6501  -31.5844   13.3077 C.2       13 UNK         0.5732 
     20 N         -56.8518  -31.1798   14.5576 N.am      13 UNK        -0.7310 
     21 O         -57.3793  -32.4516   12.8315 O.2       13 UNK        -0.5035 
     22 N         -54.5372  -30.1587   13.2099 N.am      13 UNK        -0.4233 
     23 C         -53.6726  -30.6453   14.1107 C.2       13 UNK         0.4989 
     24 O         -53.4987  -31.8455   14.3270 O.2       13 UNK        -0.4996 
     25 CA        -52.9032  -29.6165   14.9632 C.3       12 UNK         0.0216 
     26 CB        -51.4707  -29.4332   14.4422 C.3       12 UNK        -0.1964 
     27 N         -53.5616  -28.3059   15.0809 N.am      12 UNK        -0.4276 
     28 C         -54.7634  -28.1092   15.6494 C.2       12 UNK         0.5020 
     29 O         -55.4445  -29.0287   16.1089 O.2       12 UNK        -0.5489 
     30 CA        -55.3351  -26.6754   15.6690 C.3       11 UNK         0.0294 
     31 CB        -56.2285  -26.4160   16.9017 C.3       11 UNK        -0.2019 
     32 N         -54.3344  -25.6121   15.5164 N.am      11 UNK        -0.4493 
     33 C         -53.3267  -25.3160   16.3484 C.2       11 UNK         0.4932 
     34 O         -53.0804  -25.9161   17.3964 O.2       11 UNK        -0.5029 
     35 CA        -52.4320  -24.1428   15.9181 C.3       10 UNK         0.0280 
     36 CB        -52.5202  -22.9836   16.9239 C.3       10 UNK        -0.1976 
     37 N         -51.0348  -24.5436   15.7616 N.am      10 UNK        -0.4242 
     38 C         -50.5835  -25.4864   14.9240 C.2       10 UNK         0.5072 
     39 O         -51.3130  -26.1584   14.1912 O.2       10 UNK        -0.5224 
     40 CA        -49.0549  -25.6491   14.8676 C.3       9 UNK         0.0343 
     41 CB        -48.6072  -26.8171   13.9770 C.3       9 UNK        -0.2003 
     42 N         -48.4654  -24.4196   14.3452 N.am      9 UNK        -0.4272 
     43 C         -48.0857  -23.3713   15.0876 C.2       9 UNK         0.4988 
     44 O         -48.1057  -23.3639   16.3190 O.2       9 UNK        -0.5108 
     45 CA        -47.6612  -22.0996   14.3319 C.3       8 UNK         0.0248 
     46 CB        -46.1532  -22.1302   14.0383 C.3       8 UNK        -0.2001 
     47 N         -48.4013  -21.9099   13.0811 N.am      8 UNK        -0.4140 
     48 C         -49.7235  -21.7018   12.9976 C.2       8 UNK         0.5028 
     49 O         -50.4601  -21.5559   13.9737 O.2       8 UNK        -0.5428 
     50 CA        -50.3435  -21.6762   11.5906 C.3       7 UNK         0.0264 
     51 CB        -49.3538  -21.2718   10.4734 C.3       7 UNK        -0.1988 
     52 N         -51.0051  -22.9459   11.2662 N.am      7 UNK        -0.4454 
     53 C         -50.4431  -24.1639   11.2021 C.2       7 UNK         0.5027 
     54 O         -49.2625  -24.3940   11.4843 O.2       7 UNK        -0.5083 
     55 CA        -51.3590  -25.3126   10.7391 C.3       6 UNK         0.0844 
     56 C56       -52.1529  -24.9824    9.4374 C.3       14 UNK        -0.0967 
     57 S57       -53.9521  -25.1116    9.6744 S.3       14 UNK        -0.2604 
     58 C58       -54.4955  -25.6435    8.0167 C.3       14 UNK         0.0134 
     59 N         -50.5509  -26.5176   10.5837 N.am      6 UNK        -0.4116 
     60 C         -51.0072  -27.7707   10.6791 C.2       5 UNK         0.5034 
     61 O         -52.1626  -28.0513   10.9934 O.2       5 UNK        -0.5045 
     62 CA        -50.0229  -28.9106   10.3636 C.3       5 UNK         0.0224 
     63 CB        -50.3922  -29.5735    9.0296 C.3       5 UNK        -0.1978 
     64 N         -48.6370  -28.4458   10.2650 N.am      5 UNK        -0.4737 
     65 C         -47.6823  -28.7059   11.1666 C.2       4 UNK         0.5027 
     66 O         -47.8549  -29.4023   12.1663 O.2       4 UNK        -0.5211 
     67 CA        -46.3019  -28.0832   10.9238 C.3       4 UNK         0.0297 
     68 CB        -45.4473  -29.0131   10.0471 C.3       4 UNK        -0.1993 
     69 N         -46.4081  -26.7804   10.2671 N.am      4 UNK        -0.4486 
     70 C         -46.0631  -25.6021   10.8064 C.2       3 UNK         0.4961 
     71 O         -45.6640  -25.4726   11.9644 O.2       3 UNK        -0.5105 
     72 CA        -46.1745  -24.3538    9.9011 C.3       3 UNK         0.0299 
     73 CB        -45.0558  -23.3229   10.1616 C.3       3 UNK        -0.1972 
     74 N         -46.2831  -24.6735    8.4718 N.am      3 UNK        -0.4305 
     75 C         -45.3710  -25.2954    7.7039 C.2       2 UNK         0.5006 
     76 O         -44.2250  -25.5476    8.0782 O.2       2 UNK        -0.5106 
     77 CA        -45.8124  -25.7527    6.2957 C.3       2 UNK         0.0296 
     78 CB        -45.1958  -27.1167    5.9171 C.3       2 UNK        -0.2002 
     79 N         -47.2667  -25.7839    6.0852 N.am      2 UNK        -0.4032 
     80 C         -48.1851  -26.4934    6.7632 C.2       1 UNK         0.5000 
     81 O         -47.9283  -27.2227    7.7264 O.2       1 UNK        -0.5238 
     82 H82       -50.9684  -22.1076    7.3981 H         1 UNK         0.0889 
     83 H83       -50.6218  -22.3993    5.6917 H         1 UNK         0.0889 
     84 H84       -49.3691  -21.7418    6.7470 H         1 UNK         0.0889 
     85 H85       -50.4517  -24.5860    5.3242 H         1 UNK         0.3028 
     86 H86       -50.2795  -26.6148    7.1617 H         1 UNK         0.0864 
     87 H87       -50.9139  -26.6160    4.6052 H         1 UNK         0.0720 
     88 H88       -49.2418  -26.9367    4.2992 H         1 UNK         0.0720 
     89 H89       -52.2922  -29.9928    4.6852 H         1 UNK         0.0814 
     90 H90       -52.3937  -28.3322    4.1888 H         1 UNK         0.0814 
     91 H91       -52.9007  -26.5359    5.9809 H         1 UNK         0.1469 
     92 H92       -55.2351  -27.9321    9.2933 H         1 UNK         0.1381 
     93 H93       -53.2136  -30.7422    6.7657 H         1 UNK         0.1206 
     94 H94       -55.0573  -31.4684    8.2974 H         1 UNK         0.0813 
     95 H95       -55.8237  -30.3079    9.3529 H         1 UNK         0.0813 
     96 H96       -55.6672  -32.4168   10.8260 H         1 UNK         0.0638 
     97 H97       -54.3605  -32.7166   11.9387 H         1 UNK         0.0638 
     98 H98       -56.0640  -30.1801   11.8569 H         1 UNK         0.0568 
     99 H99       -56.2762  -30.4600   14.9824 H         1 UNK         0.3450 
    100 H100      -57.5889  -31.6074   15.0946 H         1 UNK         0.3450 
    101 H101      -54.5792  -29.1577   13.0935 H         1 UNK         0.2987 
    102 H102      -52.8388  -30.0341   15.9701 H         1 UNK         0.0766 
    103 H103      -50.9684  -30.3930   14.3139 H         1 UNK         0.0798 
    104 H104      -50.8768  -28.8492   15.1442 H         1 UNK         0.0798 
    105 H105      -51.4533  -28.9228   13.4795 H         1 UNK         0.0798 
    106 H106      -53.0465  -27.5054   14.7298 H         1 UNK         0.3198 
    107 H107      -55.9750  -26.6079   14.7878 H         1 UNK         0.0843 
    108 H108      -55.6781  -26.5421   17.8345 H         1 UNK         0.0831 
    109 H109      -57.0713  -27.1080   16.9286 H         1 UNK         0.0831 
    110 H110      -56.6421  -25.4077   16.8888 H         1 UNK         0.0831 
    111 H111      -54.4180  -25.0635   14.6710 H         1 UNK         0.3133 
    112 H112      -52.7700  -23.7720   14.9480 H         1 UNK         0.0566 
    113 H113      -51.9425  -22.1224   16.5863 H         1 UNK         0.0814 
    114 H114      -53.5521  -22.6524   17.0482 H         1 UNK         0.0814 
    115 H115      -52.1495  -23.2733   17.9081 H         1 UNK         0.0814 
    116 H116      -50.3523  -24.0358   16.3090 H         1 UNK         0.3091 
    117 H117      -48.6950  -25.8405   15.8806 H         1 UNK         0.0702 
    118 H118      -48.9677  -27.7699   14.3622 H         1 UNK         0.0785 
    119 H119      -48.9828  -26.7116   12.9600 H         1 UNK         0.0785 
    120 H120      -47.5202  -26.8814   13.9232 H         1 UNK         0.0785 
    121 H121      -48.4881  -24.3183   13.3344 H         1 UNK         0.2998 
    122 H122      -47.8703  -21.2426   14.9756 H         1 UNK         0.0697 
    123 H123      -45.8793  -22.9953   13.4333 H         1 UNK         0.0825 
    124 H124      -45.5798  -22.1902   14.9644 H         1 UNK         0.0825 
    125 H125      -45.8276  -21.2316   13.5141 H         1 UNK         0.0825 
    126 H126      -47.8908  -22.0493   12.2215 H         1 UNK         0.3029 
    127 H127      -51.1257  -20.9158   11.6203 H         1 UNK         0.0897 
    128 H128      -48.5903  -22.0278   10.2926 H         1 UNK         0.0792 
    129 H129      -48.8463  -20.3368   10.7146 H         1 UNK         0.0792 
    130 H130      -49.8783  -21.1145    9.5313 H         1 UNK         0.0792 
    131 H131      -51.9951  -22.8756   11.0745 H         1 UNK         0.3086 
    132 H132      -52.0465  -25.4798   11.5711 H         1 UNK         0.0583 
    133 H133      -51.9447  -23.9854    9.0474 H         1 UNK         0.1020 
    134 H134      -51.8601  -25.6557    8.6319 H         1 UNK         0.1020 
    135 H135      -55.5822  -25.5637    7.9660 H         1 UNK         0.0694 
    136 H136      -54.1043  -24.9461    7.2742 H         1 UNK         0.0694 
    137 H137      -49.5668  -26.3463   10.4311 H         1 UNK         0.2989 
    138 H138      -50.1285  -29.6541   11.1569 H         1 UNK         0.1055 
    139 H139      -49.7240  -30.4011    8.7924 H         1 UNK         0.0806 
    140 H140      -50.3501  -28.8589    8.2096 H         1 UNK         0.0806 
    141 H141      -51.4052  -29.9706    9.0555 H         1 UNK         0.0806 
    142 H142      -48.3923  -27.9390    9.4178 H         1 UNK         0.3061 
    143 H143      -45.8116  -27.9815   11.8943 H         1 UNK         0.0734 
    144 H144      -44.4459  -28.6075    9.9010 H         1 UNK         0.0832 
    145 H145      -45.3366  -29.9943   10.5107 H         1 UNK         0.0832 
    146 H146      -45.8932  -29.1640    9.0628 H         1 UNK         0.0832 
    147 H147      -46.7484  -26.7865    9.3111 H         1 UNK         0.3156 
    148 H148      -47.1178  -23.8782   10.1629 H         1 UNK         0.0589 
    149 H149      -44.0650  -23.7494   10.0044 H         1 UNK         0.0808 
    150 H150      -45.1565  -22.4552    9.5099 H         1 UNK         0.0808 
    151 H151      -45.0886  -22.9592   11.1881 H         1 UNK         0.0808 
    152 H152      -47.2101  -24.5134    8.0868 H         1 UNK         0.3098 
    153 H153      -45.4204  -25.0067    5.6029 H         1 UNK         0.0720 
    154 H154      -45.4984  -27.4253    4.9165 H         1 UNK         0.0791 
    155 H155      -45.4931  -27.9014    6.6138 H         1 UNK         0.0791 
    156 H156      -44.1059  -27.0732    5.9231 H         1 UNK         0.0791 
    157 H157      -47.6066  -25.1766    5.3520 H         1 UNK         0.3028 
@<TRIPOS>BOND
     1    1    2 1    
     2    1   82 1    
     3    1   83 1    
     4    1   84 1    
     5    2    3 2    
     6    2    4 am   BACKBONE|DICT|INTERRES
     7    4    5 1    
     8    4   85 1    
     9    5    6 1    
    10    5   80 1    
    11    5   86 1    
    12    6    7 1    
    13    6   87 1    
    14    6   88 1    
    15    7    8 1    
    16    8    9 1    
    17    8   89 1    
    18    8   90 1    
    19    9   10 ar   
    20    9   14 ar   
    21   10   11 ar   
    22   10   91 1    
    23   11   12 ar   
    24   11   58 1    
    25   12   13 ar   
    26   12   92 1    
    27   13   14 ar   
    28   13   15 1    
    29   14   93 1    
    30   15   16 1    
    31   15   94 1    
    32   15   95 1    
    33   16   17 1    
    34   17   18 1    
    35   17   96 1    
    36   17   97 1    
    37   18   19 1    
    38   18   22 1    
    39   18   98 1    
    40   19   20 am   BACKBONE|DICT|INTERRES
    41   19   21 2    
    42   20   99 1    
    43   20  100 1    
    44   22   23 am   BACKBONE|DICT|INTERRES
    45   22  101 1    
    46   23   24 2    
    47   23   25 1    
    48   25   26 1    
    49   25   27 1    
    50   25  102 1    
    51   26  103 1    
    52   26  104 1    
    53   26  105 1    
    54   27   28 am   BACKBONE|DICT|INTERRES
    55   27  106 1    
    56   28   29 2    
    57   28   30 1    
    58   30   31 1    
    59   30   32 1    
    60   30  107 1    
    61   31  108 1    
    62   31  109 1    
    63   31  110 1    
    64   32   33 am   BACKBONE|DICT|INTERRES
    65   32  111 1    
    66   33   34 2    
    67   33   35 1    
    68   35   36 1    
    69   35   37 1    
    70   35  112 1    
    71   36  113 1    
    72   36  114 1    
    73   36  115 1    
    74   37   38 am   BACKBONE|DICT|INTERRES
    75   37  116 1    
    76   38   39 2    
    77   38   40 1    
    78   40   41 1    
    79   40   42 1    
    80   40  117 1    
    81   41  118 1    
    82   41  119 1    
    83   41  120 1    
    84   42   43 am   BACKBONE|DICT|INTERRES
    85   42  121 1    
    86   43   44 2    
    87   43   45 1    
    88   45   46 1    
    89   45   47 1    
    90   45  122 1    
    91   46  123 1    
    92   46  124 1    
    93   46  125 1    
    94   47   48 am   BACKBONE|DICT|INTERRES
    95   47  126 1    
    96   48   49 2    
    97   48   50 1    
    98   50   51 1    
    99   50   52 1    
   100   50  127 1    
   101   51  128 1    
   102   51  129 1    
   103   51  130 1    
   104   52   53 am   BACKBONE|DICT|INTERRES
   105   52  131 1    
   106   53   54 2    
   107   53   55 1    
   108   55   56 1    
   109   55   59 1    
   110   55  132 1    
   111   56   57 1    
   112   56  133 1    
   113   56  134 1    
   114   57   58 1    
   115   58  135 1    
   116   58  136 1    
   117   59   60 am   BACKBONE|DICT|INTERRES
   118   59  137 1    
   119   60   61 2    
   120   60   62 1    
   121   62   63 1    
   122   62   64 1    
   123   62  138 1    
   124   63  139 1    
   125   63  140 1    
   126   63  141 1    
   127   64   65 am   BACKBONE|DICT|INTERRES
   128   64  142 1    
   129   65   66 2    
   130   65   67 1    
   131   67   68 1    
   132   67   69 1    
   133   67  143 1    
   134   68  144 1    
   135   68  145 1    
   136   68  146 1    
   137   69   70 am   BACKBONE|DICT|INTERRES
   138   69  147 1    
   139   70   71 2    
   140   70   72 1    
   141   72   73 1    
   142   72   74 1    
   143   72  148 1    
   144   73  149 1    
   145   73  150 1    
   146   73  151 1    
   147   74   75 am   BACKBONE|DICT|INTERRES
   148   74  152 1    
   149   75   76 2    
   150   75   77 1    
   151   77   78 1    
   152   77   79 1    
   153   77  153 1    
   154   78  154 1    
   155   78  155 1    
   156   78  156 1    
   157   79   80 am   BACKBONE|DICT|INTERRES
   158   79  157 1    
   159   80   81 2    
@<TRIPOS>SUBSTRUCTURE
     1 UNK         1 GROUP             0       ****    0 ROOT    
