@<TRIPOS>MOLECULE
3R207
157   159    1
SMALL
USER_CHARGES


@<TRIPOS>ATOM
      1 CA        -50.2656  -33.4495    5.8271 C.3       0 UNK        -0.1975 
      2 C         -49.5887  -32.1109    6.0845 C.2       0 UNK         0.4852 
      3 O         -48.6693  -31.7418    5.3517 O.2       0 UNK        -0.5216 
      4 N         -50.0427  -31.3836    7.1132 N.am      1 UNK        -0.4461 
      5 CA        -49.4720  -30.1083    7.5603 C.3       1 UNK         0.0864 
      6 C6        -50.5757  -29.1690    8.1208 C.3       14 UNK        -0.0898 
      7 S7        -50.2127  -27.4063    7.7944 S.3       14 UNK        -0.2598 
      8 C8        -51.4460  -26.9796    6.5210 C.3       14 UNK         0.0286 
      9 C9        -52.7140  -26.3903    7.1269 C.ar      14 UNK        -0.0844 
     10 C10       -53.0103  -25.0338    6.9569 C.ar      14 UNK        -0.0881 
     11 C11       -54.1733  -24.4801    7.5063 C.ar      14 UNK        -0.0643 
     12 C12       -55.0368  -25.3005    8.2406 C.ar      14 UNK        -0.0930 
     13 C13       -54.7601  -26.6609    8.4080 C.ar      14 UNK        -0.0827 
     14 C14       -53.6048  -27.2000    7.8366 C.ar      14 UNK        -0.1249 
     15 C15       -55.7248  -27.5519    9.1803 C.3       14 UNK         0.0141 
     16 S16       -55.3585  -27.5688   10.9643 S.3       14 UNK        -0.2313 
     17 C17       -53.8835  -28.6423   11.0412 C.3       14 UNK        -0.0915 
     18 CA        -54.0309  -29.8306   12.0294 C.3       13 UNK         0.0968 
     19 C         -52.8002  -30.7841   11.9783 C.2       13 UNK         0.5732 
     20 N         -52.2545  -31.2420   13.1002 N.am      13 UNK        -0.7310 
     21 O         -52.3357  -31.1328   10.8954 O.2       13 UNK        -0.5035 
     22 N         -54.3357  -29.3726   13.3935 N.am      13 UNK        -0.4233 
     23 C         -55.3109  -29.8641   14.1669 C.2       13 UNK         0.4989 
     24 O         -56.1136  -30.7214   13.7920 O.2       13 UNK        -0.4996 
     25 CA        -55.4118  -29.3043   15.6017 C.3       12 UNK         0.0216 
     26 CB        -56.2019  -30.2319   16.5498 C.3       12 UNK        -0.1964 
     27 N         -54.1192  -28.9461   16.2005 N.am      12 UNK        -0.4276 
     28 C         -53.0569  -29.7458   16.3951 C.2       12 UNK         0.5020 
     29 O         -53.0231  -30.9259   16.0421 O.2       12 UNK        -0.5489 
     30 CA        -51.8137  -29.1218   17.0613 C.3       11 UNK         0.0294 
     31 CB        -50.5089  -29.6874   16.4695 C.3       11 UNK        -0.2019 
     32 N         -51.8077  -27.6684   16.8970 N.am      11 UNK        -0.4493 
     33 C         -52.0413  -26.7623   17.8560 C.2       11 UNK         0.4932 
     34 O         -52.2033  -27.0474   19.0423 O.2       11 UNK        -0.5029 
     35 CA        -52.1422  -25.2862   17.4182 C.3       10 UNK         0.0280 
     36 CB        -50.8295  -24.5475   17.7221 C.3       10 UNK        -0.1976 
     37 N         -52.4763  -25.1192   15.9987 N.am      10 UNK        -0.4242 
     38 C         -53.6458  -25.4820   15.4449 C.2       10 UNK         0.5072 
     39 O         -54.5973  -25.9161   16.0947 O.2       10 UNK        -0.5224 
     40 CA        -53.7510  -25.4445   13.9078 C.3       9 UNK         0.0343 
     41 CB        -54.4115  -24.1399   13.4398 C.3       9 UNK        -0.2003 
     42 N         -52.4621  -25.6179   13.2297 N.am      9 UNK        -0.4272 
     43 C         -51.6747  -26.6979   13.3624 C.2       9 UNK         0.4988 
     44 O         -52.0186  -27.6985   13.9909 O.2       9 UNK        -0.5108 
     45 CA        -50.2695  -26.6733   12.7323 C.3       8 UNK         0.0248 
     46 CB        -50.2625  -27.5255   11.4577 C.3       8 UNK        -0.2001 
     47 N         -49.7673  -25.3355   12.4118 N.am      8 UNK        -0.4140 
     48 C         -49.6210  -24.3189   13.2745 C.2       8 UNK         0.5028 
     49 O         -49.7966  -24.4219   14.4893 O.2       8 UNK        -0.5428 
     50 CA        -49.3228  -22.9340   12.6687 C.3       7 UNK         0.0264 
     51 CB        -47.8383  -22.5722   12.8235 C.3       7 UNK        -0.1988 
     52 N         -49.7343  -22.7945   11.2612 N.am      7 UNK        -0.4454 
     53 C         -51.0104  -22.8880   10.8403 C.2       7 UNK         0.5027 
     54 O         -51.9391  -23.1404   11.6093 O.2       7 UNK        -0.5083 
     55 CA        -51.3189  -22.6893    9.3410 C.3       6 UNK         0.0844 
     56 C56       -52.6865  -21.9843    9.1329 C.3       14 UNK        -0.0967 
     57 S57       -53.1516  -21.8483    7.3743 S.3       14 UNK        -0.2604 
     58 C58       -54.5482  -23.0181    7.2676 C.3       14 UNK         0.0134 
     59 N         -50.2218  -21.9781    8.6822 N.am      6 UNK        -0.4116 
     60 C         -49.5157  -22.4268    7.6380 C.2       5 UNK         0.5034 
     61 O         -49.7330  -23.4894    7.0546 O.2       5 UNK        -0.5045 
     62 CA        -48.3340  -21.5535    7.1703 C.3       5 UNK         0.0224 
     63 CB        -48.3317  -20.1200    7.7523 C.3       5 UNK        -0.1978 
     64 N         -47.0444  -22.2073    7.4293 N.am      5 UNK        -0.4737 
     65 C         -46.6044  -22.6705    8.6076 C.2       4 UNK         0.5027 
     66 O         -47.2363  -22.5902    9.6658 O.2       4 UNK        -0.5211 
     67 CA        -45.2115  -23.3085    8.6057 C.3       4 UNK         0.0297 
     68 CB        -44.1110  -22.2360    8.6883 C.3       4 UNK        -0.1993 
     69 N         -45.1192  -24.2029    9.7530 N.am      4 UNK        -0.4486 
     70 C         -44.3669  -25.3046    9.8298 C.2       3 UNK         0.4961 
     71 O         -43.5858  -25.6630    8.9465 O.2       3 UNK        -0.5105 
     72 CA        -44.5018  -26.1728   11.0982 C.3       3 UNK         0.0299 
     73 CB        -45.2702  -25.4988   12.2591 C.3       3 UNK        -0.1972 
     74 N         -45.0835  -27.4866   10.7974 N.am      3 UNK        -0.4305 
     75 C         -46.2767  -27.7194   10.2316 C.2       2 UNK         0.5006 
     76 O         -47.0605  -26.8358    9.8734 O.2       2 UNK        -0.5106 
     77 CA        -46.6760  -29.1908   10.0658 C.3       2 UNK         0.0296 
     78 CB        -47.0619  -29.8104   11.4266 C.3       2 UNK        -0.2002 
     79 N         -47.7944  -29.2493    9.1277 N.am      2 UNK        -0.4032 
     80 C         -48.3093  -30.3416    8.5553 C.2       1 UNK         0.5000 
     81 O         -47.8976  -31.4838    8.7821 O.2       1 UNK        -0.5238 
     82 H82       -51.0666  -33.6456    6.5397 H         1 UNK         0.0889 
     83 H83       -49.5387  -34.2576    5.9038 H         1 UNK         0.0889 
     84 H84       -50.6920  -33.4680    4.8246 H         1 UNK         0.0889 
     85 H85       -50.7675  -31.7647    7.7048 H         1 UNK         0.3028 
     86 H86       -49.0302  -29.6233    6.6868 H         1 UNK         0.0864 
     87 H87       -51.5322  -29.4114    7.6588 H         1 UNK         0.0720 
     88 H88       -50.7315  -29.3196    9.1907 H         1 UNK         0.0720 
     89 H89       -50.9885  -26.2614    5.8387 H         1 UNK         0.0814 
     90 H90       -51.6900  -27.8532    5.9151 H         1 UNK         0.0814 
     91 H91       -52.3349  -24.4070    6.3903 H         1 UNK         0.1469 
     92 H92       -55.9395  -24.8857    8.6679 H         1 UNK         0.1381 
     93 H93       -53.3983  -28.2531    7.9470 H         1 UNK         0.1206 
     94 H94       -55.7067  -28.5703    8.7891 H         1 UNK         0.0813 
     95 H95       -56.7458  -27.1949    9.0386 H         1 UNK         0.0813 
     96 H96       -53.6709  -29.0230   10.0430 H         1 UNK         0.0638 
     97 H97       -53.0349  -28.0192   11.3088 H         1 UNK         0.0638 
     98 H98       -54.8605  -30.4357   11.6609 H         1 UNK         0.0568 
     99 H99       -52.6368  -31.0072   14.0088 H         1 UNK         0.3450 
    100 H100      -51.4644  -31.8627   13.0375 H         1 UNK         0.3450 
    101 H101      -53.6667  -28.7167   13.7848 H         1 UNK         0.2987 
    102 H102      -55.9708  -28.3714   15.5150 H         1 UNK         0.0766 
    103 H103      -56.2859  -29.8011   17.5475 H         1 UNK         0.0798 
    104 H104      -57.2165  -30.3965   16.1849 H         1 UNK         0.0798 
    105 H105      -55.7274  -31.2092   16.6451 H         1 UNK         0.0798 
    106 H106      -54.0392  -27.9763   16.4849 H         1 UNK         0.3198 
    107 H107      -51.8529  -29.3859   18.1200 H         1 UNK         0.0843 
    108 H108      -50.4481  -29.5181   15.3935 H         1 UNK         0.0831 
    109 H109      -50.4358  -30.7631   16.6347 H         1 UNK         0.0831 
    110 H110      -49.6333  -29.2310   16.9311 H         1 UNK         0.0831 
    111 H111      -51.7273  -27.3544   15.9350 H         1 UNK         0.3133 
    112 H112      -52.9380  -24.8229   18.0050 H         1 UNK         0.0566 
    113 H113      -49.9897  -24.9760   17.1734 H         1 UNK         0.0814 
    114 H114      -50.5868  -24.6033   18.7842 H         1 UNK         0.0814 
    115 H115      -50.8966  -23.4915   17.4602 H         1 UNK         0.0814 
    116 H116      -51.7271  -24.7963   15.3945 H         1 UNK         0.3091 
    117 H117      -54.3924  -26.2751   13.6071 H         1 UNK         0.0702 
    118 H118      -54.5630  -24.1403   12.3599 H         1 UNK         0.0785 
    119 H119      -53.8066  -23.2683   13.6931 H         1 UNK         0.0785 
    120 H120      -55.3895  -24.0078   13.9044 H         1 UNK         0.0785 
    121 H121      -52.1366  -24.8293   12.6785 H         1 UNK         0.2998 
    122 H122      -49.5811  -27.1184   13.4531 H         1 UNK         0.0697 
    123 H123      -50.9450  -27.1273   10.7061 H         1 UNK         0.0825 
    124 H124      -50.5624  -28.5530   11.6684 H         1 UNK         0.0825 
    125 H125      -49.2718  -27.5643   11.0125 H         1 UNK         0.0825 
    126 H126      -49.5902  -25.1464   11.4359 H         1 UNK         0.3029 
    127 H127      -49.9023  -22.2111   13.2470 H         1 UNK         0.0897 
    128 H128      -47.6429  -21.5516   12.4939 H         1 UNK         0.0792 
    129 H129      -47.5240  -22.6428   13.8658 H         1 UNK         0.0792 
    130 H130      -47.1997  -23.2358   12.2442 H         1 UNK         0.0792 
    131 H131      -48.9891  -22.6386   10.5857 H         1 UNK         0.3086 
    132 H132      -51.3988  -23.6996    8.9354 H         1 UNK         0.0583 
    133 H133      -53.4800  -22.5169    9.6612 H         1 UNK         0.1020 
    134 H134      -52.6666  -20.9798    9.5592 H         1 UNK         0.1020 
    135 H135      -55.3203  -22.6989    7.9695 H         1 UNK         0.0694 
    136 H136      -54.9880  -22.9377    6.2728 H         1 UNK         0.0694 
    137 H137      -49.9528  -21.0975    9.0965 H         1 UNK         0.2989 
    138 H138      -48.4349  -21.4692    6.0868 H         1 UNK         0.1055 
    139 H139      -47.5369  -19.5227    7.3052 H         1 UNK         0.0806 
    140 H140      -48.1771  -20.1076    8.8319 H         1 UNK         0.0806 
    141 H141      -49.2698  -19.6048    7.5403 H         1 UNK         0.0806 
    142 H142      -46.4596  -22.3472    6.6165 H         1 UNK         0.3061 
    143 H143      -45.0979  -23.8858    7.6855 H         1 UNK         0.0734 
    144 H144      -44.1650  -21.5511    7.8413 H         1 UNK         0.0832 
    145 H145      -44.1998  -21.6396    9.5973 H         1 UNK         0.0832 
    146 H146      -43.1175  -22.6846    8.6780 H         1 UNK         0.0832 
    147 H147      -45.8028  -24.0121   10.4748 H         1 UNK         0.3156 
    148 H148      -43.4838  -26.3556   11.4458 H         1 UNK         0.0589 
    149 H149      -46.3286  -25.3702   12.0326 H         1 UNK         0.0808 
    150 H150      -45.2061  -26.1003   13.1659 H         1 UNK         0.0808 
    151 H151      -44.8530  -24.5197   12.4990 H         1 UNK         0.0808 
    152 H152      -44.5011  -28.2804   11.0256 H         1 UNK         0.3098 
    153 H153      -45.8321  -29.7345    9.6365 H         1 UNK         0.0720 
    154 H154      -47.3191  -30.8651   11.3313 H         1 UNK         0.0791 
    155 H155      -46.2356  -29.7505   12.1357 H         1 UNK         0.0791 
    156 H156      -47.9130  -29.3017   11.8785 H         1 UNK         0.0791 
    157 H157      -48.1718  -28.3362    8.8916 H         1 UNK         0.3028 
@<TRIPOS>BOND
     1    1    2 1    
     2    1   82 1    
     3    1   83 1    
     4    1   84 1    
     5    2    3 2    
     6    2    4 am   BACKBONE|DICT|INTERRES
     7    4    5 1    
     8    4   85 1    
     9    5    6 1    
    10    5   80 1    
    11    5   86 1    
    12    6    7 1    
    13    6   87 1    
    14    6   88 1    
    15    7    8 1    
    16    8    9 1    
    17    8   89 1    
    18    8   90 1    
    19    9   10 ar   
    20    9   14 ar   
    21   10   11 ar   
    22   10   91 1    
    23   11   12 ar   
    24   11   58 1    
    25   12   13 ar   
    26   12   92 1    
    27   13   14 ar   
    28   13   15 1    
    29   14   93 1    
    30   15   16 1    
    31   15   94 1    
    32   15   95 1    
    33   16   17 1    
    34   17   18 1    
    35   17   96 1    
    36   17   97 1    
    37   18   19 1    
    38   18   22 1    
    39   18   98 1    
    40   19   20 am   BACKBONE|DICT|INTERRES
    41   19   21 2    
    42   20   99 1    
    43   20  100 1    
    44   22   23 am   BACKBONE|DICT|INTERRES
    45   22  101 1    
    46   23   24 2    
    47   23   25 1    
    48   25   26 1    
    49   25   27 1    
    50   25  102 1    
    51   26  103 1    
    52   26  104 1    
    53   26  105 1    
    54   27   28 am   BACKBONE|DICT|INTERRES
    55   27  106 1    
    56   28   29 2    
    57   28   30 1    
    58   30   31 1    
    59   30   32 1    
    60   30  107 1    
    61   31  108 1    
    62   31  109 1    
    63   31  110 1    
    64   32   33 am   BACKBONE|DICT|INTERRES
    65   32  111 1    
    66   33   34 2    
    67   33   35 1    
    68   35   36 1    
    69   35   37 1    
    70   35  112 1    
    71   36  113 1    
    72   36  114 1    
    73   36  115 1    
    74   37   38 am   BACKBONE|DICT|INTERRES
    75   37  116 1    
    76   38   39 2    
    77   38   40 1    
    78   40   41 1    
    79   40   42 1    
    80   40  117 1    
    81   41  118 1    
    82   41  119 1    
    83   41  120 1    
    84   42   43 am   BACKBONE|DICT|INTERRES
    85   42  121 1    
    86   43   44 2    
    87   43   45 1    
    88   45   46 1    
    89   45   47 1    
    90   45  122 1    
    91   46  123 1    
    92   46  124 1    
    93   46  125 1    
    94   47   48 am   BACKBONE|DICT|INTERRES
    95   47  126 1    
    96   48   49 2    
    97   48   50 1    
    98   50   51 1    
    99   50   52 1    
   100   50  127 1    
   101   51  128 1    
   102   51  129 1    
   103   51  130 1    
   104   52   53 am   BACKBONE|DICT|INTERRES
   105   52  131 1    
   106   53   54 2    
   107   53   55 1    
   108   55   56 1    
   109   55   59 1    
   110   55  132 1    
   111   56   57 1    
   112   56  133 1    
   113   56  134 1    
   114   57   58 1    
   115   58  135 1    
   116   58  136 1    
   117   59   60 am   BACKBONE|DICT|INTERRES
   118   59  137 1    
   119   60   61 2    
   120   60   62 1    
   121   62   63 1    
   122   62   64 1    
   123   62  138 1    
   124   63  139 1    
   125   63  140 1    
   126   63  141 1    
   127   64   65 am   BACKBONE|DICT|INTERRES
   128   64  142 1    
   129   65   66 2    
   130   65   67 1    
   131   67   68 1    
   132   67   69 1    
   133   67  143 1    
   134   68  144 1    
   135   68  145 1    
   136   68  146 1    
   137   69   70 am   BACKBONE|DICT|INTERRES
   138   69  147 1    
   139   70   71 2    
   140   70   72 1    
   141   72   73 1    
   142   72   74 1    
   143   72  148 1    
   144   73  149 1    
   145   73  150 1    
   146   73  151 1    
   147   74   75 am   BACKBONE|DICT|INTERRES
   148   74  152 1    
   149   75   76 2    
   150   75   77 1    
   151   77   78 1    
   152   77   79 1    
   153   77  153 1    
   154   78  154 1    
   155   78  155 1    
   156   78  156 1    
   157   79   80 am   BACKBONE|DICT|INTERRES
   158   79  157 1    
   159   80   81 2    
@<TRIPOS>SUBSTRUCTURE
     1 UNK         1 GROUP             0       ****    0 ROOT    
