@<TRIPOS>MOLECULE
3R207
157   159    1
SMALL
USER_CHARGES


@<TRIPOS>ATOM
      1 CA        -46.6854  -27.0790    4.5581 C.3       0 UNK        -0.1975 
      2 C         -48.0742  -26.4652    4.4545 C.2       0 UNK         0.4852 
      3 O         -48.2635  -25.5118    3.6984 O.2       0 UNK        -0.5216 
      4 N         -49.0380  -27.0097    5.2056 N.am      1 UNK        -0.4461 
      5 CA        -50.4225  -26.5425    5.2930 C.3       1 UNK         0.0864 
      6 C6        -51.4426  -27.7090    5.1228 C.3       14 UNK        -0.0898 
      7 S7        -51.1160  -29.1735    6.1697 S.3       14 UNK        -0.2598 
      8 C8        -52.6380  -29.2960    7.1669 C.3       14 UNK         0.0286 
      9 C9        -52.3991  -30.1082    8.4311 C.ar      14 UNK        -0.0844 
     10 C10       -51.4148  -29.7126    9.3425 C.ar      14 UNK        -0.0881 
     11 C11       -51.1376  -30.4834   10.4727 C.ar      14 UNK        -0.0643 
     12 C12       -51.8882  -31.6365   10.7167 C.ar      14 UNK        -0.0930 
     13 C13       -52.8939  -32.0303    9.8280 C.ar      14 UNK        -0.0827 
     14 C14       -53.1428  -31.2643    8.6848 C.ar      14 UNK        -0.1249 
     15 C15       -53.6785  -33.3109   10.0760 C.3       14 UNK         0.0141 
     16 S16       -55.3536  -32.9875   10.7099 S.3       14 UNK        -0.2313 
     17 C17       -55.0091  -32.2920   12.3623 C.3       14 UNK        -0.0915 
     18 CA        -55.5885  -30.8637   12.5380 C.3       13 UNK         0.0968 
     19 C         -55.4285  -30.3574   14.0035 C.2       13 UNK         0.5732 
     20 N         -54.8369  -29.1963   14.2633 N.am      13 UNK        -0.7310 
     21 O         -55.8668  -31.0315   14.9328 O.2       13 UNK        -0.5035 
     22 N         -55.0832  -29.9292   11.5196 N.am      13 UNK        -0.4233 
     23 C         -55.7415  -28.8356   11.1250 C.2       13 UNK         0.4989 
     24 O         -56.8897  -28.5531   11.4773 O.2       13 UNK        -0.4996 
     25 CA        -54.9869  -27.8758   10.1909 C.3       12 UNK         0.0216 
     26 CB        -55.5618  -27.9435    8.7665 C.3       12 UNK        -0.1964 
     27 N         -55.0763  -26.4991   10.6834 N.am      12 UNK        -0.4276 
     28 C         -54.5896  -26.0832   11.8600 C.2       12 UNK         0.5020 
     29 O         -53.9358  -26.7981   12.6255 O.2       12 UNK        -0.5489 
     30 CA        -54.9426  -24.6469   12.2678 C.3       11 UNK         0.0294 
     31 CB        -56.2865  -24.6242   13.0140 C.3       11 UNK        -0.2019 
     32 N         -53.9062  -24.1291   13.1542 N.am      11 UNK        -0.4493 
     33 C         -52.9121  -23.3139   12.7950 C.2       11 UNK         0.4932 
     34 O         -52.8409  -22.7776   11.6899 O.2       11 UNK        -0.5029 
     35 CA        -51.7917  -23.0561   13.8195 C.3       10 UNK         0.0280 
     36 CB        -52.0662  -21.7840   14.6430 C.3       10 UNK        -0.1976 
     37 N         -51.4624  -24.2006   14.6803 N.am      10 UNK        -0.4242 
     38 C         -52.1868  -24.7716   15.6549 C.2       10 UNK         0.5072 
     39 O         -53.3256  -24.4212   15.9654 O.2       10 UNK        -0.5224 
     40 CA        -51.5360  -25.9465   16.3987 C.3       9 UNK         0.0343 
     41 CB        -51.7606  -27.2562   15.6282 C.3       9 UNK        -0.2003 
     42 N         -50.1014  -25.7260   16.5889 N.am      9 UNK        -0.4272 
     43 C         -49.5720  -25.0599   17.6255 C.2       9 UNK         0.4988 
     44 O         -50.2299  -24.6352   18.5761 O.2       9 UNK        -0.5108 
     45 CA        -48.0499  -24.8260   17.6084 C.3       8 UNK         0.0248 
     46 CB        -47.3213  -25.9781   18.3193 C.3       8 UNK        -0.2001 
     47 N         -47.5038  -24.6659   16.2586 N.am      8 UNK        -0.4140 
     48 C         -47.7371  -23.6135   15.4607 C.2       8 UNK         0.5028 
     49 O         -48.3824  -22.6227   15.8030 O.2       8 UNK        -0.5428 
     50 CA        -47.1712  -23.6837   14.0300 C.3       7 UNK         0.0264 
     51 CB        -45.7901  -23.0102   13.9761 C.3       7 UNK        -0.1988 
     52 N         -47.0704  -25.0415   13.4735 N.am      7 UNK        -0.4454 
     53 C         -48.0843  -25.9097   13.3422 C.2       7 UNK         0.5027 
     54 O         -49.2394  -25.6556   13.6858 O.2       7 UNK        -0.5083 
     55 CA        -47.7238  -27.2884   12.7650 C.3       6 UNK         0.0844 
     56 C56       -48.6830  -28.4327   13.2021 C.3       14 UNK        -0.0967 
     57 S57       -50.2565  -28.5530   12.2717 S.3       14 UNK        -0.2604 
     58 C58       -49.9763  -30.1118   11.3818 C.3       14 UNK         0.0134 
     59 N         -47.5659  -27.1790   11.3162 N.am      6 UNK        -0.4116 
     60 C         -46.6444  -27.8211   10.5881 C.2       5 UNK         0.5034 
     61 O         -45.7815  -28.5545   11.0719 O.2       5 UNK        -0.5045 
     62 CA        -46.6764  -27.6177    9.0644 C.3       5 UNK         0.0224 
     63 CB        -47.7065  -28.5563    8.4170 C.3       5 UNK        -0.1978 
     64 N         -46.9916  -26.2324    8.7069 N.am      5 UNK        -0.4737 
     65 C         -46.1132  -25.3509    8.2080 C.2       4 UNK         0.5027 
     66 O         -44.9496  -25.6371    7.9253 O.2       4 UNK        -0.5211 
     67 CA        -46.5919  -23.9026    7.9833 C.3       4 UNK         0.0297 
     68 CB        -46.7360  -23.5838    6.4879 C.3       4 UNK        -0.1993 
     69 N         -47.8498  -23.5977    8.6699 N.am      4 UNK        -0.4486 
     70 C         -47.9246  -23.3227    9.9800 C.2       3 UNK         0.4961 
     71 O         -46.9363  -23.2238   10.7051 O.2       3 UNK        -0.5105 
     72 CA        -49.3205  -23.1377   10.6046 C.3       3 UNK         0.0299 
     73 CB        -49.6329  -21.6383   10.7402 C.3       3 UNK        -0.1972 
     74 N         -50.4196  -23.8035    9.8975 N.am      3 UNK        -0.4305 
     75 C         -50.4899  -25.1121    9.6165 C.2       2 UNK         0.5006 
     76 O         -49.6037  -25.9168    9.9026 O.2       2 UNK        -0.5106 
     77 CA        -51.7154  -25.6186    8.8346 C.3       2 UNK         0.0296 
     78 CB        -52.8037  -24.5525    8.5805 C.3       2 UNK        -0.2002 
     79 N         -51.3219  -26.2379    7.5639 N.am      2 UNK        -0.4032 
     80 C         -50.5915  -25.7000    6.5761 C.2       1 UNK         0.5000 
     81 O         -50.0715  -24.5834    6.6407 O.2       1 UNK        -0.5238 
     82 H82       -46.6914  -28.0140    5.1174 H         1 UNK         0.0889 
     83 H83       -46.0062  -26.3885    5.0576 H         1 UNK         0.0889 
     84 H84       -46.2908  -27.2859    3.5636 H         1 UNK         0.0889 
     85 H85       -48.8220  -27.7996    5.7962 H         1 UNK         0.3028 
     86 H86       -50.6200  -25.8474    4.4740 H         1 UNK         0.0864 
     87 H87       -52.4664  -27.3566    5.2631 H         1 UNK         0.0720 
     88 H88       -51.4050  -28.0527    4.0879 H         1 UNK         0.0720 
     89 H89       -53.0008  -28.3097    7.4481 H         1 UNK         0.0814 
     90 H90       -53.4213  -29.7464    6.5550 H         1 UNK         0.0814 
     91 H91       -50.8354  -28.8202    9.1575 H         1 UNK         0.1469 
     92 H92       -51.6708  -32.2431   11.5853 H         1 UNK         0.1381 
     93 H93       -53.9074  -31.5799    7.9880 H         1 UNK         0.1206 
     94 H94       -53.7596  -33.8691    9.1422 H         1 UNK         0.0813 
     95 H95       -53.1489  -33.9636   10.7718 H         1 UNK         0.0813 
     96 H96       -53.9371  -32.2966   12.5605 H         1 UNK         0.0638 
     97 H97       -55.4501  -32.9736   13.0919 H         1 UNK         0.0638 
     98 H98       -56.6667  -30.9514   12.3912 H         1 UNK         0.0568 
     99 H99       -54.7604  -28.9004   15.2220 H         1 UNK         0.3450 
    100 H100      -54.4914  -28.5931   13.5252 H         1 UNK         0.3450 
    101 H101      -54.1485  -30.1058   11.1791 H         1 UNK         0.2987 
    102 H102      -53.9316  -28.1553   10.1618 H         1 UNK         0.0766 
    103 H103      -55.0485  -27.2575    8.0931 H         1 UNK         0.0798 
    104 H104      -56.6237  -27.6939    8.7484 H         1 UNK         0.0798 
    105 H105      -55.4594  -28.9481    8.3540 H         1 UNK         0.0798 
    106 H106      -55.6530  -25.8679   10.1467 H         1 UNK         0.3198 
    107 H107      -55.0235  -24.0267   11.3724 H         1 UNK         0.0843 
    108 H108      -56.2605  -25.2465   13.9099 H         1 UNK         0.0831 
    109 H109      -57.0934  -24.9976   12.3820 H         1 UNK         0.0831 
    110 H110      -56.5539  -23.6119   13.3173 H         1 UNK         0.0831 
    111 H111      -53.8688  -24.5275   14.0872 H         1 UNK         0.3133 
    112 H112      -50.8843  -22.8749   13.2440 H         1 UNK         0.0566 
    113 H113      -51.2376  -21.5644   15.3167 H         1 UNK         0.0814 
    114 H114      -52.1918  -20.9196   13.9898 H         1 UNK         0.0814 
    115 H115      -52.9734  -21.8715   15.2414 H         1 UNK         0.0814 
    116 H116      -50.5883  -24.6629   14.4358 H         1 UNK         0.3091 
    117 H117      -52.0216  -26.0422   17.3723 H         1 UNK         0.0702 
    118 H118      -51.3098  -28.1063   16.1399 H         1 UNK         0.0785 
    119 H119      -51.3449  -27.2071   14.6220 H         1 UNK         0.0785 
    120 H120      -52.8256  -27.4646   15.5227 H         1 UNK         0.0785 
    121 H121      -49.5002  -25.9911   15.8202 H         1 UNK         0.2998 
    122 H122      -47.8526  -23.9054   18.1621 H         1 UNK         0.0697 
    123 H123      -47.4648  -26.9288   17.8041 H         1 UNK         0.0825 
    124 H124      -47.6906  -26.1019   19.3385 H         1 UNK         0.0825 
    125 H125      -46.2497  -25.7896   18.3868 H         1 UNK         0.0825 
    126 H126      -46.9371  -25.4204   15.9004 H         1 UNK         0.3029 
    127 H127      -47.8504  -23.1163   13.3920 H         1 UNK         0.0897 
    128 H128      -45.4133  -22.9555   12.9546 H         1 UNK         0.0792 
    129 H129      -45.8396  -21.9878   14.3537 H         1 UNK         0.0792 
    130 H130      -45.0545  -23.5452   14.5779 H         1 UNK         0.0792 
    131 H131      -46.1582  -25.3179   13.1386 H         1 UNK         0.3086 
    132 H132      -46.7503  -27.5266   13.1996 H         1 UNK         0.0583 
    133 H133      -48.1498  -29.3801   13.1123 H         1 UNK         0.1020 
    134 H134      -48.9213  -28.3500   14.2640 H         1 UNK         0.1020 
    135 H135      -49.0697  -30.0232   10.7820 H         1 UNK         0.0694 
    136 H136      -49.7907  -30.9052   12.1075 H         1 UNK         0.0694 
    137 H137      -48.2876  -26.6372   10.8420 H         1 UNK         0.2989 
    138 H138      -45.6899  -27.8944    8.6852 H         1 UNK         0.1055 
    139 H139      -47.5595  -29.5880    8.7396 H         1 UNK         0.0806 
    140 H140      -47.6205  -28.5460    7.3322 H         1 UNK         0.0806 
    141 H141      -48.7248  -28.2714    8.6759 H         1 UNK         0.0806 
    142 H142      -47.9234  -25.9087    8.9490 H         1 UNK         0.3061 
    143 H143      -45.8105  -23.2500    8.3792 H         1 UNK         0.0734 
    144 H144      -46.9348  -22.5241    6.3281 H         1 UNK         0.0832 
    145 H145      -45.8237  -23.8273    5.9418 H         1 UNK         0.0832 
    146 H146      -47.5498  -24.1445    6.0332 H         1 UNK         0.0832 
    147 H147      -48.7036  -23.6913    8.1295 H         1 UNK         0.3156 
    148 H148      -49.2845  -23.5753   11.6026 H         1 UNK         0.0589 
    149 H149      -49.7004  -21.1526    9.7660 H         1 UNK         0.0808 
    150 H150      -48.8522  -21.1269   11.3055 H         1 UNK         0.0808 
    151 H151      -50.5714  -21.4645   11.2648 H         1 UNK         0.0808 
    152 H152      -51.2028  -23.2203    9.6381 H         1 UNK         0.3098 
    153 H153      -52.1566  -26.4068    9.4466 H         1 UNK         0.0720 
    154 H154      -52.4372  -23.7227    7.9748 H         1 UNK         0.0791 
    155 H155      -53.1855  -24.1444    9.5152 H         1 UNK         0.0791 
    156 H156      -53.6562  -24.9852    8.0571 H         1 UNK         0.0791 
    157 H157      -51.6205  -27.1929    7.4263 H         1 UNK         0.3028 
@<TRIPOS>BOND
     1    1    2 1    
     2    1   82 1    
     3    1   83 1    
     4    1   84 1    
     5    2    3 2    
     6    2    4 am   BACKBONE|DICT|INTERRES
     7    4    5 1    
     8    4   85 1    
     9    5    6 1    
    10    5   80 1    
    11    5   86 1    
    12    6    7 1    
    13    6   87 1    
    14    6   88 1    
    15    7    8 1    
    16    8    9 1    
    17    8   89 1    
    18    8   90 1    
    19    9   10 ar   
    20    9   14 ar   
    21   10   11 ar   
    22   10   91 1    
    23   11   12 ar   
    24   11   58 1    
    25   12   13 ar   
    26   12   92 1    
    27   13   14 ar   
    28   13   15 1    
    29   14   93 1    
    30   15   16 1    
    31   15   94 1    
    32   15   95 1    
    33   16   17 1    
    34   17   18 1    
    35   17   96 1    
    36   17   97 1    
    37   18   19 1    
    38   18   22 1    
    39   18   98 1    
    40   19   20 am   BACKBONE|DICT|INTERRES
    41   19   21 2    
    42   20   99 1    
    43   20  100 1    
    44   22   23 am   BACKBONE|DICT|INTERRES
    45   22  101 1    
    46   23   24 2    
    47   23   25 1    
    48   25   26 1    
    49   25   27 1    
    50   25  102 1    
    51   26  103 1    
    52   26  104 1    
    53   26  105 1    
    54   27   28 am   BACKBONE|DICT|INTERRES
    55   27  106 1    
    56   28   29 2    
    57   28   30 1    
    58   30   31 1    
    59   30   32 1    
    60   30  107 1    
    61   31  108 1    
    62   31  109 1    
    63   31  110 1    
    64   32   33 am   BACKBONE|DICT|INTERRES
    65   32  111 1    
    66   33   34 2    
    67   33   35 1    
    68   35   36 1    
    69   35   37 1    
    70   35  112 1    
    71   36  113 1    
    72   36  114 1    
    73   36  115 1    
    74   37   38 am   BACKBONE|DICT|INTERRES
    75   37  116 1    
    76   38   39 2    
    77   38   40 1    
    78   40   41 1    
    79   40   42 1    
    80   40  117 1    
    81   41  118 1    
    82   41  119 1    
    83   41  120 1    
    84   42   43 am   BACKBONE|DICT|INTERRES
    85   42  121 1    
    86   43   44 2    
    87   43   45 1    
    88   45   46 1    
    89   45   47 1    
    90   45  122 1    
    91   46  123 1    
    92   46  124 1    
    93   46  125 1    
    94   47   48 am   BACKBONE|DICT|INTERRES
    95   47  126 1    
    96   48   49 2    
    97   48   50 1    
    98   50   51 1    
    99   50   52 1    
   100   50  127 1    
   101   51  128 1    
   102   51  129 1    
   103   51  130 1    
   104   52   53 am   BACKBONE|DICT|INTERRES
   105   52  131 1    
   106   53   54 2    
   107   53   55 1    
   108   55   56 1    
   109   55   59 1    
   110   55  132 1    
   111   56   57 1    
   112   56  133 1    
   113   56  134 1    
   114   57   58 1    
   115   58  135 1    
   116   58  136 1    
   117   59   60 am   BACKBONE|DICT|INTERRES
   118   59  137 1    
   119   60   61 2    
   120   60   62 1    
   121   62   63 1    
   122   62   64 1    
   123   62  138 1    
   124   63  139 1    
   125   63  140 1    
   126   63  141 1    
   127   64   65 am   BACKBONE|DICT|INTERRES
   128   64  142 1    
   129   65   66 2    
   130   65   67 1    
   131   67   68 1    
   132   67   69 1    
   133   67  143 1    
   134   68  144 1    
   135   68  145 1    
   136   68  146 1    
   137   69   70 am   BACKBONE|DICT|INTERRES
   138   69  147 1    
   139   70   71 2    
   140   70   72 1    
   141   72   73 1    
   142   72   74 1    
   143   72  148 1    
   144   73  149 1    
   145   73  150 1    
   146   73  151 1    
   147   74   75 am   BACKBONE|DICT|INTERRES
   148   74  152 1    
   149   75   76 2    
   150   75   77 1    
   151   77   78 1    
   152   77   79 1    
   153   77  153 1    
   154   78  154 1    
   155   78  155 1    
   156   78  156 1    
   157   79   80 am   BACKBONE|DICT|INTERRES
   158   79  157 1    
   159   80   81 2    
@<TRIPOS>SUBSTRUCTURE
     1 UNK         1 GROUP             0       ****    0 ROOT    
