@<TRIPOS>MOLECULE
3R207
157   159    1
SMALL
USER_CHARGES


@<TRIPOS>ATOM
      1 CA        -48.0375  -31.2350    3.1639 C.3       0 UNK        -0.1975 
      2 C         -48.9627  -30.4394    4.0731 C.2       0 UNK         0.4852 
      3 O         -49.9225  -29.8388    3.5893 O.2       0 UNK        -0.5216 
      4 N         -48.6812  -30.4408    5.3831 N.am      1 UNK        -0.4461 
      5 CA        -49.4343  -29.7277    6.4233 C.3       1 UNK         0.0864 
      6 C6        -48.9800  -30.1570    7.8410 C.3       14 UNK        -0.0898 
      7 S7        -49.4228  -31.9009    8.1675 S.3       14 UNK        -0.2598 
      8 C8        -50.5294  -31.7957    9.6143 C.3       14 UNK         0.0286 
      9 C9        -51.7138  -30.8670    9.3849 C.ar      14 UNK        -0.0844 
     10 C10       -51.7167  -29.5944    9.9617 C.ar      14 UNK        -0.0881 
     11 C11       -52.7716  -28.7105    9.7300 C.ar      14 UNK        -0.0643 
     12 C12       -53.8470  -29.1156    8.9378 C.ar      14 UNK        -0.0930 
     13 C13       -53.8800  -30.4032    8.3926 C.ar      14 UNK        -0.0827 
     14 C14       -52.8048  -31.2725    8.6086 C.ar      14 UNK        -0.1249 
     15 C15       -55.0859  -30.8472    7.5767 C.3       14 UNK         0.0141 
     16 S16       -56.2361  -31.9031    8.5250 S.3       14 UNK        -0.2313 
     17 C17       -56.5688  -30.9209   10.0295 C.3       14 UNK        -0.0915 
     18 CA        -57.5459  -29.7228    9.8049 C.3       13 UNK         0.0968 
     19 C         -59.0401  -30.0861   10.0677 C.2       13 UNK         0.5732 
     20 N         -59.8488  -29.1936   10.6270 N.am      13 UNK        -0.7310 
     21 O         -59.4875  -31.1802    9.7321 O.2       13 UNK        -0.5035 
     22 N         -57.0833  -28.4838   10.4606 N.am      13 UNK        -0.4233 
     23 C         -56.8306  -28.3394   11.7676 C.2       13 UNK         0.4989 
     24 O         -56.9777  -29.2308   12.6083 O.2       13 UNK        -0.4996 
     25 CA        -56.3329  -26.9615   12.2199 C.3       12 UNK         0.0216 
     26 CB        -57.5069  -26.0255   12.5563 C.3       12 UNK        -0.1964 
     27 N         -55.4985  -27.1583   13.4005 N.am      12 UNK        -0.4276 
     28 C         -54.4372  -26.4256   13.7484 C.2       12 UNK         0.5020 
     29 O         -54.0585  -25.4227   13.1392 O.2       12 UNK        -0.5489 
     30 CA        -53.6467  -26.9421   14.9571 C.3       11 UNK         0.0294 
     31 CB        -52.7456  -28.1187   14.5412 C.3       11 UNK        -0.2019 
     32 N         -52.7969  -25.8920   15.5147 N.am      11 UNK        -0.4493 
     33 C         -52.9099  -25.3648   16.7394 C.2       11 UNK         0.4932 
     34 O         -53.8141  -25.6406   17.5305 O.2       11 UNK        -0.5029 
     35 CA        -51.7760  -24.4051   17.1525 C.3       10 UNK         0.0280 
     36 CB        -51.8770  -23.9180   18.6136 C.3       10 UNK        -0.1976 
     37 N         -50.4632  -25.0008   16.8721 N.am      10 UNK        -0.4242 
     38 C         -49.9536  -26.1330   17.3837 C.2       10 UNK         0.5072 
     39 O         -50.4535  -26.7584   18.3198 O.2       10 UNK        -0.5224 
     40 CA        -48.6895  -26.6995   16.7125 C.3       9 UNK         0.0343 
     41 CB        -49.0714  -27.8390   15.7535 C.3       9 UNK        -0.2003 
     42 N         -47.9154  -25.6982   15.9754 N.am      9 UNK        -0.4272 
     43 C         -47.1294  -24.7783   16.5515 C.2       9 UNK         0.4988 
     44 O         -46.9522  -24.6917   17.7673 O.2       9 UNK        -0.5108 
     45 CA        -46.4271  -23.7805   15.6154 C.3       8 UNK         0.0248 
     46 CB        -45.1839  -24.4202   14.9768 C.3       8 UNK        -0.2001 
     47 N         -47.3091  -23.2517   14.5705 N.am      8 UNK        -0.4140 
     48 C         -48.3846  -22.4843   14.8057 C.2       8 UNK         0.5028 
     49 O         -48.7357  -22.1190   15.9278 O.2       8 UNK        -0.5428 
     50 CA        -49.2298  -22.0684   13.5910 C.3       7 UNK         0.0264 
     51 CB        -48.5769  -20.8907   12.8498 C.3       7 UNK        -0.1988 
     52 N         -49.4693  -23.1673   12.6548 N.am      7 UNK        -0.4454 
     53 C         -50.1550  -24.2837   12.9421 C.2       7 UNK         0.5027 
     54 O         -50.6917  -24.5030   14.0279 O.2       7 UNK        -0.5083 
     55 CA        -50.2163  -25.3614   11.8451 C.3       6 UNK         0.0844 
     56 C56       -51.2852  -24.9904   10.7893 C.3       14 UNK        -0.0967 
     57 S57       -51.4888  -26.2865    9.5309 S.3       14 UNK        -0.2604 
     58 C58       -52.7379  -27.3236   10.3442 C.3       14 UNK         0.0134 
     59 N         -48.8931  -25.6290   11.2692 N.am      6 UNK        -0.4116 
     60 C         -47.8267  -26.0501   11.9672 C.2       5 UNK         0.5034 
     61 O         -47.8479  -26.3166   13.1682 O.2       5 UNK        -0.5045 
     62 CA        -46.4915  -26.1240   11.2155 C.3       5 UNK         0.0224 
     63 CB        -46.3669  -27.4414   10.4317 C.3       5 UNK        -0.1978 
     64 N         -46.3190  -24.9770   10.3219 N.am      5 UNK        -0.4737 
     65 C         -46.0913  -23.7256   10.7482 C.2       4 UNK         0.5027 
     66 O         -45.9521  -23.4233   11.9330 O.2       4 UNK        -0.5211 
     67 CA        -46.0589  -22.6187    9.6805 C.3       4 UNK         0.0297 
     68 CB        -44.6651  -22.5270    9.0400 C.3       4 UNK        -0.1993 
     69 N         -47.0689  -22.8081    8.6368 N.am      4 UNK        -0.4486 
     70 C         -48.3921  -22.7766    8.8489 C.2       3 UNK         0.4961 
     71 O         -48.9036  -22.5168    9.9373 O.2       3 UNK        -0.5105 
     72 CA        -49.3008  -23.1394    7.6612 C.3       3 UNK         0.0299 
     73 CB        -49.6864  -21.8750    6.8778 C.3       3 UNK        -0.1972 
     74 N         -48.7345  -24.1338    6.7413 N.am      3 UNK        -0.4305 
     75 C         -48.3328  -25.3659    7.0851 C.2       2 UNK         0.5006 
     76 O         -48.2988  -25.7806    8.2454 O.2       2 UNK        -0.5106 
     77 CA        -47.8162  -26.2563    5.9424 C.3       2 UNK         0.0296 
     78 CB        -46.2952  -26.0886    5.7910 C.3       2 UNK        -0.2002 
     79 N         -48.1197  -27.6756    6.1450 N.am      2 UNK        -0.4032 
     80 C         -49.3524  -28.1985    6.2362 C.2       1 UNK         0.5000 
     81 O         -50.3893  -27.5418    6.1247 O.2       1 UNK        -0.5238 
     82 H82       -47.5833  -30.5774    2.4231 H         1 UNK         0.0889 
     83 H83       -48.6006  -32.0048    2.6368 H         1 UNK         0.0889 
     84 H84       -47.2371  -31.7224    3.7205 H         1 UNK         0.0889 
     85 H85       -47.8966  -30.9837    5.7146 H         1 UNK         0.3028 
     86 H86       -50.4873  -29.9980    6.3118 H         1 UNK         0.0864 
     87 H87       -47.8996  -30.0498    7.9518 H         1 UNK         0.0720 
     88 H88       -49.4152  -29.5107    8.6025 H         1 UNK         0.0720 
     89 H89       -49.9493  -31.4732   10.4804 H         1 UNK         0.0814 
     90 H90       -50.8952  -32.7957    9.8516 H         1 UNK         0.0814 
     91 H91       -50.8828  -29.2746   10.5718 H         1 UNK         0.1469 
     92 H92       -54.6680  -28.4355    8.7606 H         1 UNK         0.1381 
     93 H93       -52.8181  -32.2636    8.1758 H         1 UNK         0.1206 
     94 H94       -55.6285  -29.9813    7.1949 H         1 UNK         0.0813 
     95 H95       -54.7463  -31.3986    6.6987 H         1 UNK         0.0813 
     96 H96       -56.9520  -31.5953   10.7974 H         1 UNK         0.0638 
     97 H97       -55.6125  -30.5840   10.4276 H         1 UNK         0.0638 
     98 H98       -57.5240  -29.4706    8.7448 H         1 UNK         0.0568 
     99 H99       -60.8150  -29.4347   10.7819 H         1 UNK         0.3450 
    100 H100      -59.5042  -28.2880   10.8999 H         1 UNK         0.3450 
    101 H101      -56.9801  -27.6847    9.8520 H         1 UNK         0.2987 
    102 H102      -55.7366  -26.5219   11.4185 H         1 UNK         0.0766 
    103 H103      -57.1509  -25.0492   12.8861 H         1 UNK         0.0798 
    104 H104      -58.1360  -26.4360   13.3473 H         1 UNK         0.0798 
    105 H105      -58.1408  -25.8601   11.6844 H         1 UNK         0.0798 
    106 H106      -55.7140  -28.0077   13.9099 H         1 UNK         0.3198 
    107 H107      -54.3602  -27.2931   15.7060 H         1 UNK         0.0843 
    108 H108      -52.0063  -27.8187   13.7980 H         1 UNK         0.0831 
    109 H109      -53.3279  -28.9350   14.1118 H         1 UNK         0.0831 
    110 H110      -52.2087  -28.5240   15.3992 H         1 UNK         0.0831 
    111 H111      -52.0831  -25.5141   14.8956 H         1 UNK         0.3133 
    112 H112      -51.8584  -23.5297   16.5064 H         1 UNK         0.0566 
    113 H113      -51.0589  -23.2420   18.8618 H         1 UNK         0.0814 
    114 H114      -52.8085  -23.3750   18.7772 H         1 UNK         0.0814 
    115 H115      -51.8566  -24.7451   19.3236 H         1 UNK         0.0814 
    116 H116      -49.9920  -24.6112   16.0642 H         1 UNK         0.3091 
    117 H117      -48.0567  -27.1151   17.4995 H         1 UNK         0.0702 
    118 H118      -49.6262  -28.6213   16.2732 H         1 UNK         0.0785 
    119 H119      -49.6979  -27.4807   14.9356 H         1 UNK         0.0785 
    120 H120      -48.1869  -28.3033   15.3170 H         1 UNK         0.0785 
    121 H121      -47.9616  -25.7449   14.9594 H         1 UNK         0.2998 
    122 H122      -46.0957  -22.9361   16.2235 H         1 UNK         0.0697 
    123 H123      -45.4483  -25.2513   14.3224 H         1 UNK         0.0825 
    124 H124      -44.5071  -24.8070   15.7398 H         1 UNK         0.0825 
    125 H125      -44.6244  -23.6948   14.3858 H         1 UNK         0.0825 
    126 H126      -47.0529  -23.4590   13.6093 H         1 UNK         0.3029 
    127 H127      -50.2016  -21.7384   13.9645 H         1 UNK         0.0897 
    128 H128      -49.2129  -20.5311   12.0406 H         1 UNK         0.0792 
    129 H129      -47.6145  -21.1682   12.4182 H         1 UNK         0.0792 
    130 H130      -48.4040  -20.0511   13.5244 H         1 UNK         0.0792 
    131 H131      -49.1088  -23.0446   11.7099 H         1 UNK         0.3086 
    132 H132      -50.5343  -26.2856   12.3318 H         1 UNK         0.0583 
    133 H133      -52.2514  -24.8067   11.2639 H         1 UNK         0.1020 
    134 H134      -51.0248  -24.0614   10.2820 H         1 UNK         0.1020 
    135 H135      -52.5153  -27.4121   11.4077 H         1 UNK         0.0694 
    136 H136      -53.7090  -26.8347   10.2675 H         1 UNK         0.0694 
    137 H137      -48.7907  -25.4818   10.2706 H         1 UNK         0.2989 
    138 H138      -45.6908  -26.0976   11.9580 H         1 UNK         0.1055 
    139 H139      -46.4062  -28.2964   11.1079 H         1 UNK         0.0806 
    140 H140      -45.4196  -27.4968    9.8953 H         1 UNK         0.0806 
    141 H141      -47.1711  -27.5695    9.7072 H         1 UNK         0.0806 
    142 H142      -46.5291  -25.1309    9.3438 H         1 UNK         0.3061 
    143 H143      -46.2686  -21.6708   10.1808 H         1 UNK         0.0734 
    144 H144      -44.6030  -21.6928    8.3409 H         1 UNK         0.0832 
    145 H145      -43.8985  -22.3679    9.7998 H         1 UNK         0.0832 
    146 H146      -44.4046  -23.4389    8.5011 H         1 UNK         0.0832 
    147 H147      -46.7386  -23.0257    7.7082 H         1 UNK         0.3156 
    148 H148      -50.2141  -23.5726    8.0728 H         1 UNK         0.0589 
    149 H149      -48.8203  -21.4133    6.4019 H         1 UNK         0.0808 
    150 H150      -50.4199  -22.0955    6.1021 H         1 UNK         0.0808 
    151 H151      -50.1318  -21.1286    7.5374 H         1 UNK         0.0808 
    152 H152      -48.7039  -23.8733    5.7658 H         1 UNK         0.3098 
    153 H153      -48.2990  -25.9477    5.0129 H         1 UNK         0.0720 
    154 H154      -45.9121  -26.6729    4.9540 H         1 UNK         0.0791 
    155 H155      -45.7636  -26.4021    6.6908 H         1 UNK         0.0791 
    156 H156      -46.0305  -25.0473    5.6024 H         1 UNK         0.0791 
    157 H157      -47.3296  -28.2949    6.2442 H         1 UNK         0.3028 
@<TRIPOS>BOND
     1    1    2 1    
     2    1   82 1    
     3    1   83 1    
     4    1   84 1    
     5    2    3 2    
     6    2    4 am   BACKBONE|DICT|INTERRES
     7    4    5 1    
     8    4   85 1    
     9    5    6 1    
    10    5   80 1    
    11    5   86 1    
    12    6    7 1    
    13    6   87 1    
    14    6   88 1    
    15    7    8 1    
    16    8    9 1    
    17    8   89 1    
    18    8   90 1    
    19    9   10 ar   
    20    9   14 ar   
    21   10   11 ar   
    22   10   91 1    
    23   11   12 ar   
    24   11   58 1    
    25   12   13 ar   
    26   12   92 1    
    27   13   14 ar   
    28   13   15 1    
    29   14   93 1    
    30   15   16 1    
    31   15   94 1    
    32   15   95 1    
    33   16   17 1    
    34   17   18 1    
    35   17   96 1    
    36   17   97 1    
    37   18   19 1    
    38   18   22 1    
    39   18   98 1    
    40   19   20 am   BACKBONE|DICT|INTERRES
    41   19   21 2    
    42   20   99 1    
    43   20  100 1    
    44   22   23 am   BACKBONE|DICT|INTERRES
    45   22  101 1    
    46   23   24 2    
    47   23   25 1    
    48   25   26 1    
    49   25   27 1    
    50   25  102 1    
    51   26  103 1    
    52   26  104 1    
    53   26  105 1    
    54   27   28 am   BACKBONE|DICT|INTERRES
    55   27  106 1    
    56   28   29 2    
    57   28   30 1    
    58   30   31 1    
    59   30   32 1    
    60   30  107 1    
    61   31  108 1    
    62   31  109 1    
    63   31  110 1    
    64   32   33 am   BACKBONE|DICT|INTERRES
    65   32  111 1    
    66   33   34 2    
    67   33   35 1    
    68   35   36 1    
    69   35   37 1    
    70   35  112 1    
    71   36  113 1    
    72   36  114 1    
    73   36  115 1    
    74   37   38 am   BACKBONE|DICT|INTERRES
    75   37  116 1    
    76   38   39 2    
    77   38   40 1    
    78   40   41 1    
    79   40   42 1    
    80   40  117 1    
    81   41  118 1    
    82   41  119 1    
    83   41  120 1    
    84   42   43 am   BACKBONE|DICT|INTERRES
    85   42  121 1    
    86   43   44 2    
    87   43   45 1    
    88   45   46 1    
    89   45   47 1    
    90   45  122 1    
    91   46  123 1    
    92   46  124 1    
    93   46  125 1    
    94   47   48 am   BACKBONE|DICT|INTERRES
    95   47  126 1    
    96   48   49 2    
    97   48   50 1    
    98   50   51 1    
    99   50   52 1    
   100   50  127 1    
   101   51  128 1    
   102   51  129 1    
   103   51  130 1    
   104   52   53 am   BACKBONE|DICT|INTERRES
   105   52  131 1    
   106   53   54 2    
   107   53   55 1    
   108   55   56 1    
   109   55   59 1    
   110   55  132 1    
   111   56   57 1    
   112   56  133 1    
   113   56  134 1    
   114   57   58 1    
   115   58  135 1    
   116   58  136 1    
   117   59   60 am   BACKBONE|DICT|INTERRES
   118   59  137 1    
   119   60   61 2    
   120   60   62 1    
   121   62   63 1    
   122   62   64 1    
   123   62  138 1    
   124   63  139 1    
   125   63  140 1    
   126   63  141 1    
   127   64   65 am   BACKBONE|DICT|INTERRES
   128   64  142 1    
   129   65   66 2    
   130   65   67 1    
   131   67   68 1    
   132   67   69 1    
   133   67  143 1    
   134   68  144 1    
   135   68  145 1    
   136   68  146 1    
   137   69   70 am   BACKBONE|DICT|INTERRES
   138   69  147 1    
   139   70   71 2    
   140   70   72 1    
   141   72   73 1    
   142   72   74 1    
   143   72  148 1    
   144   73  149 1    
   145   73  150 1    
   146   73  151 1    
   147   74   75 am   BACKBONE|DICT|INTERRES
   148   74  152 1    
   149   75   76 2    
   150   75   77 1    
   151   77   78 1    
   152   77   79 1    
   153   77  153 1    
   154   78  154 1    
   155   78  155 1    
   156   78  156 1    
   157   79   80 am   BACKBONE|DICT|INTERRES
   158   79  157 1    
   159   80   81 2    
@<TRIPOS>SUBSTRUCTURE
     1 UNK         1 GROUP             0       ****    0 ROOT    
