@<TRIPOS>MOLECULE
3R207
157   159    1
SMALL
USER_CHARGES


@<TRIPOS>ATOM
      1 CA        -48.3737  -27.0979    3.7029 C.3       0 UNK        -0.1975 
      2 C         -47.6353  -27.7314    4.8734 C.2       0 UNK         0.4852 
      3 O         -46.5025  -28.1820    4.7009 O.2       0 UNK        -0.5216 
      4 N         -48.2830  -27.7679    6.0473 N.am      1 UNK        -0.4461 
      5 CA        -47.7754  -28.2404    7.3437 C.3       1 UNK         0.0864 
      6 C6        -47.1739  -29.6718    7.2985 C.3       14 UNK        -0.0898 
      7 S7        -47.4049  -30.5724    8.8695 S.3       14 UNK        -0.2598 
      8 C8        -48.7752  -31.6976    8.4548 C.3       14 UNK         0.0286 
      9 C9        -50.1236  -30.9914    8.4849 C.ar      14 UNK        -0.0844 
     10 C10       -50.5816  -30.2851    7.3675 C.ar      14 UNK        -0.0881 
     11 C11       -51.8263  -29.6504    7.3879 C.ar      14 UNK        -0.0643 
     12 C12       -52.6305  -29.7563    8.5274 C.ar      14 UNK        -0.0930 
     13 C13       -52.1913  -30.4714    9.6446 C.ar      14 UNK        -0.0827 
     14 C14       -50.9315  -31.0755    9.6232 C.ar      14 UNK        -0.1249 
     15 C15       -53.1043  -30.6394   10.8485 C.3       14 UNK         0.0141 
     16 S16       -52.8312  -29.3574   12.1082 S.3       14 UNK        -0.2313 
     17 C17       -54.2177  -29.7350   13.2322 C.3       14 UNK        -0.0915 
     18 CA        -55.3386  -28.6647   13.1456 C.3       13 UNK         0.0968 
     19 C         -56.6824  -29.1726   13.7533 C.2       13 UNK         0.5732 
     20 N         -57.3509  -28.4417   14.6388 N.am      13 UNK        -0.7310 
     21 O         -57.1419  -30.2565   13.4017 O.2       13 UNK        -0.5035 
     22 N         -54.8764  -27.3828   13.6949 N.am      13 UNK        -0.4233 
     23 C         -55.3498  -26.1787   13.3568 C.2       13 UNK         0.4989 
     24 O         -56.1781  -25.9835   12.4658 O.2       13 UNK        -0.4996 
     25 CA        -54.8299  -25.0127   14.2170 C.3       12 UNK         0.0216 
     26 CB        -55.5291  -23.6694   13.9192 C.3       12 UNK        -0.1964 
     27 N         -54.8766  -25.3354   15.6504 N.am      12 UNK        -0.4276 
     28 C         -55.9648  -25.6112   16.3893 C.2       12 UNK         0.5020 
     29 O         -57.1077  -25.6194   15.9310 O.2       12 UNK        -0.5489 
     30 CA        -55.7653  -25.9973   17.8720 C.3       11 UNK         0.0294 
     31 CB        -56.4208  -27.3577   18.1718 C.3       11 UNK        -0.2019 
     32 N         -54.3626  -26.0597   18.2877 N.am      11 UNK        -0.4493 
     33 C         -53.5622  -25.0088   18.5084 C.2       11 UNK         0.4932 
     34 O         -53.9501  -23.8410   18.4932 O.2       11 UNK        -0.5029 
     35 CA        -52.0676  -25.3050   18.7436 C.3       10 UNK         0.0280 
     36 CB        -51.7199  -25.1436   20.2326 C.3       10 UNK        -0.1976 
     37 N         -51.6114  -26.6261   18.2841 N.am      10 UNK        -0.4242 
     38 C         -51.6700  -27.0880   17.0268 C.2       10 UNK         0.5072 
     39 O         -52.2027  -26.4844   16.0887 O.2       10 UNK        -0.5224 
     40 CA        -51.0929  -28.4888   16.7927 C.3       9 UNK         0.0343 
     41 CB        -52.1668  -29.5603   17.0436 C.3       9 UNK        -0.2003 
     42 N         -50.6555  -28.5591   15.4041 N.am      9 UNK        -0.4272 
     43 C         -49.4224  -28.8634   14.9835 C.2       9 UNK         0.4988 
     44 O         -48.5387  -29.3166   15.7119 O.2       9 UNK        -0.5108 
     45 CA        -49.1074  -28.5936   13.4990 C.3       8 UNK         0.0248 
     46 CB        -49.1064  -29.9023   12.6919 C.3       8 UNK        -0.2001 
     47 N         -50.0287  -27.6369   12.8740 N.am      8 UNK        -0.4140 
     48 C         -50.0743  -26.3257   13.1521 C.2       8 UNK         0.5028 
     49 O         -49.2905  -25.7591   13.9145 O.2       8 UNK        -0.5428 
     50 CA        -51.1581  -25.5270   12.4189 C.3       7 UNK         0.0264 
     51 CB        -51.2040  -24.0426   12.8285 C.3       7 UNK        -0.1988 
     52 N         -50.9112  -25.6278   10.9845 N.am      7 UNK        -0.4454 
     53 C         -51.8220  -25.9658   10.0632 C.2       7 UNK         0.5027 
     54 O         -53.0083  -26.1769   10.3172 O.2       7 UNK        -0.5083 
     55 CA        -51.2883  -26.0791    8.6181 C.3       6 UNK         0.0844 
     56 C56       -52.3790  -26.4254    7.5667 C.3       14 UNK        -0.0967 
     57 S57       -51.6346  -27.1907    6.0877 S.3       14 UNK        -0.2604 
     58 C58       -52.3147  -28.8813    6.1665 C.3       14 UNK         0.0134 
     59 N         -50.4941  -24.8960    8.2565 N.am      6 UNK        -0.4116 
     60 C         -50.9448  -23.6328    8.1803 C.2       5 UNK         0.5034 
     61 O         -52.1193  -23.3053    8.3517 O.2       5 UNK        -0.5045 
     62 CA        -49.9146  -22.5344    7.8836 C.3       5 UNK         0.0224 
     63 CB        -49.6167  -21.7300    9.1607 C.3       5 UNK        -0.1978 
     64 N         -48.6542  -23.0676    7.3665 N.am      5 UNK        -0.4737 
     65 C         -48.3345  -23.1679    6.0684 C.2       4 UNK         0.5027 
     66 O         -49.1161  -22.8924    5.1578 O.2       4 UNK        -0.5211 
     67 CA        -46.9120  -23.6628    5.7231 C.3       4 UNK         0.0297 
     68 CB        -46.3134  -22.9364    4.5007 C.3       4 UNK        -0.1993 
     69 N         -45.9889  -23.6389    6.8668 N.am      4 UNK        -0.4486 
     70 C         -45.5803  -22.5682    7.5704 C.2       3 UNK         0.4961 
     71 O         -45.7949  -21.4055    7.2258 O.2       3 UNK        -0.5105 
     72 CA        -44.8491  -22.8301    8.9073 C.3       3 UNK         0.0299 
     73 CB        -45.2379  -21.7951    9.9850 C.3       3 UNK        -0.1972 
     74 N         -45.0077  -24.1940    9.4351 N.am      3 UNK        -0.4305 
     75 C         -46.1491  -24.8197    9.7609 C.2       2 UNK         0.5006 
     76 O         -47.2748  -24.3200    9.6789 O.2       2 UNK        -0.5106 
     77 CA        -46.0088  -26.2950   10.1703 C.3       2 UNK         0.0296 
     78 CB        -46.3867  -26.4862   11.6460 C.3       2 UNK        -0.2002 
     79 N         -46.8287  -27.1813    9.3377 N.am      2 UNK        -0.4032 
     80 C         -46.8091  -27.2302    7.9969 C.2       1 UNK         0.5000 
     81 O         -46.0716  -26.5253    7.3025 O.2       1 UNK        -0.5238 
     82 H82       -48.5566  -27.8417    2.9279 H         1 UNK         0.0889 
     83 H83       -47.7744  -26.2962    3.2720 H         1 UNK         0.0889 
     84 H84       -49.3331  -26.6762    4.0024 H         1 UNK         0.0889 
     85 H85       -49.2237  -27.3954    6.0775 H         1 UNK         0.3028 
     86 H86       -48.6668  -28.2687    7.9716 H         1 UNK         0.0864 
     87 H87       -46.1087  -29.6469    7.0595 H         1 UNK         0.0720 
     88 H88       -47.6284  -30.2527    6.4955 H         1 UNK         0.0720 
     89 H89       -48.7730  -32.5204    9.1713 H         1 UNK         0.0814 
     90 H90       -48.6066  -32.1548    7.4787 H         1 UNK         0.0814 
     91 H91       -49.9709  -30.2264    6.4777 H         1 UNK         0.1469 
     92 H92       -53.6084  -29.2952    8.5427 H         1 UNK         0.1381 
     93 H93       -50.5909  -31.6329   10.4851 H         1 UNK         0.1206 
     94 H94       -52.9495  -31.6219   11.2972 H         1 UNK         0.0813 
     95 H95       -54.1469  -30.6112   10.5272 H         1 UNK         0.0813 
     96 H96       -53.8326  -29.8082   14.2494 H         1 UNK         0.0638 
     97 H97       -54.5996  -30.7286   12.9911 H         1 UNK         0.0638 
     98 H98       -55.5578  -28.5108   12.0872 H         1 UNK         0.0568 
     99 H99       -57.0463  -27.5140   14.9015 H         1 UNK         0.3450 
    100 H100      -58.2187  -28.8006   15.0031 H         1 UNK         0.3450 
    101 H101      -54.2174  -27.4406   14.4564 H         1 UNK         0.2987 
    102 H102      -53.7762  -24.8917   13.9683 H         1 UNK         0.0766 
    103 H103      -55.3886  -23.3816   12.8765 H         1 UNK         0.0798 
    104 H104      -55.1228  -22.8668   14.5345 H         1 UNK         0.0798 
    105 H105      -56.6034  -23.7198   14.0994 H         1 UNK         0.0798 
    106 H106      -53.9692  -25.4438   16.0932 H         1 UNK         0.3198 
    107 H107      -56.2684  -25.2347   18.4703 H         1 UNK         0.0843 
    108 H108      -55.9773  -28.1598   17.5802 H         1 UNK         0.0831 
    109 H109      -57.4876  -27.3393   17.9444 H         1 UNK         0.0831 
    110 H110      -56.3247  -27.6225   19.2249 H         1 UNK         0.0831 
    111 H111      -53.9477  -26.9787   18.3319 H         1 UNK         0.3133 
    112 H112      -51.5051  -24.5577   18.1802 H         1 UNK         0.0566 
    113 H113      -50.6476  -25.2399   20.4043 H         1 UNK         0.0814 
    114 H114      -52.2285  -25.8862   20.8489 H         1 UNK         0.0814 
    115 H115      -52.0154  -24.1594   20.5994 H         1 UNK         0.0814 
    116 H116      -51.1786  -27.2110   18.9852 H         1 UNK         0.3091 
    117 H117      -50.2520  -28.6460   17.4716 H         1 UNK         0.0702 
    118 H118      -51.7962  -30.5557   16.7974 H         1 UNK         0.0785 
    119 H119      -53.0652  -29.3826   16.4522 H         1 UNK         0.0785 
    120 H120      -52.4655  -29.5774   18.0924 H         1 UNK         0.0785 
    121 H121      -51.2860  -28.1260   14.7445 H         1 UNK         0.2998 
    122 H122      -48.1030  -28.1688   13.4578 H         1 UNK         0.0697 
    123 H123      -50.0747  -30.4019   12.7292 H         1 UNK         0.0825 
    124 H124      -48.3672  -30.6010   13.0857 H         1 UNK         0.0825 
    125 H125      -48.8582  -29.7272   11.6449 H         1 UNK         0.0825 
    126 H126      -50.7149  -28.0227   12.2379 H         1 UNK         0.3029 
    127 H127      -52.1134  -25.9884   12.6769 H         1 UNK         0.0897 
    128 H128      -52.0138  -23.5185   12.3206 H         1 UNK         0.0792 
    129 H129      -50.2717  -23.5290   12.5902 H         1 UNK         0.0792 
    130 H130      -51.3710  -23.9390   13.9017 H         1 UNK         0.0792 
    131 H131      -49.9577  -25.4632   10.6909 H         1 UNK         0.3086 
    132 H132      -50.5909  -26.9172    8.6562 H         1 UNK         0.0583 
    133 H133      -53.1290  -27.1029    7.9727 H         1 UNK         0.1020 
    134 H134      -52.9379  -25.5391    7.2650 H         1 UNK         0.1020 
    135 H135      -53.4048  -28.8331    6.1540 H         1 UNK         0.0694 
    136 H136      -52.0269  -29.4165    5.2604 H         1 UNK         0.0694 
    137 H137      -49.5069  -25.0404    8.1075 H         1 UNK         0.2989 
    138 H138      -50.3586  -21.8584    7.1491 H         1 UNK         0.1055 
    139 H139      -49.1978  -22.3586    9.9478 H         1 UNK         0.0806 
    140 H140      -50.5250  -21.2741    9.5573 H         1 UNK         0.0806 
    141 H141      -48.9089  -20.9241    8.9649 H         1 UNK         0.0806 
    142 H142      -47.9664  -23.3424    8.0623 H         1 UNK         0.3061 
    143 H143      -47.0221  -24.7137    5.4540 H         1 UNK         0.0734 
    144 H144      -46.2517  -21.8592    4.6571 H         1 UNK         0.0832 
    145 H145      -45.3122  -23.3017    4.2728 H         1 UNK         0.0832 
    146 H146      -46.9253  -23.0981    3.6124 H         1 UNK         0.0832 
    147 H147      -45.7630  -24.5625    7.2284 H         1 UNK         0.3156 
    148 H148      -43.7858  -22.7073    8.6970 H         1 UNK         0.0589 
    149 H149      -44.7107  -21.9787   10.9212 H         1 UNK         0.0808 
    150 H150      -44.9854  -20.7823    9.6684 H         1 UNK         0.0808 
    151 H151      -46.3082  -21.8117   10.1940 H         1 UNK         0.0808 
    152 H152      -44.1486  -24.7226    9.5071 H         1 UNK         0.3098 
    153 H153      -44.9694  -26.6039   10.0418 H         1 UNK         0.0720 
    154 H154      -45.7718  -25.8583   12.2922 H         1 UNK         0.0791 
    155 H155      -46.2399  -27.5184   11.9642 H         1 UNK         0.0791 
    156 H156      -47.4267  -26.2182   11.8300 H         1 UNK         0.0791 
    157 H157      -47.4342  -27.8205    9.8313 H         1 UNK         0.3028 
@<TRIPOS>BOND
     1    1    2 1    
     2    1   82 1    
     3    1   83 1    
     4    1   84 1    
     5    2    3 2    
     6    2    4 am   BACKBONE|DICT|INTERRES
     7    4    5 1    
     8    4   85 1    
     9    5    6 1    
    10    5   80 1    
    11    5   86 1    
    12    6    7 1    
    13    6   87 1    
    14    6   88 1    
    15    7    8 1    
    16    8    9 1    
    17    8   89 1    
    18    8   90 1    
    19    9   10 ar   
    20    9   14 ar   
    21   10   11 ar   
    22   10   91 1    
    23   11   12 ar   
    24   11   58 1    
    25   12   13 ar   
    26   12   92 1    
    27   13   14 ar   
    28   13   15 1    
    29   14   93 1    
    30   15   16 1    
    31   15   94 1    
    32   15   95 1    
    33   16   17 1    
    34   17   18 1    
    35   17   96 1    
    36   17   97 1    
    37   18   19 1    
    38   18   22 1    
    39   18   98 1    
    40   19   20 am   BACKBONE|DICT|INTERRES
    41   19   21 2    
    42   20   99 1    
    43   20  100 1    
    44   22   23 am   BACKBONE|DICT|INTERRES
    45   22  101 1    
    46   23   24 2    
    47   23   25 1    
    48   25   26 1    
    49   25   27 1    
    50   25  102 1    
    51   26  103 1    
    52   26  104 1    
    53   26  105 1    
    54   27   28 am   BACKBONE|DICT|INTERRES
    55   27  106 1    
    56   28   29 2    
    57   28   30 1    
    58   30   31 1    
    59   30   32 1    
    60   30  107 1    
    61   31  108 1    
    62   31  109 1    
    63   31  110 1    
    64   32   33 am   BACKBONE|DICT|INTERRES
    65   32  111 1    
    66   33   34 2    
    67   33   35 1    
    68   35   36 1    
    69   35   37 1    
    70   35  112 1    
    71   36  113 1    
    72   36  114 1    
    73   36  115 1    
    74   37   38 am   BACKBONE|DICT|INTERRES
    75   37  116 1    
    76   38   39 2    
    77   38   40 1    
    78   40   41 1    
    79   40   42 1    
    80   40  117 1    
    81   41  118 1    
    82   41  119 1    
    83   41  120 1    
    84   42   43 am   BACKBONE|DICT|INTERRES
    85   42  121 1    
    86   43   44 2    
    87   43   45 1    
    88   45   46 1    
    89   45   47 1    
    90   45  122 1    
    91   46  123 1    
    92   46  124 1    
    93   46  125 1    
    94   47   48 am   BACKBONE|DICT|INTERRES
    95   47  126 1    
    96   48   49 2    
    97   48   50 1    
    98   50   51 1    
    99   50   52 1    
   100   50  127 1    
   101   51  128 1    
   102   51  129 1    
   103   51  130 1    
   104   52   53 am   BACKBONE|DICT|INTERRES
   105   52  131 1    
   106   53   54 2    
   107   53   55 1    
   108   55   56 1    
   109   55   59 1    
   110   55  132 1    
   111   56   57 1    
   112   56  133 1    
   113   56  134 1    
   114   57   58 1    
   115   58  135 1    
   116   58  136 1    
   117   59   60 am   BACKBONE|DICT|INTERRES
   118   59  137 1    
   119   60   61 2    
   120   60   62 1    
   121   62   63 1    
   122   62   64 1    
   123   62  138 1    
   124   63  139 1    
   125   63  140 1    
   126   63  141 1    
   127   64   65 am   BACKBONE|DICT|INTERRES
   128   64  142 1    
   129   65   66 2    
   130   65   67 1    
   131   67   68 1    
   132   67   69 1    
   133   67  143 1    
   134   68  144 1    
   135   68  145 1    
   136   68  146 1    
   137   69   70 am   BACKBONE|DICT|INTERRES
   138   69  147 1    
   139   70   71 2    
   140   70   72 1    
   141   72   73 1    
   142   72   74 1    
   143   72  148 1    
   144   73  149 1    
   145   73  150 1    
   146   73  151 1    
   147   74   75 am   BACKBONE|DICT|INTERRES
   148   74  152 1    
   149   75   76 2    
   150   75   77 1    
   151   77   78 1    
   152   77   79 1    
   153   77  153 1    
   154   78  154 1    
   155   78  155 1    
   156   78  156 1    
   157   79   80 am   BACKBONE|DICT|INTERRES
   158   79  157 1    
   159   80   81 2    
@<TRIPOS>SUBSTRUCTURE
     1 UNK         1 GROUP             0       ****    0 ROOT    
