@<TRIPOS>MOLECULE
3R207
157   159    1
SMALL
USER_CHARGES


@<TRIPOS>ATOM
      1 CA        -45.7231  -29.6063    5.6406 C.3       0 UNK        -0.1975 
      2 C         -46.3837  -30.0528    6.9438 C.2       0 UNK         0.4852 
      3 O         -45.7293  -30.7129    7.7491 O.2       0 UNK        -0.5216 
      4 N         -47.6647  -29.7454    7.1988 N.am      1 UNK        -0.4461 
      5 CA        -48.5801  -28.9286    6.3903 C.3       1 UNK         0.0864 
      6 C6        -50.0305  -28.9932    6.9283 C.3       14 UNK        -0.0898 
      7 S7        -50.7048  -30.6921    6.8809 S.3       14 UNK        -0.2598 
      8 C8        -51.6065  -30.8078    8.4615 C.3       14 UNK         0.0286 
      9 C9        -52.7663  -29.8250    8.5106 C.ar      14 UNK        -0.0844 
     10 C10       -52.6281  -28.6164    9.1940 C.ar      14 UNK        -0.0881 
     11 C11       -53.6491  -27.6636    9.1694 C.ar      14 UNK        -0.0643 
     12 C12       -54.8380  -27.9456    8.4884 C.ar      14 UNK        -0.0930 
     13 C13       -55.0076  -29.1739    7.8399 C.ar      14 UNK        -0.0827 
     14 C14       -53.9651  -30.1068    7.8499 C.ar      14 UNK        -0.1249 
     15 C15       -56.2990  -29.4825    7.0920 C.3       14 UNK         0.0141 
     16 S16       -57.7347  -29.6860    8.1978 S.3       14 UNK        -0.2313 
     17 C17       -57.2446  -31.1113    9.2321 C.3       14 UNK        -0.0915 
     18 CA        -57.3443  -30.8064   10.7506 C.3       13 UNK         0.0968 
     19 C         -56.9385  -32.0473   11.5913 C.2       13 UNK         0.5732 
     20 N         -57.8707  -32.9561   11.8434 N.am      13 UNK        -0.7310 
     21 O         -55.7836  -32.2136   11.9804 O.2       13 UNK        -0.5035 
     22 N         -56.5895  -29.5985   11.1083 N.am      13 UNK        -0.4233 
     23 C         -56.6747  -28.9509   12.2748 C.2       13 UNK         0.4989 
     24 O         -57.4006  -29.2881   13.2141 O.2       13 UNK        -0.4996 
     25 CA        -55.8382  -27.6741   12.3823 C.3       12 UNK         0.0216 
     26 CB        -56.5222  -26.5058   11.6470 C.3       12 UNK        -0.1964 
     27 N         -55.6473  -27.3147   13.7845 N.am      12 UNK        -0.4276 
     28 C         -54.5668  -26.6958   14.2690 C.2       12 UNK         0.5020 
     29 O         -53.5943  -26.3712   13.5812 O.2       12 UNK        -0.5489 
     30 CA        -54.5638  -26.3898   15.7722 C.3       11 UNK         0.0294 
     31 CB        -54.4566  -27.6811   16.6072 C.3       11 UNK        -0.2019 
     32 N         -53.4207  -25.5269   16.0465 N.am      11 UNK        -0.4493 
     33 C         -53.2282  -24.7569   17.1225 C.2       11 UNK         0.4932 
     34 O         -54.0540  -24.6226   18.0273 O.2       11 UNK        -0.5029 
     35 CA        -51.8615  -24.0444   17.1947 C.3       10 UNK         0.0280 
     36 CB        -51.5658  -23.4159   18.5730 C.3       10 UNK        -0.1976 
     37 N         -50.7724  -24.9305   16.7625 N.am      10 UNK        -0.4242 
     38 C         -50.4096  -26.0961   17.3232 C.2       10 UNK         0.5072 
     39 O         -50.8485  -26.5202   18.3933 O.2       10 UNK        -0.5224 
     40 CA        -49.4182  -26.9669   16.5359 C.3       9 UNK         0.0343 
     41 CB        -50.1863  -27.9119   15.5966 C.3       9 UNK        -0.2003 
     42 N         -48.4459  -26.1913   15.7627 N.am      9 UNK        -0.4272 
     43 C         -47.4179  -25.5225   16.3051 C.2       9 UNK         0.4988 
     44 O         -47.1795  -25.4944   17.5133 O.2       9 UNK        -0.5108 
     45 CA        -46.4918  -24.7615   15.3415 C.3       8 UNK         0.0248 
     46 CB        -45.5243  -25.7291   14.6411 C.3       8 UNK        -0.2001 
     47 N         -47.2219  -23.9768   14.3433 N.am      8 UNK        -0.4140 
     48 C         -47.9831  -22.9096   14.6287 C.2       8 UNK         0.5028 
     49 O         -48.1205  -22.4458   15.7612 O.2       8 UNK        -0.5428 
     50 CA        -48.7355  -22.2542   13.4584 C.3       7 UNK         0.0264 
     51 CB        -47.8117  -21.3081   12.6746 C.3       7 UNK        -0.1988 
     52 N         -49.3275  -23.2268   12.5397 N.am      7 UNK        -0.4454 
     53 C         -50.2791  -24.1149   12.8653 C.2       7 UNK         0.5027 
     54 O         -50.7913  -24.2009   13.9820 O.2       7 UNK        -0.5083 
     55 CA        -50.6842  -25.1040   11.7577 C.3       6 UNK         0.0844 
     56 C56       -51.6225  -24.4131   10.7309 C.3       14 UNK        -0.0967 
     57 S57       -51.9923  -25.4496    9.2778 S.3       14 UNK        -0.2604 
     58 C58       -53.4536  -26.3391    9.8889 C.3       14 UNK         0.0134 
     59 N         -49.4973  -25.7156   11.1507 N.am      6 UNK        -0.4116 
     60 C         -48.6193  -26.4984   11.7950 C.2       5 UNK         0.5034 
     61 O         -48.7233  -26.8249   12.9757 O.2       5 UNK        -0.5045 
     62 CA        -47.3877  -26.9618   11.0030 C.3       5 UNK         0.0224 
     63 CB        -47.6885  -28.2643   10.2531 C.3       5 UNK        -0.1978 
     64 N         -46.9024  -25.9431   10.0681 N.am      5 UNK        -0.4737 
     65 C         -46.3631  -24.7807   10.4663 C.2       4 UNK         0.5027 
     66 O         -46.1894  -24.4770   11.6465 O.2       4 UNK        -0.5211 
     67 CA        -46.0153  -23.7632    9.3711 C.3       4 UNK         0.0297 
     68 CB        -44.6910  -24.1345    8.6860 C.3       4 UNK        -0.1993 
     69 N         -47.0667  -23.6362    8.3622 N.am      4 UNK        -0.4486 
     70 C         -48.3369  -23.2787    8.5843 C.2       3 UNK         0.4961 
     71 O         -48.7676  -22.9780    9.6977 O.2       3 UNK        -0.5105 
     72 CA        -49.3069  -23.2813    7.3844 C.3       3 UNK         0.0299 
     73 CB        -49.4345  -21.8691    6.7817 C.3       3 UNK        -0.1972 
     74 N         -49.0239  -24.2904    6.3471 N.am      3 UNK        -0.4305 
     75 C         -47.9618  -24.3760    5.5312 C.2       2 UNK         0.5006 
     76 O         -47.0376  -23.5609    5.5345 O.2       2 UNK        -0.5106 
     77 CA        -47.8970  -25.5897    4.5815 C.3       2 UNK         0.0296 
     78 CB        -46.4672  -25.8354    4.0512 C.3       2 UNK        -0.2002 
     79 N         -48.4383  -26.8466    5.1208 N.am      2 UNK        -0.4032 
     80 C         -48.0965  -27.4658    6.2624 C.2       1 UNK         0.5000 
     81 O         -47.4253  -26.9515    7.1634 O.2       1 UNK        -0.5238 
     82 H82       -44.8488  -30.2223    5.4311 H         1 UNK         0.0889 
     83 H83       -45.3889  -28.5722    5.7190 H         1 UNK         0.0889 
     84 H84       -46.3939  -29.6973    4.7878 H         1 UNK         0.0889 
     85 H85       -48.0611  -30.0807    8.0634 H         1 UNK         0.3028 
     86 H86       -48.5883  -29.3597    5.3874 H         1 UNK         0.0864 
     87 H87       -50.0757  -28.6052    7.9453 H         1 UNK         0.0720 
     88 H88       -50.6970  -28.3638    6.3353 H         1 UNK         0.0720 
     89 H89       -50.9160  -30.6390    9.2894 H         1 UNK         0.0814 
     90 H90       -51.9843  -31.8242    8.5814 H         1 UNK         0.0814 
     91 H91       -51.7085  -28.3947    9.7182 H         1 UNK         0.1469 
     92 H92       -55.6328  -27.2130    8.4593 H         1 UNK         0.1381 
     93 H93       -54.0748  -31.0459    7.3246 H         1 UNK         0.1206 
     94 H94       -56.5072  -28.6713    6.3930 H         1 UNK         0.0813 
     95 H95       -56.1909  -30.3834    6.4860 H         1 UNK         0.0813 
     96 H96       -57.8973  -31.9461    8.9710 H         1 UNK         0.0638 
     97 H97       -56.2339  -31.4291    8.9724 H         1 UNK         0.0638 
     98 H98       -58.3914  -30.5926   10.9749 H         1 UNK         0.0568 
     99 H99       -57.6233  -33.7760   12.3749 H         1 UNK         0.3450 
    100 H100      -58.8178  -32.8370   11.5188 H         1 UNK         0.3450 
    101 H101      -55.9629  -29.2559   10.3944 H         1 UNK         0.2987 
    102 H102      -54.8696  -27.8877   11.9285 H         1 UNK         0.0766 
    103 H103      -55.9156  -25.6012   11.6884 H         1 UNK         0.0798 
    104 H104      -57.4941  -26.2731   12.0841 H         1 UNK         0.0798 
    105 H105      -56.6886  -26.7392   10.5953 H         1 UNK         0.0798 
    106 H106      -56.3838  -27.6249   14.4064 H         1 UNK         0.3198 
    107 H107      -55.4841  -25.8568   16.0202 H         1 UNK         0.0843 
    108 H108      -55.3048  -28.3426   16.4283 H         1 UNK         0.0831 
    109 H109      -54.4401  -27.4649   17.6756 H         1 UNK         0.0831 
    110 H110      -53.5500  -28.2383   16.3676 H         1 UNK         0.0831 
    111 H111      -52.7363  -25.5206   15.2965 H         1 UNK         0.3133 
    112 H112      -51.8994  -23.2340   16.4654 H         1 UNK         0.0566 
    113 H113      -50.5917  -22.9267   18.5831 H         1 UNK         0.0814 
    114 H114      -52.3112  -22.6603   18.8233 H         1 UNK         0.0814 
    115 H115      -51.5775  -24.1583   19.3714 H         1 UNK         0.0814 
    116 H116      -50.3917  -24.7092   15.8466 H         1 UNK         0.3091 
    117 H117      -48.8701  -27.5787   17.2557 H         1 UNK         0.0702 
    118 H118      -50.8960  -28.5255   16.1531 H         1 UNK         0.0785 
    119 H119      -50.7518  -27.3607   14.8432 H         1 UNK         0.0785 
    120 H120      -49.5096  -28.5899   15.0762 H         1 UNK         0.0785 
    121 H121      -48.5472  -26.2164   14.7503 H         1 UNK         0.2998 
    122 H122      -45.8966  -24.0653   15.9363 H         1 UNK         0.0697 
    123 H123      -46.0536  -26.4426   14.0094 H         1 UNK         0.0825 
    124 H124      -44.9490  -26.3018   15.3697 H         1 UNK         0.0825 
    125 H125      -44.8114  -25.1928   14.0145 H         1 UNK         0.0825 
    126 H126      -47.1006  -24.2458   13.3704 H         1 UNK         0.3029 
    127 H127      -49.5509  -21.6636   13.8815 H         1 UNK         0.0897 
    128 H128      -48.3576  -20.7794   11.8929 H         1 UNK         0.0792 
    129 H129      -46.9902  -21.8465   12.2005 H         1 UNK         0.0792 
    130 H130      -47.3743  -20.5555   13.3320 H         1 UNK         0.0792 
    131 H131      -48.9879  -23.2137   11.5799 H         1 UNK         0.3086 
    132 H132      -51.2454  -25.9114   12.2323 H         1 UNK         0.0583 
    133 H133      -52.5595  -24.1276   11.2140 H         1 UNK         0.1020 
    134 H134      -51.1905  -23.4817   10.3632 H         1 UNK         0.1020 
    135 H135      -53.3276  -26.5378   10.9521 H         1 UNK         0.0694 
    136 H136      -54.3284  -25.6966    9.7843 H         1 UNK         0.0694 
    137 H137      -49.3146  -25.4729   10.1889 H         1 UNK         0.2989 
    138 H138      -46.5914  -27.1637   11.7226 H         1 UNK         0.1055 
    139 H139      -48.0211  -29.0446   10.9392 H         1 UNK         0.0806 
    140 H140      -46.8007  -28.6367    9.7420 H         1 UNK         0.0806 
    141 H141      -48.4731  -28.1217    9.5123 H         1 UNK         0.0806 
    142 H142      -47.0141  -26.1280    9.0752 H         1 UNK         0.3061 
    143 H143      -45.8969  -22.7884    9.8486 H         1 UNK         0.0734 
    144 H144      -44.3882  -23.3715    7.9687 H         1 UNK         0.0832 
    145 H145      -43.8866  -24.2293    9.4169 H         1 UNK         0.0832 
    146 H146      -44.7638  -25.0843    8.1539 H         1 UNK         0.0832 
    147 H147      -46.8062  -23.8081    7.3952 H         1 UNK         0.3156 
    148 H148      -50.2854  -23.5459    7.7851 H         1 UNK         0.0589 
    149 H149      -48.4878  -21.5072    6.3797 H         1 UNK         0.0808 
    150 H150      -50.1718  -21.8451    5.9794 H         1 UNK         0.0808 
    151 H151      -49.7567  -21.1531    7.5391 H         1 UNK         0.0808 
    152 H152      -49.7045  -25.0347    6.2848 H         1 UNK         0.3098 
    153 H153      -48.5237  -25.3292    3.7273 H         1 UNK         0.0720 
    154 H154      -46.4393  -26.6718    3.3528 H         1 UNK         0.0791 
    155 H155      -45.7706  -26.0524    4.8621 H         1 UNK         0.0791 
    156 H156      -46.0869  -24.9623    3.5192 H         1 UNK         0.0791 
    157 H157      -49.0456  -27.3455    4.4845 H         1 UNK         0.3028 
@<TRIPOS>BOND
     1    1    2 1    
     2    1   82 1    
     3    1   83 1    
     4    1   84 1    
     5    2    3 2    
     6    2    4 am   BACKBONE|DICT|INTERRES
     7    4    5 1    
     8    4   85 1    
     9    5    6 1    
    10    5   80 1    
    11    5   86 1    
    12    6    7 1    
    13    6   87 1    
    14    6   88 1    
    15    7    8 1    
    16    8    9 1    
    17    8   89 1    
    18    8   90 1    
    19    9   10 ar   
    20    9   14 ar   
    21   10   11 ar   
    22   10   91 1    
    23   11   12 ar   
    24   11   58 1    
    25   12   13 ar   
    26   12   92 1    
    27   13   14 ar   
    28   13   15 1    
    29   14   93 1    
    30   15   16 1    
    31   15   94 1    
    32   15   95 1    
    33   16   17 1    
    34   17   18 1    
    35   17   96 1    
    36   17   97 1    
    37   18   19 1    
    38   18   22 1    
    39   18   98 1    
    40   19   20 am   BACKBONE|DICT|INTERRES
    41   19   21 2    
    42   20   99 1    
    43   20  100 1    
    44   22   23 am   BACKBONE|DICT|INTERRES
    45   22  101 1    
    46   23   24 2    
    47   23   25 1    
    48   25   26 1    
    49   25   27 1    
    50   25  102 1    
    51   26  103 1    
    52   26  104 1    
    53   26  105 1    
    54   27   28 am   BACKBONE|DICT|INTERRES
    55   27  106 1    
    56   28   29 2    
    57   28   30 1    
    58   30   31 1    
    59   30   32 1    
    60   30  107 1    
    61   31  108 1    
    62   31  109 1    
    63   31  110 1    
    64   32   33 am   BACKBONE|DICT|INTERRES
    65   32  111 1    
    66   33   34 2    
    67   33   35 1    
    68   35   36 1    
    69   35   37 1    
    70   35  112 1    
    71   36  113 1    
    72   36  114 1    
    73   36  115 1    
    74   37   38 am   BACKBONE|DICT|INTERRES
    75   37  116 1    
    76   38   39 2    
    77   38   40 1    
    78   40   41 1    
    79   40   42 1    
    80   40  117 1    
    81   41  118 1    
    82   41  119 1    
    83   41  120 1    
    84   42   43 am   BACKBONE|DICT|INTERRES
    85   42  121 1    
    86   43   44 2    
    87   43   45 1    
    88   45   46 1    
    89   45   47 1    
    90   45  122 1    
    91   46  123 1    
    92   46  124 1    
    93   46  125 1    
    94   47   48 am   BACKBONE|DICT|INTERRES
    95   47  126 1    
    96   48   49 2    
    97   48   50 1    
    98   50   51 1    
    99   50   52 1    
   100   50  127 1    
   101   51  128 1    
   102   51  129 1    
   103   51  130 1    
   104   52   53 am   BACKBONE|DICT|INTERRES
   105   52  131 1    
   106   53   54 2    
   107   53   55 1    
   108   55   56 1    
   109   55   59 1    
   110   55  132 1    
   111   56   57 1    
   112   56  133 1    
   113   56  134 1    
   114   57   58 1    
   115   58  135 1    
   116   58  136 1    
   117   59   60 am   BACKBONE|DICT|INTERRES
   118   59  137 1    
   119   60   61 2    
   120   60   62 1    
   121   62   63 1    
   122   62   64 1    
   123   62  138 1    
   124   63  139 1    
   125   63  140 1    
   126   63  141 1    
   127   64   65 am   BACKBONE|DICT|INTERRES
   128   64  142 1    
   129   65   66 2    
   130   65   67 1    
   131   67   68 1    
   132   67   69 1    
   133   67  143 1    
   134   68  144 1    
   135   68  145 1    
   136   68  146 1    
   137   69   70 am   BACKBONE|DICT|INTERRES
   138   69  147 1    
   139   70   71 2    
   140   70   72 1    
   141   72   73 1    
   142   72   74 1    
   143   72  148 1    
   144   73  149 1    
   145   73  150 1    
   146   73  151 1    
   147   74   75 am   BACKBONE|DICT|INTERRES
   148   74  152 1    
   149   75   76 2    
   150   75   77 1    
   151   77   78 1    
   152   77   79 1    
   153   77  153 1    
   154   78  154 1    
   155   78  155 1    
   156   78  156 1    
   157   79   80 am   BACKBONE|DICT|INTERRES
   158   79  157 1    
   159   80   81 2    
@<TRIPOS>SUBSTRUCTURE
     1 UNK         1 GROUP             0       ****    0 ROOT    
