@<TRIPOS>MOLECULE
3R207
157   159    1
SMALL
USER_CHARGES


@<TRIPOS>ATOM
      1 CA        -52.5204  -29.9735    9.0498 C.3       0 UNK        -0.1975 
      2 C         -51.4630  -30.4317    8.0578 C.2       0 UNK         0.4852 
      3 O         -50.8844  -31.5037    8.2365 O.2       0 UNK        -0.5216 
      4 N         -51.1954  -29.6289    7.0180 N.am      1 UNK        -0.4461 
      5 CA        -50.2226  -29.9284    5.9552 C.3       1 UNK         0.0864 
      6 C6        -50.5168  -29.1760    4.6267 C.3       14 UNK        -0.0898 
      7 S7        -52.2538  -29.2752    4.0653 S.3       14 UNK        -0.2598 
      8 C8        -52.7796  -27.5286    4.1303 C.3       14 UNK         0.0286 
      9 C9        -52.9833  -27.0602    5.5629 C.ar      14 UNK        -0.0844 
     10 C10       -51.9139  -26.5265    6.2864 C.ar      14 UNK        -0.0881 
     11 C11       -52.0683  -26.1829    7.6299 C.ar      14 UNK        -0.0643 
     12 C12       -53.3221  -26.3077    8.2335 C.ar      14 UNK        -0.0930 
     13 C13       -54.4071  -26.8131    7.5129 C.ar      14 UNK        -0.0827 
     14 C14       -54.2327  -27.1894    6.1774 C.ar      14 UNK        -0.1249 
     15 C15       -55.7521  -26.9947    8.1965 C.3       14 UNK         0.0141 
     16 S16       -56.0261  -28.7422    8.6125 S.3       14 UNK        -0.2313 
     17 C17       -57.3705  -28.6222    9.8415 C.3       14 UNK        -0.0915 
     18 CA        -57.0253  -29.0994   11.2865 C.3       13 UNK         0.0968 
     19 C         -56.4452  -30.5457   11.3882 C.2       13 UNK         0.5732 
     20 N         -55.6042  -30.8624   12.3655 N.am      13 UNK        -0.7310 
     21 O         -56.8086  -31.4185   10.6027 O.2       13 UNK        -0.5035 
     22 N         -56.3721  -28.0738   12.1203 N.am      13 UNK        -0.4233 
     23 C         -55.0960  -27.6649   12.0879 C.2       13 UNK         0.4989 
     24 O         -54.2635  -28.0232   11.2573 O.2       13 UNK        -0.4996 
     25 CA        -54.6395  -26.7158   13.2175 C.3       12 UNK         0.0216 
     26 CB        -55.7842  -26.1740   14.1033 C.3       12 UNK        -0.1964 
     27 N         -53.6055  -27.3316   14.0596 N.am      12 UNK        -0.4276 
     28 C         -53.6492  -28.5365   14.6535 C.2       12 UNK         0.5020 
     29 O         -54.6134  -29.3017   14.6048 O.2       12 UNK        -0.5489 
     30 CA        -52.4012  -28.9584   15.4402 C.3       11 UNK         0.0294 
     31 CB        -51.3310  -29.5209   14.4893 C.3       11 UNK        -0.2019 
     32 N         -51.8427  -27.8309   16.1822 N.am      11 UNK        -0.4493 
     33 C         -52.1858  -27.4787   17.4270 C.2       11 UNK         0.4932 
     34 O         -52.9827  -28.1121   18.1212 O.2       11 UNK        -0.5029 
     35 CA        -51.5362  -26.1923   17.9782 C.3       10 UNK         0.0280 
     36 CB        -51.4821  -26.1561   19.5202 C.3       10 UNK        -0.1976 
     37 N         -50.2181  -25.9119   17.3939 N.am      10 UNK        -0.4242 
     38 C         -49.1019  -26.6542   17.4882 C.2       10 UNK         0.5072 
     39 O         -49.0170  -27.6852   18.1566 O.2       10 UNK        -0.5224 
     40 CA        -47.8718  -26.1975   16.6772 C.3       9 UNK         0.0343 
     41 CB        -47.6212  -27.1624   15.5055 C.3       9 UNK        -0.2003 
     42 N         -47.9849  -24.8388   16.1435 N.am      9 UNK        -0.4272 
     43 C         -47.9332  -23.7124   16.8672 C.2       9 UNK         0.4988 
     44 O         -47.6942  -23.6793   18.0744 O.2       9 UNK        -0.5108 
     45 CA        -48.2508  -22.4072   16.1188 C.3       8 UNK         0.0248 
     46 CB        -46.9875  -21.8389   15.4515 C.3       8 UNK        -0.2001 
     47 N         -49.3054  -22.5825   15.1139 N.am      8 UNK        -0.4140 
     48 C         -50.5920  -22.8387   15.3941 C.2       8 UNK         0.5028 
     49 O         -51.0382  -22.9337   16.5368 O.2       8 UNK        -0.5428 
     50 CA        -51.5307  -23.0721   14.1996 C.3       7 UNK         0.0264 
     51 CB        -51.9683  -21.7368   13.5771 C.3       7 UNK        -0.1988 
     52 N         -50.9224  -23.9192   13.1722 N.am      7 UNK        -0.4454 
     53 C         -50.7194  -25.2375   13.3062 C.2       7 UNK         0.5027 
     54 O         -51.0743  -25.8886   14.2896 O.2       7 UNK        -0.5083 
     55 CA        -50.0124  -25.9591   12.1435 C.3       6 UNK         0.0844 
     56 C56       -51.0694  -26.4860   11.1389 C.3       14 UNK        -0.0967 
     57 S57       -50.3367  -27.0595    9.5697 S.3       14 UNK        -0.2604 
     58 C58       -50.8621  -25.7381    8.4357 C.3       14 UNK         0.0134 
     59 N         -48.9610  -25.1631   11.4972 N.am      6 UNK        -0.4116 
     60 C         -47.9030  -24.5966   12.0910 C.2       5 UNK         0.5034 
     61 O         -47.7484  -24.5513   13.3110 O.2       5 UNK        -0.5045 
     62 CA        -46.8221  -23.9908   11.1812 C.3       5 UNK         0.0224 
     63 CB        -45.5093  -24.7789   11.3237 C.3       5 UNK        -0.1978 
     64 N         -47.1995  -23.9528    9.7625 N.am      5 UNK        -0.4737 
     65 C         -47.8979  -22.9587    9.1913 C.2       4 UNK         0.5027 
     66 O         -48.3671  -22.0188    9.8330 O.2       4 UNK        -0.5211 
     67 CA        -48.0981  -23.0012    7.6628 C.3       4 UNK         0.0297 
     68 CB        -47.8989  -21.6170    7.0186 C.3       4 UNK        -0.1993 
     69 N         -47.1853  -23.9576    7.0359 N.am      4 UNK        -0.4486 
     70 C         -47.5208  -24.8845    6.1320 C.2       3 UNK         0.4961 
     71 O         -48.6355  -24.9804    5.6183 O.2       3 UNK        -0.5105 
     72 CA        -46.4381  -25.9160    5.7616 C.3       3 UNK         0.0299 
     73 CB        -44.9923  -25.4393    6.0323 C.3       3 UNK        -0.1972 
     74 N         -46.6922  -27.2024    6.4204 N.am      3 UNK        -0.4305 
     75 C         -46.8166  -27.4301    7.7371 C.2       2 UNK         0.5006 
     76 O         -46.6831  -26.5609    8.6020 O.2       2 UNK        -0.5106 
     77 CA        -47.1875  -28.8683    8.1389 C.3       2 UNK         0.0296 
     78 CB        -47.1663  -29.0855    9.6647 C.3       2 UNK        -0.2002 
     79 N         -48.5110  -29.2163    7.6148 N.am      2 UNK        -0.4032 
     80 C         -48.7532  -29.6939    6.3846 C.2       1 UNK         0.5000 
     81 O         -47.8519  -29.9152    5.5723 O.2       1 UNK        -0.5238 
     82 H82       -52.0915  -29.8797   10.0472 H         1 UNK         0.0889 
     83 H83       -53.3378  -30.6924    9.0958 H         1 UNK         0.0889 
     84 H84       -52.9402  -29.0069    8.7780 H         1 UNK         0.0889 
     85 H85       -51.7162  -28.7677    6.9054 H         1 UNK         0.3028 
     86 H86       -50.3028  -30.9955    5.7367 H         1 UNK         0.0864 
     87 H87       -50.2083  -28.1332    4.6900 H         1 UNK         0.0720 
     88 H88       -49.9068  -29.6002    3.8268 H         1 UNK         0.0720 
     89 H89       -53.7107  -27.4216    3.5716 H         1 UNK         0.0814 
     90 H90       -52.0478  -26.9000    3.6202 H         1 UNK         0.0814 
     91 H91       -50.9462  -26.4106    5.8191 H         1 UNK         0.1469 
     92 H92       -53.4454  -26.0551    9.2769 H         1 UNK         0.1381 
     93 H93       -55.0639  -27.6087    5.6267 H         1 UNK         0.1206 
     94 H94       -56.5547  -26.6428    7.5470 H         1 UNK         0.0813 
     95 H95       -55.7967  -26.3930    9.1056 H         1 UNK         0.0813 
     96 H96       -58.1952  -29.2245    9.4570 H         1 UNK         0.0638 
     97 H97       -57.7552  -27.6019    9.8696 H         1 UNK         0.0638 
     98 H98       -57.9930  -29.2099   11.7768 H         1 UNK         0.0568 
     99 H99       -55.2599  -31.8065   12.4245 H         1 UNK         0.3450 
    100 H100      -55.3172  -30.1785   13.0605 H         1 UNK         0.3450 
    101 H101      -56.9392  -27.7310   12.8812 H         1 UNK         0.2987 
    102 H102      -54.1711  -25.8629   12.7240 H         1 UNK         0.0766 
    103 H103      -55.4056  -25.4456   14.8208 H         1 UNK         0.0798 
    104 H104      -56.2756  -26.9639   14.6729 H         1 UNK         0.0798 
    105 H105      -56.5423  -25.6640   13.5072 H         1 UNK         0.0798 
    106 H106      -52.7490  -26.7961   14.1649 H         1 UNK         0.3198 
    107 H107      -52.6893  -29.7489   16.1369 H         1 UNK         0.0843 
    108 H108      -51.7195  -30.3706   13.9260 H         1 UNK         0.0831 
    109 H109      -50.4573  -29.8693   15.0404 H         1 UNK         0.0831 
    110 H110      -50.9948  -28.7773   13.7660 H         1 UNK         0.0831 
    111 H111      -51.2434  -27.1967   15.6617 H         1 UNK         0.3133 
    112 H112      -52.1809  -25.3736   17.6555 H         1 UNK         0.0566 
    113 H113      -51.0252  -25.2337   19.8787 H         1 UNK         0.0814 
    114 H114      -52.4841  -26.2071   19.9481 H         1 UNK         0.0814 
    115 H115      -50.9138  -26.9932   19.9265 H         1 UNK         0.0814 
    116 H116      -50.1767  -25.0776   16.8226 H         1 UNK         0.3091 
    117 H117      -47.0080  -26.2313   17.3442 H         1 UNK         0.0702 
    118 H118      -46.7315  -26.8809   14.9416 H         1 UNK         0.0785 
    119 H119      -48.4636  -27.1808   14.8136 H         1 UNK         0.0785 
    120 H120      -47.4700  -28.1822   15.8622 H         1 UNK         0.0785 
    121 H121      -48.0970  -24.7542   15.1354 H         1 UNK         0.2998 
    122 H122      -48.6042  -21.6807   16.8538 H         1 UNK         0.0697 
    123 H123      -46.5851  -22.5163   14.6975 H         1 UNK         0.0825 
    124 H124      -46.2014  -21.6704   16.1888 H         1 UNK         0.0825 
    125 H125      -47.1888  -20.8818   14.9703 H         1 UNK         0.0825 
    126 H126      -49.0131  -22.5802   14.1475 H         1 UNK         0.3029 
    127 H127      -52.4234  -23.5778   14.5756 H         1 UNK         0.0897 
    128 H128      -52.6988  -21.8911   12.7827 H         1 UNK         0.0792 
    129 H129      -52.4364  -21.0940   14.3243 H         1 UNK         0.0792 
    130 H130      -51.1257  -21.1869   13.1561 H         1 UNK         0.0792 
    131 H131      -50.6071  -23.4655   12.3265 H         1 UNK         0.3086 
    132 H132      -49.5050  -26.8260   12.5711 H         1 UNK         0.0583 
    133 H133      -51.6147  -27.3244   11.5770 H         1 UNK         0.1020 
    134 H134      -51.8257  -25.7282   10.9285 H         1 UNK         0.1020 
    135 H135      -51.0795  -24.8119    8.9688 H         1 UNK         0.0694 
    136 H136      -50.0256  -25.5176    7.7749 H         1 UNK         0.0694 
    137 H137      -48.9679  -25.1804   10.4881 H         1 UNK         0.2989 
    138 H138      -46.6441  -22.9720   11.5329 H         1 UNK         0.1055 
    139 H139      -45.1644  -24.7828   12.3588 H         1 UNK         0.0806 
    140 H140      -44.7146  -24.3392   10.7210 H         1 UNK         0.0806 
    141 H141      -45.6272  -25.8189   11.0164 H         1 UNK         0.0806 
    142 H142      -46.9291  -24.7636    9.2078 H         1 UNK         0.3061 
    143 H143      -49.1324  -23.3078    7.4977 H         1 UNK         0.0734 
    144 H144      -48.5997  -20.8873    7.4263 H         1 UNK         0.0832 
    145 H145      -46.8918  -21.2350    7.1894 H         1 UNK         0.0832 
    146 H146      -48.0654  -21.6546    5.9419 H         1 UNK         0.0832 
    147 H147      -46.2427  -23.9734    7.4005 H         1 UNK         0.3156 
    148 H148      -46.5323  -26.0898    4.6886 H         1 UNK         0.0589 
    149 H149      -44.7780  -25.3244    7.0953 H         1 UNK         0.0808 
    150 H150      -44.2699  -26.1510    5.6325 H         1 UNK         0.0808 
    151 H151      -44.7961  -24.4821    5.5469 H         1 UNK         0.0808 
    152 H152      -46.8700  -27.9869    5.8029 H         1 UNK         0.3098 
    153 H153      -46.4378  -29.5334    7.7050 H         1 UNK         0.0720 
    154 H154      -46.1739  -28.8842   10.0700 H         1 UNK         0.0791 
    155 H155      -47.4191  -30.1141    9.9221 H         1 UNK         0.0791 
    156 H156      -47.8639  -28.4294   10.1846 H         1 UNK         0.0791 
    157 H157      -49.3011  -29.0002    8.2075 H         1 UNK         0.3028 
@<TRIPOS>BOND
     1    1    2 1    
     2    1   82 1    
     3    1   83 1    
     4    1   84 1    
     5    2    3 2    
     6    2    4 am   BACKBONE|DICT|INTERRES
     7    4    5 1    
     8    4   85 1    
     9    5    6 1    
    10    5   80 1    
    11    5   86 1    
    12    6    7 1    
    13    6   87 1    
    14    6   88 1    
    15    7    8 1    
    16    8    9 1    
    17    8   89 1    
    18    8   90 1    
    19    9   10 ar   
    20    9   14 ar   
    21   10   11 ar   
    22   10   91 1    
    23   11   12 ar   
    24   11   58 1    
    25   12   13 ar   
    26   12   92 1    
    27   13   14 ar   
    28   13   15 1    
    29   14   93 1    
    30   15   16 1    
    31   15   94 1    
    32   15   95 1    
    33   16   17 1    
    34   17   18 1    
    35   17   96 1    
    36   17   97 1    
    37   18   19 1    
    38   18   22 1    
    39   18   98 1    
    40   19   20 am   BACKBONE|DICT|INTERRES
    41   19   21 2    
    42   20   99 1    
    43   20  100 1    
    44   22   23 am   BACKBONE|DICT|INTERRES
    45   22  101 1    
    46   23   24 2    
    47   23   25 1    
    48   25   26 1    
    49   25   27 1    
    50   25  102 1    
    51   26  103 1    
    52   26  104 1    
    53   26  105 1    
    54   27   28 am   BACKBONE|DICT|INTERRES
    55   27  106 1    
    56   28   29 2    
    57   28   30 1    
    58   30   31 1    
    59   30   32 1    
    60   30  107 1    
    61   31  108 1    
    62   31  109 1    
    63   31  110 1    
    64   32   33 am   BACKBONE|DICT|INTERRES
    65   32  111 1    
    66   33   34 2    
    67   33   35 1    
    68   35   36 1    
    69   35   37 1    
    70   35  112 1    
    71   36  113 1    
    72   36  114 1    
    73   36  115 1    
    74   37   38 am   BACKBONE|DICT|INTERRES
    75   37  116 1    
    76   38   39 2    
    77   38   40 1    
    78   40   41 1    
    79   40   42 1    
    80   40  117 1    
    81   41  118 1    
    82   41  119 1    
    83   41  120 1    
    84   42   43 am   BACKBONE|DICT|INTERRES
    85   42  121 1    
    86   43   44 2    
    87   43   45 1    
    88   45   46 1    
    89   45   47 1    
    90   45  122 1    
    91   46  123 1    
    92   46  124 1    
    93   46  125 1    
    94   47   48 am   BACKBONE|DICT|INTERRES
    95   47  126 1    
    96   48   49 2    
    97   48   50 1    
    98   50   51 1    
    99   50   52 1    
   100   50  127 1    
   101   51  128 1    
   102   51  129 1    
   103   51  130 1    
   104   52   53 am   BACKBONE|DICT|INTERRES
   105   52  131 1    
   106   53   54 2    
   107   53   55 1    
   108   55   56 1    
   109   55   59 1    
   110   55  132 1    
   111   56   57 1    
   112   56  133 1    
   113   56  134 1    
   114   57   58 1    
   115   58  135 1    
   116   58  136 1    
   117   59   60 am   BACKBONE|DICT|INTERRES
   118   59  137 1    
   119   60   61 2    
   120   60   62 1    
   121   62   63 1    
   122   62   64 1    
   123   62  138 1    
   124   63  139 1    
   125   63  140 1    
   126   63  141 1    
   127   64   65 am   BACKBONE|DICT|INTERRES
   128   64  142 1    
   129   65   66 2    
   130   65   67 1    
   131   67   68 1    
   132   67   69 1    
   133   67  143 1    
   134   68  144 1    
   135   68  145 1    
   136   68  146 1    
   137   69   70 am   BACKBONE|DICT|INTERRES
   138   69  147 1    
   139   70   71 2    
   140   70   72 1    
   141   72   73 1    
   142   72   74 1    
   143   72  148 1    
   144   73  149 1    
   145   73  150 1    
   146   73  151 1    
   147   74   75 am   BACKBONE|DICT|INTERRES
   148   74  152 1    
   149   75   76 2    
   150   75   77 1    
   151   77   78 1    
   152   77   79 1    
   153   77  153 1    
   154   78  154 1    
   155   78  155 1    
   156   78  156 1    
   157   79   80 am   BACKBONE|DICT|INTERRES
   158   79  157 1    
   159   80   81 2    
@<TRIPOS>SUBSTRUCTURE
     1 UNK         1 GROUP             0       ****    0 ROOT    
