@<TRIPOS>MOLECULE
3R207
157   159    1
SMALL
USER_CHARGES


@<TRIPOS>ATOM
      1 CA        -45.2879  -28.9529   10.4593 C.3       0 UNK        -0.1975 
      2 C         -45.8756  -29.5098    9.1708 C.2       0 UNK         0.4852 
      3 O         -45.7658  -30.7084    8.9114 O.2       0 UNK        -0.5216 
      4 N         -46.4984  -28.6435    8.3676 N.am      1 UNK        -0.4461 
      5 CA        -47.1795  -28.9647    7.1153 C.3       1 UNK         0.0864 
      6 C6        -48.7036  -29.0863    7.3687 C.3       14 UNK        -0.0898 
      7 S7        -49.6697  -29.7228    5.9624 S.3       14 UNK        -0.2598 
      8 C8        -50.9052  -28.3852    5.7747 C.3       14 UNK         0.0286 
      9 C9        -51.8816  -28.2128    6.9447 C.ar      14 UNK        -0.0844 
     10 C10       -52.5310  -26.9825    7.1055 C.ar      14 UNK        -0.0881 
     11 C11       -53.4891  -26.8025    8.1088 C.ar      14 UNK        -0.0643 
     12 C12       -53.7880  -27.8670    8.9597 C.ar      14 UNK        -0.0930 
     13 C13       -53.1264  -29.0919    8.8491 C.ar      14 UNK        -0.0827 
     14 C14       -52.1864  -29.2587    7.8277 C.ar      14 UNK        -0.1249 
     15 C15       -53.4154  -30.2607    9.7933 C.3       14 UNK         0.0141 
     16 S16       -54.0794  -29.7903   11.4344 S.3       14 UNK        -0.2313 
     17 C17       -55.8826  -30.0253   11.2330 C.3       14 UNK        -0.0915 
     18 CA        -56.7340  -28.7501   11.4881 C.3       13 UNK         0.0968 
     19 C         -58.2458  -29.0491   11.2665 C.2       13 UNK         0.5732 
     20 N         -59.0938  -28.9987   12.2871 N.am      13 UNK        -0.7310 
     21 O         -58.6569  -29.3261   10.1423 O.2       13 UNK        -0.5035 
     22 N         -56.4149  -28.1223   12.7805 N.am      13 UNK        -0.4233 
     23 C         -56.7102  -26.8652   13.1290 C.2       13 UNK         0.4989 
     24 O         -57.2868  -26.0727   12.3845 O.2       13 UNK        -0.4996 
     25 CA        -56.2665  -26.3802   14.5235 C.3       12 UNK         0.0216 
     26 CB        -57.3682  -26.6305   15.5714 C.3       12 UNK        -0.1964 
     27 N         -54.9620  -26.8881   14.9790 N.am      12 UNK        -0.4276 
     28 C         -54.6026  -28.1459   15.2787 C.2       12 UNK         0.5020 
     29 O         -55.3702  -29.1067   15.2086 O.2       12 UNK        -0.5489 
     30 CA        -53.1396  -28.3986   15.6829 C.3       11 UNK         0.0294 
     31 CB        -52.4373  -29.3086   14.6623 C.3       11 UNK        -0.2019 
     32 N         -52.3453  -27.1794   15.8477 N.am      11 UNK        -0.4493 
     33 C         -52.3586  -26.4099   16.9461 C.2       11 UNK         0.4932 
     34 O         -53.1339  -26.5876   17.8870 O.2       11 UNK        -0.5029 
     35 CA        -51.3239  -25.2660   17.0081 C.3       10 UNK         0.0280 
     36 CB        -51.0333  -24.7994   18.4497 C.3       10 UNK        -0.1976 
     37 N         -50.0734  -25.5788   16.3056 N.am      10 UNK        -0.4242 
     38 C         -49.2481  -26.6202   16.5133 C.2       10 UNK         0.5072 
     39 O         -49.3873  -27.4356   17.4260 O.2       10 UNK        -0.5224 
     40 CA        -48.0856  -26.8087   15.5209 C.3       9 UNK         0.0343 
     41 CB        -48.1254  -28.2091   14.8813 C.3       9 UNK        -0.2003 
     42 N         -48.1208  -25.8030   14.4561 N.am      9 UNK        -0.4272 
     43 C         -47.2604  -24.7834   14.3451 C.2       9 UNK         0.4988 
     44 O         -46.2840  -24.6220   15.0779 O.2       9 UNK        -0.5108 
     45 CA        -47.5394  -23.7530   13.2403 C.3       8 UNK         0.0248 
     46 CB        -46.8423  -24.1647   11.9345 C.3       8 UNK        -0.2001 
     47 N         -48.9626  -23.5042   12.9815 N.am      8 UNK        -0.4140 
     48 C         -49.8163  -22.9461   13.8536 C.2       8 UNK         0.5028 
     49 O         -49.5414  -22.7304   15.0332 O.2       8 UNK        -0.5428 
     50 CA        -51.2097  -22.5677   13.3334 C.3       7 UNK         0.0264 
     51 CB        -51.1310  -21.3176   12.4415 C.3       7 UNK        -0.1988 
     52 N         -51.8057  -23.6616   12.5733 N.am      7 UNK        -0.4454 
     53 C         -52.7729  -24.4715   13.0247 C.2       7 UNK         0.5027 
     54 O         -53.3032  -24.3790   14.1333 O.2       7 UNK        -0.5083 
     55 CA        -53.1934  -25.6262   12.0921 C.3       6 UNK         0.0844 
     56 C56       -54.2693  -25.1528   11.0763 C.3       14 UNK        -0.0967 
     57 S57       -53.5944  -24.4011    9.5501 S.3       14 UNK        -0.2604 
     58 C58       -54.2494  -25.4862    8.2368 C.3       14 UNK         0.0134 
     59 N         -52.0541  -26.2918   11.4561 N.am      6 UNK        -0.4116 
     60 C         -50.9452  -26.7248   12.0705 C.2       5 UNK         0.5034 
     61 O         -50.7790  -26.7213   13.2923 O.2       5 UNK        -0.5045 
     62 CA        -49.7869  -27.1667   11.1666 C.3       5 UNK         0.0224 
     63 CB        -49.7902  -28.6928   10.9976 C.3       5 UNK        -0.1978 
     64 N         -49.7474  -26.5232    9.8463 N.am      5 UNK        -0.4737 
     65 C         -49.6766  -25.2049    9.6068 C.2       4 UNK         0.5027 
     66 O         -49.7974  -24.3356   10.4726 O.2       4 UNK        -0.5211 
     67 CA        -49.3946  -24.7903    8.1526 C.3       4 UNK         0.0297 
     68 CB        -50.4255  -23.7665    7.6527 C.3       4 UNK        -0.1993 
     69 N         -48.0498  -24.2339    7.9715 N.am      4 UNK        -0.4486 
     70 C         -46.9012  -24.8490    8.2795 C.2       3 UNK         0.4961 
     71 O         -46.8213  -25.9326    8.8643 O.2       3 UNK        -0.5105 
     72 CA        -45.6067  -24.1946    7.7826 C.3       3 UNK         0.0299 
     73 CB        -44.6909  -23.8045    8.9542 C.3       3 UNK        -0.1972 
     74 N         -44.9503  -25.2089    6.9641 N.am      3 UNK        -0.4305 
     75 C         -45.0793  -25.3066    5.6347 C.2       2 UNK         0.5006 
     76 O         -45.4389  -24.3842    4.9020 O.2       2 UNK        -0.5106 
     77 CA        -44.8408  -26.7066    5.0388 C.3       2 UNK         0.0296 
     78 CB        -43.3383  -26.9842    4.8673 C.3       2 UNK        -0.2002 
     79 N         -45.4555  -27.7686    5.8492 N.am      2 UNK        -0.4032 
     80 C         -46.7734  -27.8872    6.0894 C.2       1 UNK         0.5000 
     81 O         -47.6231  -27.1488    5.5879 O.2       1 UNK        -0.5238 
     82 H82       -45.4731  -27.8832   10.5615 H         1 UNK         0.0889 
     83 H83       -44.2107  -29.1152   10.4827 H         1 UNK         0.0889 
     84 H84       -45.7287  -29.4553   11.3199 H         1 UNK         0.0889 
     85 H85       -46.5564  -27.6590    8.6358 H         1 UNK         0.3028 
     86 H86       -46.8175  -29.9192    6.7268 H         1 UNK         0.0864 
     87 H87       -48.8812  -29.7729    8.1975 H         1 UNK         0.0720 
     88 H88       -49.1057  -28.1259    7.6866 H         1 UNK         0.0720 
     89 H89       -51.4869  -28.5841    4.8739 H         1 UNK         0.0814 
     90 H90       -50.3733  -27.4496    5.5941 H         1 UNK         0.0814 
     91 H91       -52.3154  -26.1712    6.4236 H         1 UNK         0.1469 
     92 H92       -54.5482  -27.7449    9.7087 H         1 UNK         0.1381 
     93 H93       -51.7032  -30.2192    7.7185 H         1 UNK         0.1206 
     94 H94       -54.0831  -30.9670    9.2994 H         1 UNK         0.0813 
     95 H95       -52.4862  -30.8041    9.9714 H         1 UNK         0.0813 
     96 H96       -56.1828  -30.8165   11.9225 H         1 UNK         0.0638 
     97 H97       -56.0828  -30.4099   10.2318 H         1 UNK         0.0638 
     98 H98       -56.4789  -28.0241   10.7168 H         1 UNK         0.0568 
     99 H99       -58.7661  -28.7776   13.2131 H         1 UNK         0.3450 
    100 H100      -60.0701  -29.1906   12.1275 H         1 UNK         0.3450 
    101 H101      -55.9748  -28.7142   13.4805 H         1 UNK         0.2987 
    102 H102      -56.1372  -25.2995   14.4418 H         1 UNK         0.0766 
    103 H103      -57.0925  -26.2160   16.5412 H         1 UNK         0.0798 
    104 H104      -57.5719  -27.6929   15.7076 H         1 UNK         0.0798 
    105 H105      -58.3045  -26.1577   15.2718 H         1 UNK         0.0798 
    106 H106      -54.2371  -26.1819   15.0439 H         1 UNK         0.3198 
    107 H107      -53.1634  -28.9270   16.6386 H         1 UNK         0.0843 
    108 H108      -52.9670  -30.2555   14.5491 H         1 UNK         0.0831 
    109 H109      -51.4189  -29.5429   14.9724 H         1 UNK         0.0831 
    110 H110      -52.3893  -28.8455   13.6776 H         1 UNK         0.0831 
    111 H111      -51.6945  -26.9572   15.0998 H         1 UNK         0.3133 
    112 H112      -51.7685  -24.4257   16.4730 H         1 UNK         0.0566 
    113 H113      -50.3144  -23.9802   18.4629 H         1 UNK         0.0814 
    114 H114      -51.9406  -24.4395   18.9363 H         1 UNK         0.0814 
    115 H115      -50.6335  -25.6075   19.0631 H         1 UNK         0.0814 
    116 H116      -49.8243  -24.9288   15.5718 H         1 UNK         0.3091 
    117 H117      -47.1615  -26.7283   16.0967 H         1 UNK         0.0702 
    118 H118      -47.3154  -28.3409   14.1638 H         1 UNK         0.0785 
    119 H119      -49.0660  -28.3945   14.3630 H         1 UNK         0.0785 
    120 H120      -48.0157  -28.9868   15.6381 H         1 UNK         0.0785 
    121 H121      -48.9105  -25.8590   13.8240 H         1 UNK         0.2998 
    122 H122      -47.1046  -22.8057   13.5661 H         1 UNK         0.0697 
    123 H123      -47.2118  -25.1189   11.5589 H         1 UNK         0.0825 
    124 H124      -45.7664  -24.2684   12.0805 H         1 UNK         0.0825 
    125 H125      -46.9945  -23.4190   11.1546 H         1 UNK         0.0825 
    126 H126      -49.2824  -23.6925   12.0314 H         1 UNK         0.3029 
    127 H127      -51.8324  -22.3251   14.1976 H         1 UNK         0.0897 
    128 H128      -52.1238  -20.9977   12.1246 H         1 UNK         0.0792 
    129 H129      -50.6772  -20.4827   12.9773 H         1 UNK         0.0792 
    130 H130      -50.5362  -21.4939   11.5440 H         1 UNK         0.0792 
    131 H131      -51.3967  -23.8592   11.6650 H         1 UNK         0.3086 
    132 H132      -53.6521  -26.3869   12.7223 H         1 UNK         0.0583 
    133 H133      -54.9524  -24.4337   11.5343 H         1 UNK         0.1020 
    134 H134      -54.9162  -25.9857   10.8156 H         1 UNK         0.1020 
    135 H135      -55.3080  -25.6808    8.4160 H         1 UNK         0.0694 
    136 H136      -54.2039  -24.9422    7.2922 H         1 UNK         0.0694 
    137 H137      -52.0739  -26.3193   10.4463 H         1 UNK         0.2989 
    138 H138      -48.8655  -26.8915   11.6822 H         1 UNK         0.1055 
    139 H139      -49.8567  -29.1960   11.9636 H         1 UNK         0.0806 
    140 H140      -48.8740  -29.0397   10.5206 H         1 UNK         0.0806 
    141 H141      -50.6347  -29.0305   10.3973 H         1 UNK         0.0806 
    142 H142      -49.6528  -27.1475    9.0602 H         1 UNK         0.3061 
    143 H143      -49.4654  -25.6734    7.5143 H         1 UNK         0.0734 
    144 H144      -51.4311  -24.1815    7.6852 H         1 UNK         0.0832 
    145 H145      -50.4262  -22.8602    8.2601 H         1 UNK         0.0832 
    146 H146      -50.2354  -23.4794    6.6185 H         1 UNK         0.0832 
    147 H147      -48.0009  -23.3418    7.5012 H         1 UNK         0.3156 
    148 H148      -45.8320  -23.3022    7.1946 H         1 UNK         0.0589 
    149 H149      -44.4899  -24.6485    9.6157 H         1 UNK         0.0808 
    150 H150      -43.7333  -23.4254    8.5970 H         1 UNK         0.0808 
    151 H151      -45.1453  -23.0172    9.5561 H         1 UNK         0.0808 
    152 H152      -44.6712  -26.0405    7.4639 H         1 UNK         0.3098 
    153 H153      -45.3079  -26.7303    4.0520 H         1 UNK         0.0720 
    154 H154      -43.1660  -27.9385    4.3690 H         1 UNK         0.0791 
    155 H155      -42.8153  -27.0055    5.8242 H         1 UNK         0.0791 
    156 H156      -42.8677  -26.2126    4.2561 H         1 UNK         0.0791 
    157 H157      -44.8276  -28.4150    6.3058 H         1 UNK         0.3028 
@<TRIPOS>BOND
     1    1    2 1    
     2    1   82 1    
     3    1   83 1    
     4    1   84 1    
     5    2    3 2    
     6    2    4 am   BACKBONE|DICT|INTERRES
     7    4    5 1    
     8    4   85 1    
     9    5    6 1    
    10    5   80 1    
    11    5   86 1    
    12    6    7 1    
    13    6   87 1    
    14    6   88 1    
    15    7    8 1    
    16    8    9 1    
    17    8   89 1    
    18    8   90 1    
    19    9   10 ar   
    20    9   14 ar   
    21   10   11 ar   
    22   10   91 1    
    23   11   12 ar   
    24   11   58 1    
    25   12   13 ar   
    26   12   92 1    
    27   13   14 ar   
    28   13   15 1    
    29   14   93 1    
    30   15   16 1    
    31   15   94 1    
    32   15   95 1    
    33   16   17 1    
    34   17   18 1    
    35   17   96 1    
    36   17   97 1    
    37   18   19 1    
    38   18   22 1    
    39   18   98 1    
    40   19   20 am   BACKBONE|DICT|INTERRES
    41   19   21 2    
    42   20   99 1    
    43   20  100 1    
    44   22   23 am   BACKBONE|DICT|INTERRES
    45   22  101 1    
    46   23   24 2    
    47   23   25 1    
    48   25   26 1    
    49   25   27 1    
    50   25  102 1    
    51   26  103 1    
    52   26  104 1    
    53   26  105 1    
    54   27   28 am   BACKBONE|DICT|INTERRES
    55   27  106 1    
    56   28   29 2    
    57   28   30 1    
    58   30   31 1    
    59   30   32 1    
    60   30  107 1    
    61   31  108 1    
    62   31  109 1    
    63   31  110 1    
    64   32   33 am   BACKBONE|DICT|INTERRES
    65   32  111 1    
    66   33   34 2    
    67   33   35 1    
    68   35   36 1    
    69   35   37 1    
    70   35  112 1    
    71   36  113 1    
    72   36  114 1    
    73   36  115 1    
    74   37   38 am   BACKBONE|DICT|INTERRES
    75   37  116 1    
    76   38   39 2    
    77   38   40 1    
    78   40   41 1    
    79   40   42 1    
    80   40  117 1    
    81   41  118 1    
    82   41  119 1    
    83   41  120 1    
    84   42   43 am   BACKBONE|DICT|INTERRES
    85   42  121 1    
    86   43   44 2    
    87   43   45 1    
    88   45   46 1    
    89   45   47 1    
    90   45  122 1    
    91   46  123 1    
    92   46  124 1    
    93   46  125 1    
    94   47   48 am   BACKBONE|DICT|INTERRES
    95   47  126 1    
    96   48   49 2    
    97   48   50 1    
    98   50   51 1    
    99   50   52 1    
   100   50  127 1    
   101   51  128 1    
   102   51  129 1    
   103   51  130 1    
   104   52   53 am   BACKBONE|DICT|INTERRES
   105   52  131 1    
   106   53   54 2    
   107   53   55 1    
   108   55   56 1    
   109   55   59 1    
   110   55  132 1    
   111   56   57 1    
   112   56  133 1    
   113   56  134 1    
   114   57   58 1    
   115   58  135 1    
   116   58  136 1    
   117   59   60 am   BACKBONE|DICT|INTERRES
   118   59  137 1    
   119   60   61 2    
   120   60   62 1    
   121   62   63 1    
   122   62   64 1    
   123   62  138 1    
   124   63  139 1    
   125   63  140 1    
   126   63  141 1    
   127   64   65 am   BACKBONE|DICT|INTERRES
   128   64  142 1    
   129   65   66 2    
   130   65   67 1    
   131   67   68 1    
   132   67   69 1    
   133   67  143 1    
   134   68  144 1    
   135   68  145 1    
   136   68  146 1    
   137   69   70 am   BACKBONE|DICT|INTERRES
   138   69  147 1    
   139   70   71 2    
   140   70   72 1    
   141   72   73 1    
   142   72   74 1    
   143   72  148 1    
   144   73  149 1    
   145   73  150 1    
   146   73  151 1    
   147   74   75 am   BACKBONE|DICT|INTERRES
   148   74  152 1    
   149   75   76 2    
   150   75   77 1    
   151   77   78 1    
   152   77   79 1    
   153   77  153 1    
   154   78  154 1    
   155   78  155 1    
   156   78  156 1    
   157   79   80 am   BACKBONE|DICT|INTERRES
   158   79  157 1    
   159   80   81 2    
@<TRIPOS>SUBSTRUCTURE
     1 UNK         1 GROUP             0       ****    0 ROOT    
