@<TRIPOS>MOLECULE
3R207
157   159    1
SMALL
USER_CHARGES


@<TRIPOS>ATOM
      1 CA        -49.8384  -31.8138    6.6406 C.3       0 UNK        -0.1975 
      2 C         -49.9284  -30.7885    5.5202 C.2       0 UNK         0.4852 
      3 O         -49.4409  -31.0389    4.4176 O.2       0 UNK        -0.5216 
      4 N         -50.5426  -29.6308    5.7991 N.am      1 UNK        -0.4461 
      5 CA        -50.7053  -28.5174    4.8552 C.3       1 UNK         0.0864 
      6 C6        -51.8057  -27.5362    5.3266 C.3       14 UNK        -0.0898 
      7 S7        -53.5018  -28.2144    5.2300 S.3       14 UNK        -0.2598 
      8 C8        -53.6772  -29.3116    6.6856 C.3       14 UNK         0.0286 
      9 C9        -53.0834  -28.7621    7.9789 C.ar      14 UNK        -0.0844 
     10 C10       -53.3288  -27.4461    8.3827 C.ar      14 UNK        -0.0881 
     11 C11       -52.7500  -26.9429    9.5501 C.ar      14 UNK        -0.0643 
     12 C12       -51.9511  -27.7744   10.3398 C.ar      14 UNK        -0.0930 
     13 C13       -51.7202  -29.0992    9.9622 C.ar      14 UNK        -0.0827 
     14 C14       -52.2870  -29.5859    8.7806 C.ar      14 UNK        -0.1249 
     15 C15       -50.8420  -29.9962   10.8222 C.3       14 UNK         0.0141 
     16 S16       -51.6953  -30.5686   12.3249 S.3       14 UNK        -0.2313 
     17 C17       -53.0032  -31.6496   11.6467 C.3       14 UNK        -0.0915 
     18 CA        -54.4458  -31.2021   12.0082 C.3       13 UNK         0.0968 
     19 C         -54.7944  -31.4803   13.4998 C.2       13 UNK         0.5732 
     20 N         -55.0094  -32.7399   13.8566 N.am      13 UNK        -0.7310 
     21 O         -54.8527  -30.5821   14.3378 O.2       13 UNK        -0.5035 
     22 N         -54.7080  -29.8168   11.5948 N.am      13 UNK        -0.4233 
     23 C         -55.9243  -29.2681   11.5134 C.2       13 UNK         0.4989 
     24 O         -56.9761  -29.8908   11.6763 O.2       13 UNK        -0.4996 
     25 CA        -55.9781  -27.7595   11.2339 C.3       12 UNK         0.0216 
     26 CB        -57.1175  -27.3878   10.2686 C.3       12 UNK        -0.1964 
     27 N         -56.1461  -27.0371   12.4931 N.am      12 UNK        -0.4276 
     28 C         -55.1463  -26.7584   13.3372 C.2       12 UNK         0.5020 
     29 O         -53.9563  -26.9822   13.0960 O.2       12 UNK        -0.5489 
     30 CA        -55.5418  -26.1372   14.6820 C.3       11 UNK         0.0294 
     31 CB        -56.1486  -27.2046   15.6147 C.3       11 UNK        -0.2019 
     32 N         -54.3373  -25.5714   15.2774 N.am      11 UNK        -0.4493 
     33 C         -54.2610  -24.7387   16.3213 C.2       11 UNK         0.4932 
     34 O         -55.2490  -24.2985   16.9116 O.2       11 UNK        -0.5029 
     35 CA        -52.8467  -24.3100   16.7715 C.3       10 UNK         0.0280 
     36 CB        -52.7596  -24.0312   18.2871 C.3       10 UNK        -0.1976 
     37 N         -51.7856  -25.2308   16.3389 N.am      10 UNK        -0.4242 
     38 C         -51.6278  -26.5164   16.6943 C.2       10 UNK         0.5072 
     39 O         -52.3346  -27.1005   17.5165 O.2       10 UNK        -0.5224 
     40 CA        -50.5070  -27.2976   15.9905 C.3       9 UNK         0.0343 
     41 CB        -51.0086  -27.8550   14.6490 C.3       9 UNK        -0.2003 
     42 N         -49.2948  -26.5108   15.7603 N.am      9 UNK        -0.4272 
     43 C         -48.4554  -26.0988   16.7209 C.2       9 UNK         0.4988 
     44 O         -48.6228  -26.3147   17.9216 O.2       9 UNK        -0.5108 
     45 CA        -47.2106  -25.3239   16.2615 C.3       8 UNK         0.0248 
     46 CB        -46.1542  -26.2774   15.6777 C.3       8 UNK        -0.2001 
     47 N         -47.5477  -24.2991   15.2740 N.am      8 UNK        -0.4140 
     48 C         -48.0567  -23.0965   15.5761 C.2       8 UNK         0.5028 
     49 O         -48.2308  -22.6929   16.7264 O.2       8 UNK        -0.5428 
     50 CA        -48.4468  -22.1891   14.3959 C.3       7 UNK         0.0264 
     51 CB        -47.2660  -21.2941   13.9870 C.3       7 UNK        -0.1988 
     52 N         -48.9167  -22.9379   13.2275 N.am      7 UNK        -0.4454 
     53 C         -50.0682  -23.6257   13.1868 C.2       7 UNK         0.5027 
     54 O         -50.8640  -23.6798   14.1236 O.2       7 UNK        -0.5083 
     55 CA        -50.3671  -24.4259   11.9056 C.3       6 UNK         0.0844 
     56 C56       -51.1888  -23.5657   10.9145 C.3       14 UNK        -0.0967 
     57 S57       -51.6161  -24.4557    9.3824 S.3       14 UNK        -0.2604 
     58 C58       -52.9876  -25.5001    9.9559 C.3       14 UNK         0.0134 
     59 N         -49.1561  -24.9959   11.3064 N.am      6 UNK        -0.4116 
     60 C         -48.3606  -25.8965   11.9031 C.2       5 UNK         0.5034 
     61 O         -48.5599  -26.3359   13.0346 O.2       5 UNK        -0.5045 
     62 CA        -47.1134  -26.3682   11.1385 C.3       5 UNK         0.0224 
     63 CB        -47.3933  -27.7090   10.4424 C.3       5 UNK        -0.1978 
     64 N         -46.6216  -25.3996   10.1558 N.am      5 UNK        -0.4737 
     65 C         -46.1313  -24.1859   10.4483 C.2       4 UNK         0.5027 
     66 O         -46.0176  -23.7522   11.5946 O.2       4 UNK        -0.5211 
     67 CA        -45.7505  -23.2942    9.2531 C.3       4 UNK         0.0297 
     68 CB        -44.2752  -23.4993    8.8767 C.3       4 UNK        -0.1993 
     69 N         -46.5920  -23.5377    8.0767 N.am      4 UNK        -0.4486 
     70 C         -47.9075  -23.2980    8.0112 C.2       3 UNK         0.4961 
     71 O         -48.5439  -22.7760    8.9254 O.2       3 UNK        -0.5105 
     72 CA        -48.6511  -23.7628    6.7462 C.3       3 UNK         0.0299 
     73 CB        -48.4680  -22.7634    5.5876 C.3       3 UNK        -0.1972 
     74 N         -48.3417  -25.1434    6.3379 N.am      3 UNK        -0.4305 
     75 C         -47.1953  -25.6453    5.8506 C.2       2 UNK         0.5006 
     76 O         -46.1755  -24.9749    5.6831 O.2       2 UNK        -0.5106 
     77 CA        -47.1459  -27.1545    5.5408 C.3       2 UNK         0.0296 
     78 CB        -46.1972  -27.8708    6.5169 C.3       2 UNK        -0.2002 
     79 N         -48.4524  -27.8191    5.5816 N.am      2 UNK        -0.4032 
     80 C         -49.3838  -27.7515    4.6178 C.2       1 UNK         0.5000 
     81 O         -49.2396  -27.1051    3.5788 O.2       1 UNK        -0.5238 
     82 H82       -50.6120  -32.5716    6.5197 H         1 UNK         0.0889 
     83 H83       -49.9551  -31.3536    7.6211 H         1 UNK         0.0889 
     84 H84       -48.8686  -32.3106    6.6203 H         1 UNK         0.0889 
     85 H85       -50.9468  -29.4851    6.7140 H         1 UNK         0.3028 
     86 H86       -51.0059  -28.9302    3.8895 H         1 UNK         0.0864 
     87 H87       -51.8117  -26.6479    4.6911 H         1 UNK         0.0720 
     88 H88       -51.5956  -27.1669    6.3306 H         1 UNK         0.0720 
     89 H89       -53.2332  -30.2769    6.4386 H         1 UNK         0.0814 
     90 H90       -54.7385  -29.5041    6.8472 H         1 UNK         0.0814 
     91 H91       -53.9483  -26.8038    7.7718 H         1 UNK         0.1469 
     92 H92       -51.5113  -27.3921   11.2506 H         1 UNK         0.1381 
     93 H93       -52.1127  -30.6124    8.4892 H         1 UNK         0.1206 
     94 H94       -50.4907  -30.8595   10.2551 H         1 UNK         0.0813 
     95 H95       -49.9500  -29.4447   11.1202 H         1 UNK         0.0813 
     96 H96       -52.8162  -32.6671   11.9937 H         1 UNK         0.0638 
     97 H97       -52.9054  -31.6994   10.5625 H         1 UNK         0.0638 
     98 H98       -55.1234  -31.8258   11.4218 H         1 UNK         0.0568 
     99 H99       -54.9597  -33.4901   13.1853 H         1 UNK         0.3450 
    100 H100      -55.2278  -32.9430   14.8193 H         1 UNK         0.3450 
    101 H101      -53.8927  -29.2235   11.5153 H         1 UNK         0.2987 
    102 H102      -55.0418  -27.4575   10.7688 H         1 UNK         0.0766 
    103 H103      -57.1063  -26.3228   10.0364 H         1 UNK         0.0798 
    104 H104      -58.0983  -27.6315   10.6790 H         1 UNK         0.0798 
    105 H105      -57.0153  -27.9253    9.3249 H         1 UNK         0.0798 
    106 H106      -57.0963  -26.8548   12.7834 H         1 UNK         0.3198 
    107 H107      -56.2623  -25.3359   14.5055 H         1 UNK         0.0843 
    108 H108      -57.0387  -27.6559   15.1751 H         1 UNK         0.0831 
    109 H109      -56.4455  -26.7801   16.5736 H         1 UNK         0.0831 
    110 H110      -55.4395  -28.0104   15.8113 H         1 UNK         0.0831 
    111 H111      -53.4891  -25.8673   14.8076 H         1 UNK         0.3133 
    112 H112      -52.6461  -23.3692   16.2574 H         1 UNK         0.0566 
    113 H113      -51.7536  -23.7273   18.5766 H         1 UNK         0.0814 
    114 H114      -53.4358  -23.2259   18.5763 H         1 UNK         0.0814 
    115 H115      -53.0294  -24.9073   18.8773 H         1 UNK         0.0814 
    116 H116      -51.1772  -24.8513   15.6176 H         1 UNK         0.3091 
    117 H117      -50.2414  -28.1423   16.6297 H         1 UNK         0.0702 
    118 H118      -50.2577  -28.4897   14.1784 H         1 UNK         0.0785 
    119 H119      -51.2572  -27.0594   13.9461 H         1 UNK         0.0785 
    120 H120      -51.9070  -28.4599   14.7837 H         1 UNK         0.0785 
    121 H121      -49.0469  -26.3396   14.7876 H         1 UNK         0.2998 
    122 H122      -46.7745  -24.8385   17.1375 H         1 UNK         0.0697 
    123 H123      -46.5178  -26.7997   14.7921 H         1 UNK         0.0825 
    124 H124      -45.8702  -27.0361   16.4083 H         1 UNK         0.0825 
    125 H125      -45.2468  -25.7406   15.4002 H         1 UNK         0.0825 
    126 H126      -47.4577  -24.5537   14.3006 H         1 UNK         0.3029 
    127 H127      -49.2623  -21.5455   14.7338 H         1 UNK         0.0897 
    128 H128      -47.5500  -20.5968   13.1987 H         1 UNK         0.0792 
    129 H129      -46.9159  -20.7006   14.8328 H         1 UNK         0.0792 
    130 H130      -46.4191  -21.8805   13.6278 H         1 UNK         0.0792 
    131 H131      -48.3012  -22.9668   12.4252 H         1 UNK         0.3086 
    132 H132      -50.9907  -25.2682   12.2102 H         1 UNK         0.0583 
    133 H133      -52.1105  -23.2112   11.3809 H         1 UNK         0.1020 
    134 H134      -50.6324  -22.6692   10.6339 H         1 UNK         0.1020 
    135 H135      -53.0991  -25.4387   11.0388 H         1 UNK         0.0694 
    136 H136      -53.9225  -25.1289    9.5333 H         1 UNK         0.0694 
    137 H137      -48.9178  -24.6604   10.3833 H         1 UNK         0.2989 
    138 H138      -46.3240  -26.5223   11.8776 H         1 UNK         0.1055 
    139 H139      -47.7236  -28.4570   11.1644 H         1 UNK         0.0806 
    140 H140      -46.4957  -28.1039    9.9665 H         1 UNK         0.0806 
    141 H141      -48.1725  -27.6201    9.6840 H         1 UNK         0.0806 
    142 H142      -46.6748  -25.6641    9.1837 H         1 UNK         0.3061 
    143 H143      -45.8887  -22.2548    9.5584 H         1 UNK         0.0734 
    144 H144      -43.6247  -23.3090    9.7316 H         1 UNK         0.0832 
    145 H145      -44.0811  -24.5183    8.5389 H         1 UNK         0.0832 
    146 H146      -43.9705  -22.8187    8.0815 H         1 UNK         0.0832 
    147 H147      -46.1595  -23.9722    7.2639 H         1 UNK         0.3156 
    148 H148      -49.7130  -23.7687    6.9969 H         1 UNK         0.0589 
    149 H149      -47.4251  -22.6698    5.2839 H         1 UNK         0.0808 
    150 H150      -49.0461  -23.0618    4.7130 H         1 UNK         0.0808 
    151 H151      -48.8091  -21.7687    5.8776 H         1 UNK         0.0808 
    152 H152      -49.0998  -25.7969    6.4679 H         1 UNK         0.3098 
    153 H153      -46.7374  -27.2598    4.5334 H         1 UNK         0.0720 
    154 H154      -45.1994  -27.4301    6.4912 H         1 UNK         0.0791 
    155 H155      -46.0876  -28.9249    6.2611 H         1 UNK         0.0791 
    156 H156      -46.5538  -27.8102    7.5446 H         1 UNK         0.0791 
    157 H157      -48.6492  -28.3883    6.3917 H         1 UNK         0.3028 
@<TRIPOS>BOND
     1    1    2 1    
     2    1   82 1    
     3    1   83 1    
     4    1   84 1    
     5    2    3 2    
     6    2    4 am   BACKBONE|DICT|INTERRES
     7    4    5 1    
     8    4   85 1    
     9    5    6 1    
    10    5   80 1    
    11    5   86 1    
    12    6    7 1    
    13    6   87 1    
    14    6   88 1    
    15    7    8 1    
    16    8    9 1    
    17    8   89 1    
    18    8   90 1    
    19    9   10 ar   
    20    9   14 ar   
    21   10   11 ar   
    22   10   91 1    
    23   11   12 ar   
    24   11   58 1    
    25   12   13 ar   
    26   12   92 1    
    27   13   14 ar   
    28   13   15 1    
    29   14   93 1    
    30   15   16 1    
    31   15   94 1    
    32   15   95 1    
    33   16   17 1    
    34   17   18 1    
    35   17   96 1    
    36   17   97 1    
    37   18   19 1    
    38   18   22 1    
    39   18   98 1    
    40   19   20 am   BACKBONE|DICT|INTERRES
    41   19   21 2    
    42   20   99 1    
    43   20  100 1    
    44   22   23 am   BACKBONE|DICT|INTERRES
    45   22  101 1    
    46   23   24 2    
    47   23   25 1    
    48   25   26 1    
    49   25   27 1    
    50   25  102 1    
    51   26  103 1    
    52   26  104 1    
    53   26  105 1    
    54   27   28 am   BACKBONE|DICT|INTERRES
    55   27  106 1    
    56   28   29 2    
    57   28   30 1    
    58   30   31 1    
    59   30   32 1    
    60   30  107 1    
    61   31  108 1    
    62   31  109 1    
    63   31  110 1    
    64   32   33 am   BACKBONE|DICT|INTERRES
    65   32  111 1    
    66   33   34 2    
    67   33   35 1    
    68   35   36 1    
    69   35   37 1    
    70   35  112 1    
    71   36  113 1    
    72   36  114 1    
    73   36  115 1    
    74   37   38 am   BACKBONE|DICT|INTERRES
    75   37  116 1    
    76   38   39 2    
    77   38   40 1    
    78   40   41 1    
    79   40   42 1    
    80   40  117 1    
    81   41  118 1    
    82   41  119 1    
    83   41  120 1    
    84   42   43 am   BACKBONE|DICT|INTERRES
    85   42  121 1    
    86   43   44 2    
    87   43   45 1    
    88   45   46 1    
    89   45   47 1    
    90   45  122 1    
    91   46  123 1    
    92   46  124 1    
    93   46  125 1    
    94   47   48 am   BACKBONE|DICT|INTERRES
    95   47  126 1    
    96   48   49 2    
    97   48   50 1    
    98   50   51 1    
    99   50   52 1    
   100   50  127 1    
   101   51  128 1    
   102   51  129 1    
   103   51  130 1    
   104   52   53 am   BACKBONE|DICT|INTERRES
   105   52  131 1    
   106   53   54 2    
   107   53   55 1    
   108   55   56 1    
   109   55   59 1    
   110   55  132 1    
   111   56   57 1    
   112   56  133 1    
   113   56  134 1    
   114   57   58 1    
   115   58  135 1    
   116   58  136 1    
   117   59   60 am   BACKBONE|DICT|INTERRES
   118   59  137 1    
   119   60   61 2    
   120   60   62 1    
   121   62   63 1    
   122   62   64 1    
   123   62  138 1    
   124   63  139 1    
   125   63  140 1    
   126   63  141 1    
   127   64   65 am   BACKBONE|DICT|INTERRES
   128   64  142 1    
   129   65   66 2    
   130   65   67 1    
   131   67   68 1    
   132   67   69 1    
   133   67  143 1    
   134   68  144 1    
   135   68  145 1    
   136   68  146 1    
   137   69   70 am   BACKBONE|DICT|INTERRES
   138   69  147 1    
   139   70   71 2    
   140   70   72 1    
   141   72   73 1    
   142   72   74 1    
   143   72  148 1    
   144   73  149 1    
   145   73  150 1    
   146   73  151 1    
   147   74   75 am   BACKBONE|DICT|INTERRES
   148   74  152 1    
   149   75   76 2    
   150   75   77 1    
   151   77   78 1    
   152   77   79 1    
   153   77  153 1    
   154   78  154 1    
   155   78  155 1    
   156   78  156 1    
   157   79   80 am   BACKBONE|DICT|INTERRES
   158   79  157 1    
   159   80   81 2    
@<TRIPOS>SUBSTRUCTURE
     1 UNK         1 GROUP             0       ****    0 ROOT    
