@<TRIPOS>MOLECULE
3R207
157   159    1
SMALL
USER_CHARGES


@<TRIPOS>ATOM
      1 CA        -52.3946  -23.1382    6.4516 C.3       0 UNK        -0.1975 
      2 C         -51.3620  -23.9454    7.2231 C.2       0 UNK         0.4852 
      3 O         -50.3374  -24.3225    6.6547 O.2       0 UNK        -0.5216 
      4 N         -51.6167  -24.1924    8.5170 N.am      1 UNK        -0.4461 
      5 CA        -50.7916  -24.9991    9.4309 C.3       1 UNK         0.0864 
      6 C6        -50.8225  -26.5150    9.1005 C.3       14 UNK        -0.0898 
      7 S7        -52.5125  -27.1970    9.0541 S.3       14 UNK        -0.2598 
      8 C8        -52.2042  -28.8424    8.3365 C.3       14 UNK         0.0286 
      9 C9        -51.6820  -29.8138    9.3839 C.ar      14 UNK        -0.0844 
     10 C10       -50.3083  -30.0196    9.5445 C.ar      14 UNK        -0.0881 
     11 C11       -49.8302  -30.8748   10.5435 C.ar      14 UNK        -0.0643 
     12 C12       -50.7410  -31.5484   11.3654 C.ar      14 UNK        -0.0930 
     13 C13       -52.1175  -31.3658   11.1983 C.ar      14 UNK        -0.0827 
     14 C14       -52.5809  -30.4997   10.2046 C.ar      14 UNK        -0.1249 
     15 C15       -53.1115  -32.0812   12.0990 C.3       14 UNK         0.0141 
     16 S16       -53.5787  -31.0270   13.5039 S.3       14 UNK        -0.2313 
     17 C17       -55.0745  -31.8717   14.1035 C.3       14 UNK        -0.0915 
     18 CA        -56.3777  -31.3079   13.4772 C.3       13 UNK         0.0968 
     19 C         -57.6003  -32.1203   13.9889 C.2       13 UNK         0.5732 
     20 N         -57.9934  -33.1676   13.2767 N.am      13 UNK        -0.7310 
     21 O         -58.1625  -31.8363   15.0455 O.2       13 UNK        -0.5035 
     22 N         -56.5097  -29.8575   13.6992 N.am      13 UNK        -0.4233 
     23 C         -57.5071  -29.0913   13.2365 C.2       13 UNK         0.4989 
     24 O         -58.3984  -29.4943   12.4877 O.2       13 UNK        -0.4996 
     25 CA        -57.5021  -27.6201   13.6712 C.3       12 UNK         0.0216 
     26 CB        -57.3648  -27.4611   15.1975 C.3       12 UNK        -0.1964 
     27 N         -56.4256  -26.8937   13.0011 N.am      12 UNK        -0.4276 
     28 C         -56.5513  -26.2422   11.8346 C.2       12 UNK         0.5020 
     29 O         -57.6010  -26.2061   11.1894 O.2       12 UNK        -0.5489 
     30 CA        -55.3062  -25.5025   11.2914 C.3       11 UNK         0.0294 
     31 CB        -55.6665  -24.2715   10.4327 C.3       11 UNK        -0.2019 
     32 N         -54.3303  -25.1499   12.3305 N.am      11 UNK        -0.4493 
     33 C         -54.5221  -24.3713   13.4083 C.2       11 UNK         0.4932 
     34 O         -55.5251  -23.6782   13.5818 O.2       11 UNK        -0.5029 
     35 CA        -53.4245  -24.4024   14.4974 C.3       10 UNK         0.0280 
     36 CB        -54.0248  -24.3201   15.9164 C.3       10 UNK        -0.1976 
     37 N         -52.5029  -25.5468   14.4111 N.am      10 UNK        -0.4242 
     38 C         -52.8162  -26.8554   14.4170 C.2       10 UNK         0.5072 
     39 O         -53.9684  -27.2881   14.4829 O.2       10 UNK        -0.5224 
     40 CA        -51.6573  -27.8480   14.2392 C.3       9 UNK         0.0343 
     41 CB        -51.5097  -28.1762   12.7467 C.3       9 UNK        -0.2003 
     42 N         -50.3795  -27.3461   14.7468 N.am      9 UNK        -0.4272 
     43 C         -50.1095  -27.1282   16.0438 C.2       9 UNK         0.4988 
     44 O         -50.8814  -27.4227   16.9571 O.2       9 UNK        -0.5108 
     45 CA        -48.7676  -26.4561   16.3998 C.3       8 UNK         0.0248 
     46 CB        -47.7755  -27.4981   16.9424 C.3       8 UNK        -0.2001 
     47 N         -48.1363  -25.7286   15.2950 N.am      8 UNK        -0.4140 
     48 C         -48.6642  -24.6877   14.6348 C.2       8 UNK         0.5028 
     49 O         -49.7517  -24.1778   14.9084 O.2       8 UNK        -0.5428 
     50 CA        -47.8770  -24.1772   13.4140 C.3       7 UNK         0.0264 
     51 CB        -46.9448  -23.0227   13.8135 C.3       7 UNK        -0.1988 
     52 N         -47.1035  -25.2126   12.7115 N.am      7 UNK        -0.4454 
     53 C         -47.6199  -26.3340   12.1816 C.2       7 UNK         0.5027 
     54 O         -48.8064  -26.6388   12.2949 O.2       7 UNK        -0.5083 
     55 CA        -46.6596  -27.2172   11.3620 C.3       6 UNK         0.0844 
     56 C56       -47.3392  -28.4454   10.7026 C.3       14 UNK        -0.0967 
     57 S57       -47.6081  -29.8335   11.8548 S.3       14 UNK        -0.2604 
     58 C58       -48.3329  -31.0779   10.7363 C.3       14 UNK         0.0134 
     59 N         -46.0451  -26.3667   10.3472 N.am      6 UNK        -0.4116 
     60 C         -44.7352  -26.2494   10.1026 C.2       5 UNK         0.5034 
     61 O         -43.8653  -26.8551   10.7308 O.2       5 UNK        -0.5045 
     62 CA        -44.3328  -25.2726    8.9797 C.3       5 UNK         0.0224 
     63 CB        -42.9112  -25.5268    8.4333 C.3       5 UNK        -0.1978 
     64 N         -45.3180  -25.2080    7.8920 N.am      5 UNK        -0.4737 
     65 C         -45.6746  -26.1878    7.0454 C.2       4 UNK         0.5027 
     66 O         -45.1610  -27.3069    7.0444 O.2       4 UNK        -0.5211 
     67 CA        -46.8116  -25.8947    6.0432 C.3       4 UNK         0.0297 
     68 CB        -47.9392  -26.9292    6.1968 C.3       4 UNK        -0.1993 
     69 N         -47.3811  -24.5518    6.1886 N.am      4 UNK        -0.4486 
     70 C         -46.8445  -23.4272    5.6951 C.2       3 UNK         0.4961 
     71 O         -45.8514  -23.4034    4.9682 O.2       3 UNK        -0.5105 
     72 CA        -47.4899  -22.0997    6.1338 C.3       3 UNK         0.0299 
     73 CB        -48.5962  -21.6748    5.1547 C.3       3 UNK        -0.1972 
     74 N         -48.0218  -22.1542    7.5009 N.am      3 UNK        -0.4305 
     75 C         -47.2626  -22.2573    8.6031 C.2       2 UNK         0.5006 
     76 O         -46.0323  -22.2738    8.5824 O.2       2 UNK        -0.5106 
     77 CA        -47.9827  -22.4154    9.9541 C.3       2 UNK         0.0296 
     78 CB        -48.2199  -21.0470   10.6112 C.3       2 UNK        -0.2002 
     79 N         -49.2505  -23.1447    9.8634 N.am      2 UNK        -0.4032 
     80 C         -49.3542  -24.4398    9.5308 C.2       1 UNK         0.5000 
     81 O         -48.3795  -25.1469    9.2623 O.2       1 UNK        -0.5238 
     82 H82       -53.2552  -22.8792    7.0679 H         1 UNK         0.0889 
     83 H83       -52.7507  -23.7111    5.5959 H         1 UNK         0.0889 
     84 H84       -51.9497  -22.2148    6.0819 H         1 UNK         0.0889 
     85 H85       -52.4795  -23.8481    8.9131 H         1 UNK         0.3028 
     86 H86       -51.2240  -24.8799   10.4257 H         1 UNK         0.0864 
     87 H87       -50.3508  -26.7044    8.1366 H         1 UNK         0.0720 
     88 H88       -50.2578  -27.0741    9.8467 H         1 UNK         0.0720 
     89 H89       -51.5093  -28.7622    7.4991 H         1 UNK         0.0814 
     90 H90       -53.1376  -29.2228    7.9190 H         1 UNK         0.0814 
     91 H91       -49.6119  -29.4995    8.9023 H         1 UNK         0.1469 
     92 H92       -50.3778  -32.2059   12.1434 H         1 UNK         0.1381 
     93 H93       -53.6440  -30.3392   10.0869 H         1 UNK         0.1206 
     94 H94       -52.6918  -33.0175   12.4697 H         1 UNK         0.0813 
     95 H95       -54.0012  -32.3448   11.5250 H         1 UNK         0.0813 
     96 H96       -55.1005  -31.7689   15.1900 H         1 UNK         0.0638 
     97 H97       -54.9772  -32.9405   13.9027 H         1 UNK         0.0638 
     98 H98       -56.3186  -31.4470   12.3961 H         1 UNK         0.0568 
     99 H99       -57.5325  -33.4176   12.4157 H         1 UNK         0.3450 
    100 H100      -58.7742  -33.7151   13.6031 H         1 UNK         0.3450 
    101 H101      -55.8031  -29.4373   14.2851 H         1 UNK         0.2987 
    102 H102      -58.4652  -27.1896   13.3875 H         1 UNK         0.0766 
    103 H103      -57.4749  -26.4171   15.4919 H         1 UNK         0.0798 
    104 H104      -56.3992  -27.8052   15.5687 H         1 UNK         0.0798 
    105 H105      -58.1373  -28.0274   15.7196 H         1 UNK         0.0798 
    106 H106      -55.5166  -26.9146   13.4599 H         1 UNK         0.3198 
    107 H107      -54.8062  -26.2196   10.6401 H         1 UNK         0.0843 
    108 H108      -56.2470  -23.5409   10.9965 H         1 UNK         0.0831 
    109 H109      -54.7735  -23.7737   10.0565 H         1 UNK         0.0831 
    110 H110      -56.2633  -24.5602    9.5667 H         1 UNK         0.0831 
    111 H111      -53.4681  -25.6744   12.3022 H         1 UNK         0.3133 
    112 H112      -52.8146  -23.5117   14.3404 H         1 UNK         0.0566 
    113 H113      -54.6973  -25.1549   16.1181 H         1 UNK         0.0814 
    114 H114      -53.2443  -24.3272   16.6773 H         1 UNK         0.0814 
    115 H115      -54.5968  -23.4013   16.0510 H         1 UNK         0.0814 
    116 H116      -51.5194  -25.2984   14.3765 H         1 UNK         0.3091 
    117 H117      -51.9068  -28.7632   14.7793 H         1 UNK         0.0702 
    118 H118      -50.7129  -28.8991   12.5740 H         1 UNK         0.0785 
    119 H119      -51.2900  -27.2896   12.1527 H         1 UNK         0.0785 
    120 H120      -52.4294  -28.6006   12.3449 H         1 UNK         0.0785 
    121 H121      -49.6931  -27.0886   14.0437 H         1 UNK         0.2998 
    122 H122      -48.9724  -25.7319   17.1910 H         1 UNK         0.0697 
    123 H123      -47.5138  -28.2383   16.1850 H         1 UNK         0.0825 
    124 H124      -48.2000  -28.0373   17.7907 H         1 UNK         0.0825 
    125 H125      -46.8545  -27.0293   17.2893 H         1 UNK         0.0825 
    126 H126      -47.2435  -26.0777   14.9789 H         1 UNK         0.3029 
    127 H127      -48.6133  -23.7903   12.7070 H         1 UNK         0.0897 
    128 H128      -47.5018  -22.2262   14.3092 H         1 UNK         0.0792 
    129 H129      -46.4595  -22.5803   12.9436 H         1 UNK         0.0792 
    130 H130      -46.1656  -23.3522   14.5020 H         1 UNK         0.0792 
    131 H131      -46.1193  -25.0305   12.5759 H         1 UNK         0.3086 
    132 H132      -45.8954  -27.5725   12.0562 H         1 UNK         0.0583 
    133 H133      -48.2795  -28.1613   10.2327 H         1 UNK         0.1020 
    134 H134      -46.7076  -28.8205    9.8952 H         1 UNK         0.1020 
    135 H135      -47.8197  -31.0588    9.7736 H         1 UNK         0.0694 
    136 H136      -48.1478  -32.0683   11.1549 H         1 UNK         0.0694 
    137 H137      -46.7080  -25.8260    9.7942 H         1 UNK         0.2989 
    138 H138      -44.3291  -24.2831    9.4398 H         1 UNK         0.1055 
    139 H139      -42.1645  -25.4176    9.2208 H         1 UNK         0.0806 
    140 H140      -42.6559  -24.8165    7.6469 H         1 UNK         0.0806 
    141 H141      -42.8054  -26.5325    8.0256 H         1 UNK         0.0806 
    142 H142      -45.8053  -24.3235    7.8123 H         1 UNK         0.3061 
    143 H143      -46.3960  -25.9905    5.0380 H         1 UNK         0.0734 
    144 H144      -48.7911  -26.6963    5.5576 H         1 UNK         0.0832 
    145 H145      -47.5924  -27.9274    5.9271 H         1 UNK         0.0832 
    146 H146      -48.2916  -26.9787    7.2265 H         1 UNK         0.0832 
    147 H147      -48.2390  -24.4828    6.7282 H         1 UNK         0.3156 
    148 H148      -46.7121  -21.3332    6.1112 H         1 UNK         0.0589 
    149 H149      -49.3999  -22.4090    5.1021 H         1 UNK         0.0808 
    150 H150      -49.0322  -20.7165    5.4372 H         1 UNK         0.0808 
    151 H151      -48.1967  -21.5627    4.1459 H         1 UNK         0.0808 
    152 H152      -49.0258  -22.1842    7.5984 H         1 UNK         0.3098 
    153 H153      -47.3181  -22.9902   10.6021 H         1 UNK         0.0720 
    154 H154      -48.6404  -21.1542   11.6114 H         1 UNK         0.0791 
    155 H155      -48.8991  -20.4275   10.0242 H         1 UNK         0.0791 
    156 H156      -47.2834  -20.4968   10.7140 H         1 UNK         0.0791 
    157 H157      -50.0948  -22.6199   10.0421 H         1 UNK         0.3028 
@<TRIPOS>BOND
     1    1    2 1    
     2    1   82 1    
     3    1   83 1    
     4    1   84 1    
     5    2    3 2    
     6    2    4 am   BACKBONE|DICT|INTERRES
     7    4    5 1    
     8    4   85 1    
     9    5    6 1    
    10    5   80 1    
    11    5   86 1    
    12    6    7 1    
    13    6   87 1    
    14    6   88 1    
    15    7    8 1    
    16    8    9 1    
    17    8   89 1    
    18    8   90 1    
    19    9   10 ar   
    20    9   14 ar   
    21   10   11 ar   
    22   10   91 1    
    23   11   12 ar   
    24   11   58 1    
    25   12   13 ar   
    26   12   92 1    
    27   13   14 ar   
    28   13   15 1    
    29   14   93 1    
    30   15   16 1    
    31   15   94 1    
    32   15   95 1    
    33   16   17 1    
    34   17   18 1    
    35   17   96 1    
    36   17   97 1    
    37   18   19 1    
    38   18   22 1    
    39   18   98 1    
    40   19   20 am   BACKBONE|DICT|INTERRES
    41   19   21 2    
    42   20   99 1    
    43   20  100 1    
    44   22   23 am   BACKBONE|DICT|INTERRES
    45   22  101 1    
    46   23   24 2    
    47   23   25 1    
    48   25   26 1    
    49   25   27 1    
    50   25  102 1    
    51   26  103 1    
    52   26  104 1    
    53   26  105 1    
    54   27   28 am   BACKBONE|DICT|INTERRES
    55   27  106 1    
    56   28   29 2    
    57   28   30 1    
    58   30   31 1    
    59   30   32 1    
    60   30  107 1    
    61   31  108 1    
    62   31  109 1    
    63   31  110 1    
    64   32   33 am   BACKBONE|DICT|INTERRES
    65   32  111 1    
    66   33   34 2    
    67   33   35 1    
    68   35   36 1    
    69   35   37 1    
    70   35  112 1    
    71   36  113 1    
    72   36  114 1    
    73   36  115 1    
    74   37   38 am   BACKBONE|DICT|INTERRES
    75   37  116 1    
    76   38   39 2    
    77   38   40 1    
    78   40   41 1    
    79   40   42 1    
    80   40  117 1    
    81   41  118 1    
    82   41  119 1    
    83   41  120 1    
    84   42   43 am   BACKBONE|DICT|INTERRES
    85   42  121 1    
    86   43   44 2    
    87   43   45 1    
    88   45   46 1    
    89   45   47 1    
    90   45  122 1    
    91   46  123 1    
    92   46  124 1    
    93   46  125 1    
    94   47   48 am   BACKBONE|DICT|INTERRES
    95   47  126 1    
    96   48   49 2    
    97   48   50 1    
    98   50   51 1    
    99   50   52 1    
   100   50  127 1    
   101   51  128 1    
   102   51  129 1    
   103   51  130 1    
   104   52   53 am   BACKBONE|DICT|INTERRES
   105   52  131 1    
   106   53   54 2    
   107   53   55 1    
   108   55   56 1    
   109   55   59 1    
   110   55  132 1    
   111   56   57 1    
   112   56  133 1    
   113   56  134 1    
   114   57   58 1    
   115   58  135 1    
   116   58  136 1    
   117   59   60 am   BACKBONE|DICT|INTERRES
   118   59  137 1    
   119   60   61 2    
   120   60   62 1    
   121   62   63 1    
   122   62   64 1    
   123   62  138 1    
   124   63  139 1    
   125   63  140 1    
   126   63  141 1    
   127   64   65 am   BACKBONE|DICT|INTERRES
   128   64  142 1    
   129   65   66 2    
   130   65   67 1    
   131   67   68 1    
   132   67   69 1    
   133   67  143 1    
   134   68  144 1    
   135   68  145 1    
   136   68  146 1    
   137   69   70 am   BACKBONE|DICT|INTERRES
   138   69  147 1    
   139   70   71 2    
   140   70   72 1    
   141   72   73 1    
   142   72   74 1    
   143   72  148 1    
   144   73  149 1    
   145   73  150 1    
   146   73  151 1    
   147   74   75 am   BACKBONE|DICT|INTERRES
   148   74  152 1    
   149   75   76 2    
   150   75   77 1    
   151   77   78 1    
   152   77   79 1    
   153   77  153 1    
   154   78  154 1    
   155   78  155 1    
   156   78  156 1    
   157   79   80 am   BACKBONE|DICT|INTERRES
   158   79  157 1    
   159   80   81 2    
@<TRIPOS>SUBSTRUCTURE
     1 UNK         1 GROUP             0       ****    0 ROOT    
