@<TRIPOS>MOLECULE
3R207
157   159    1
SMALL
USER_CHARGES


@<TRIPOS>ATOM
      1 CA        -48.9445  -26.8669    0.6311 C.3       0 UNK        -0.1975 
      2 C         -48.7051  -26.7687    2.1298 C.2       0 UNK         0.4852 
      3 O         -47.7170  -27.3105    2.6259 O.2       0 UNK        -0.5216 
      4 N         -49.5870  -26.0592    2.8518 N.am      1 UNK        -0.4461 
      5 CA        -49.5807  -25.8861    4.3144 C.3       1 UNK         0.0864 
      6 C6        -49.9940  -27.1911    5.0505 C.3       14 UNK        -0.0898 
      7 S7        -50.7706  -26.8640    6.6655 S.3       14 UNK        -0.2598 
      8 C8        -51.3469  -28.5298    7.1077 C.3       14 UNK         0.0286 
      9 C9        -51.6377  -28.6053    8.5967 C.ar      14 UNK        -0.0844 
     10 C10       -50.6322  -29.0031    9.4807 C.ar      14 UNK        -0.0881 
     11 C11       -50.8602  -29.0127   10.8585 C.ar      14 UNK        -0.0643 
     12 C12       -52.1211  -28.6603   11.3481 C.ar      14 UNK        -0.0930 
     13 C13       -53.1412  -28.2708   10.4730 C.ar      14 UNK        -0.0827 
     14 C14       -52.8928  -28.2456    9.0967 C.ar      14 UNK        -0.1249 
     15 C15       -54.5143  -27.8927   11.0110 C.3       14 UNK         0.0141 
     16 S16       -54.4368  -26.5454   12.2363 S.3       14 UNK        -0.2313 
     17 C17       -56.1713  -26.4994   12.8042 C.3       14 UNK        -0.0915 
     18 CA        -56.3544  -27.0298   14.2580 C.3       13 UNK         0.0968 
     19 C         -57.7938  -26.8049   14.8127 C.2       13 UNK         0.5732 
     20 N         -58.3097  -27.6667   15.6823 N.am      13 UNK        -0.7310 
     21 O         -58.4500  -25.8229   14.4728 O.2       13 UNK        -0.5035 
     22 N         -55.8326  -28.3928   14.4611 N.am      13 UNK        -0.4233 
     23 C         -56.2614  -29.5154   13.8656 C.2       13 UNK         0.4989 
     24 O         -57.1747  -29.5482   13.0404 O.2       13 UNK        -0.4996 
     25 CA        -55.5469  -30.8335   14.2265 C.3       12 UNK         0.0216 
     26 CB        -54.6063  -31.2672   13.0895 C.3       12 UNK        -0.1964 
     27 N         -54.7829  -30.7670   15.4747 N.am      12 UNK        -0.4276 
     28 C         -55.3249  -30.7577   16.6994 C.2       12 UNK         0.5020 
     29 O         -56.5323  -30.8707   16.9150 O.2       12 UNK        -0.5489 
     30 CA        -54.3596  -30.5487   17.8817 C.3       11 UNK         0.0294 
     31 CB        -53.8567  -31.9022   18.4093 C.3       11 UNK        -0.2019 
     32 N         -53.2093  -29.6791   17.5896 N.am      11 UNK        -0.4493 
     33 C         -53.2944  -28.4104   17.1653 C.2       11 UNK         0.4932 
     34 O         -54.3552  -27.8616   16.8650 O.2       11 UNK        -0.5029 
     35 CA        -51.9718  -27.6410   17.0056 C.3       10 UNK         0.0280 
     36 CB        -51.4103  -27.8466   15.5880 C.3       10 UNK        -0.1976 
     37 N         -52.1523  -26.2060   17.2492 N.am      10 UNK        -0.4242 
     38 C         -52.5288  -25.6718   18.4243 C.2       10 UNK         0.5072 
     39 O         -52.6205  -26.3233   19.4667 O.2       10 UNK        -0.5224 
     40 CA        -52.8551  -24.1639   18.4714 C.3       9 UNK         0.0343 
     41 CB        -51.7249  -23.3900   19.1706 C.3       9 UNK        -0.2003 
     42 N         -53.0865  -23.5705   17.1547 N.am      9 UNK        -0.4272 
     43 C         -54.1401  -23.8093   16.3604 C.2       9 UNK         0.4988 
     44 O         -55.1353  -24.4375   16.7197 O.2       9 UNK        -0.5108 
     45 CA        -54.0696  -23.2730   14.9135 C.3       8 UNK         0.0248 
     46 CB        -55.1171  -22.1694   14.6916 C.3       8 UNK        -0.2001 
     47 N         -52.7477  -22.7730   14.5031 N.am      8 UNK        -0.4140 
     48 C         -51.6350  -23.5154   14.4202 C.2       8 UNK         0.5028 
     49 O         -51.5929  -24.7150   14.7057 O.2       8 UNK        -0.5428 
     50 CA        -50.3398  -22.7746   14.0558 C.3       7 UNK         0.0264 
     51 CB        -49.7469  -22.0956   15.3026 C.3       7 UNK        -0.1988 
     52 N         -49.3647  -23.7291   13.5318 N.am      7 UNK        -0.4454 
     53 C         -49.2574  -24.0603   12.2412 C.2       7 UNK         0.5027 
     54 O         -49.8447  -23.4741   11.3274 O.2       7 UNK        -0.5083 
     55 CA        -48.4009  -25.3042   11.9343 C.3       6 UNK         0.0844 
     56 C56       -49.2969  -26.5636   12.0023 C.3       14 UNK        -0.0967 
     57 S57       -48.3781  -28.1170   11.7339 S.3       14 UNK        -0.2604 
     58 C58       -49.7260  -29.3453   11.8183 C.3       14 UNK         0.0134 
     59 N         -47.7269  -25.1730   10.6392 N.am      6 UNK        -0.4116 
     60 C         -46.7355  -24.3119   10.3734 C.2       5 UNK         0.5034 
     61 O         -46.2454  -23.5572   11.2166 O.2       5 UNK        -0.5045 
     62 CA        -46.2079  -24.2878    8.9230 C.3       5 UNK         0.0224 
     63 CB        -44.8090  -23.6464    8.8028 C.3       5 UNK        -0.1978 
     64 N         -46.2315  -25.5965    8.2565 N.am      5 UNK        -0.4737 
     65 C         -45.5967  -26.7189    8.6308 C.2       4 UNK         0.5027 
     66 O         -44.8906  -26.8173    9.6341 O.2       4 UNK        -0.5211 
     67 CA        -45.7682  -27.9345    7.7096 C.3       4 UNK         0.0297 
     68 CB        -47.1645  -28.5545    7.8782 C.3       4 UNK        -0.1993 
     69 N         -45.5642  -27.5519    6.3121 N.am      4 UNK        -0.4486 
     70 C         -44.3963  -27.6487    5.6606 C.2       3 UNK         0.4961 
     71 O         -43.3804  -28.1490    6.1449 O.2       3 UNK        -0.5105 
     72 CA        -44.3398  -27.0992    4.2225 C.3       3 UNK         0.0299 
     73 CB        -44.5757  -28.2289    3.2076 C.3       3 UNK        -0.1972 
     74 N         -45.3014  -26.0185    3.9891 N.am      3 UNK        -0.4305 
     75 C         -45.1616  -24.7761    4.4809 C.2       2 UNK         0.5006 
     76 O         -44.1562  -24.3952    5.0809 O.2       2 UNK        -0.5106 
     77 CA        -46.3295  -23.7842    4.2993 C.3       2 UNK         0.0296 
     78 CB        -46.0156  -22.7891    3.1701 C.3       2 UNK        -0.2002 
     79 N         -47.6330  -24.4041    4.0405 N.am      2 UNK        -0.4032 
     80 C         -48.2607  -25.2726    4.8478 C.2       1 UNK         0.5000 
     81 O         -47.7996  -25.6256    5.9356 O.2       1 UNK        -0.5238 
     82 H82       -49.0504  -27.9110    0.3379 H         1 UNK         0.0889 
     83 H83       -48.0993  -26.4446    0.0883 H         1 UNK         0.0889 
     84 H84       -49.8455  -26.3354    0.3253 H         1 UNK         0.0889 
     85 H85       -50.3646  -25.6229    2.3745 H         1 UNK         0.3028 
     86 H86       -50.3471  -25.1343    4.5101 H         1 UNK         0.0864 
     87 H87       -50.7233  -27.7397    4.4521 H         1 UNK         0.0720 
     88 H88       -49.1436  -27.8641    5.1773 H         1 UNK         0.0720 
     89 H89       -50.5884  -29.2665    6.8377 H         1 UNK         0.0814 
     90 H90       -52.2393  -28.7746    6.5298 H         1 UNK         0.0814 
     91 H91       -49.6560  -29.2669    9.1010 H         1 UNK         0.1469 
     92 H92       -52.3041  -28.6604   12.4136 H         1 UNK         0.1381 
     93 H93       -53.6702  -27.9344    8.4122 H         1 UNK         0.1206 
     94 H94       -54.9648  -28.7766   11.4581 H         1 UNK         0.0813 
     95 H95       -55.1770  -27.5875   10.1997 H         1 UNK         0.0813 
     96 H96       -56.4908  -25.4579   12.7416 H         1 UNK         0.0638 
     97 H97       -56.8075  -27.0480   12.1084 H         1 UNK         0.0638 
     98 H98       -55.7307  -26.4027   14.8948 H         1 UNK         0.0568 
     99 H99       -57.7785  -28.4691   15.9833 H         1 UNK         0.3450 
    100 H100      -59.2372  -27.5087   16.0426 H         1 UNK         0.3450 
    101 H101      -55.1323  -28.4577   15.1923 H         1 UNK         0.2987 
    102 H102      -56.3190  -31.5980   14.3373 H         1 UNK         0.0766 
    103 H103      -54.1707  -32.2468   13.2869 H         1 UNK         0.0798 
    104 H104      -53.7895  -30.5595   12.9478 H         1 UNK         0.0798 
    105 H105      -55.1428  -31.3397   12.1423 H         1 UNK         0.0798 
    106 H106      -53.7806  -30.6733   15.3975 H         1 UNK         0.3198 
    107 H107      -54.9317  -30.0660   18.6771 H         1 UNK         0.0843 
    108 H108      -53.2403  -32.4203   17.6735 H         1 UNK         0.0831 
    109 H109      -54.6921  -32.5599   18.6544 H         1 UNK         0.0831 
    110 H110      -53.2672  -31.7814   19.3183 H         1 UNK         0.0831 
    111 H111      -52.2956  -30.0567   17.7985 H         1 UNK         0.3133 
    112 H112      -51.2501  -28.0198   17.7320 H         1 UNK         0.0566 
    113 H113      -50.4625  -27.3239   15.4579 H         1 UNK         0.0814 
    114 H114      -51.2279  -28.9020   15.3830 H         1 UNK         0.0814 
    115 H115      -52.0989  -27.4784   14.8255 H         1 UNK         0.0814 
    116 H116      -52.0939  -25.6055   16.4318 H         1 UNK         0.3091 
    117 H117      -53.7677  -24.0474   19.0595 H         1 UNK         0.0702 
    118 H118      -51.5473  -23.7801   20.1739 H         1 UNK         0.0785 
    119 H119      -50.7851  -23.4637   18.6217 H         1 UNK         0.0785 
    120 H120      -51.9722  -22.3335   19.2757 H         1 UNK         0.0785 
    121 H121      -52.3272  -23.0301   16.7692 H         1 UNK         0.2998 
    122 H122      -54.3169  -24.1112   14.2588 H         1 UNK         0.0697 
    123 H123      -54.9169  -21.2926   15.3087 H         1 UNK         0.0825 
    124 H124      -56.1178  -22.5239   14.9441 H         1 UNK         0.0825 
    125 H125      -55.1448  -21.8507   13.6495 H         1 UNK         0.0825 
    126 H126      -52.6920  -21.7896   14.2775 H         1 UNK         0.3029 
    127 H127      -50.5618  -22.0118   13.3058 H         1 UNK         0.0897 
    128 H128      -48.8130  -21.5847   15.0666 H         1 UNK         0.0792 
    129 H129      -49.5420  -22.8137   16.0981 H         1 UNK         0.0792 
    130 H130      -50.4285  -21.3457   15.7062 H         1 UNK         0.0792 
    131 H131      -48.9012  -24.3062   14.2192 H         1 UNK         0.3086 
    132 H132      -47.6277  -25.3888   12.7012 H         1 UNK         0.0583 
    133 H133      -49.7958  -26.6326   12.9717 H         1 UNK         0.1020 
    134 H134      -50.0924  -26.4870   11.2580 H         1 UNK         0.1020 
    135 H135      -49.3261  -30.3312   11.5779 H         1 UNK         0.0694 
    136 H136      -50.0897  -29.4002   12.8456 H         1 UNK         0.0694 
    137 H137      -48.0720  -25.7573    9.8931 H         1 UNK         0.2989 
    138 H138      -46.9043  -23.6572    8.3679 H         1 UNK         0.1055 
    139 H139      -44.8145  -22.6190    9.1688 H         1 UNK         0.0806 
    140 H140      -44.4747  -23.6166    7.7658 H         1 UNK         0.0806 
    141 H141      -44.0630  -24.1937    9.3798 H         1 UNK         0.0806 
    142 H142      -46.8105  -25.6389    7.4171 H         1 UNK         0.3061 
    143 H143      -45.0325  -28.6876    8.0005 H         1 UNK         0.0734 
    144 H144      -47.2902  -29.4293    7.2404 H         1 UNK         0.0832 
    145 H145      -47.3145  -28.8795    8.9082 H         1 UNK         0.0832 
    146 H146      -47.9596  -27.8479    7.6377 H         1 UNK         0.0832 
    147 H147      -46.3329  -27.0671    5.8627 H         1 UNK         0.3156 
    148 H148      -43.3350  -26.7045    4.0567 H         1 UNK         0.0589 
    149 H149      -43.8173  -29.0064    3.3085 H         1 UNK         0.0808 
    150 H150      -45.5472  -28.7039    3.3501 H         1 UNK         0.0808 
    151 H151      -44.5290  -27.8608    2.1826 H         1 UNK         0.0808 
    152 H152      -46.1557  -26.2715    3.5017 H         1 UNK         0.3098 
    153 H153      -46.4176  -23.2253    5.2334 H         1 UNK         0.0720 
    154 H154      -45.0655  -22.2830    3.3477 H         1 UNK         0.0791 
    155 H155      -46.7813  -22.0166    3.0959 H         1 UNK         0.0791 
    156 H156      -45.9433  -23.2872    2.2024 H         1 UNK         0.0791 
    157 H157      -48.0695  -24.1839    3.1571 H         1 UNK         0.3028 
@<TRIPOS>BOND
     1    1    2 1    
     2    1   82 1    
     3    1   83 1    
     4    1   84 1    
     5    2    3 2    
     6    2    4 am   BACKBONE|DICT|INTERRES
     7    4    5 1    
     8    4   85 1    
     9    5    6 1    
    10    5   80 1    
    11    5   86 1    
    12    6    7 1    
    13    6   87 1    
    14    6   88 1    
    15    7    8 1    
    16    8    9 1    
    17    8   89 1    
    18    8   90 1    
    19    9   10 ar   
    20    9   14 ar   
    21   10   11 ar   
    22   10   91 1    
    23   11   12 ar   
    24   11   58 1    
    25   12   13 ar   
    26   12   92 1    
    27   13   14 ar   
    28   13   15 1    
    29   14   93 1    
    30   15   16 1    
    31   15   94 1    
    32   15   95 1    
    33   16   17 1    
    34   17   18 1    
    35   17   96 1    
    36   17   97 1    
    37   18   19 1    
    38   18   22 1    
    39   18   98 1    
    40   19   20 am   BACKBONE|DICT|INTERRES
    41   19   21 2    
    42   20   99 1    
    43   20  100 1    
    44   22   23 am   BACKBONE|DICT|INTERRES
    45   22  101 1    
    46   23   24 2    
    47   23   25 1    
    48   25   26 1    
    49   25   27 1    
    50   25  102 1    
    51   26  103 1    
    52   26  104 1    
    53   26  105 1    
    54   27   28 am   BACKBONE|DICT|INTERRES
    55   27  106 1    
    56   28   29 2    
    57   28   30 1    
    58   30   31 1    
    59   30   32 1    
    60   30  107 1    
    61   31  108 1    
    62   31  109 1    
    63   31  110 1    
    64   32   33 am   BACKBONE|DICT|INTERRES
    65   32  111 1    
    66   33   34 2    
    67   33   35 1    
    68   35   36 1    
    69   35   37 1    
    70   35  112 1    
    71   36  113 1    
    72   36  114 1    
    73   36  115 1    
    74   37   38 am   BACKBONE|DICT|INTERRES
    75   37  116 1    
    76   38   39 2    
    77   38   40 1    
    78   40   41 1    
    79   40   42 1    
    80   40  117 1    
    81   41  118 1    
    82   41  119 1    
    83   41  120 1    
    84   42   43 am   BACKBONE|DICT|INTERRES
    85   42  121 1    
    86   43   44 2    
    87   43   45 1    
    88   45   46 1    
    89   45   47 1    
    90   45  122 1    
    91   46  123 1    
    92   46  124 1    
    93   46  125 1    
    94   47   48 am   BACKBONE|DICT|INTERRES
    95   47  126 1    
    96   48   49 2    
    97   48   50 1    
    98   50   51 1    
    99   50   52 1    
   100   50  127 1    
   101   51  128 1    
   102   51  129 1    
   103   51  130 1    
   104   52   53 am   BACKBONE|DICT|INTERRES
   105   52  131 1    
   106   53   54 2    
   107   53   55 1    
   108   55   56 1    
   109   55   59 1    
   110   55  132 1    
   111   56   57 1    
   112   56  133 1    
   113   56  134 1    
   114   57   58 1    
   115   58  135 1    
   116   58  136 1    
   117   59   60 am   BACKBONE|DICT|INTERRES
   118   59  137 1    
   119   60   61 2    
   120   60   62 1    
   121   62   63 1    
   122   62   64 1    
   123   62  138 1    
   124   63  139 1    
   125   63  140 1    
   126   63  141 1    
   127   64   65 am   BACKBONE|DICT|INTERRES
   128   64  142 1    
   129   65   66 2    
   130   65   67 1    
   131   67   68 1    
   132   67   69 1    
   133   67  143 1    
   134   68  144 1    
   135   68  145 1    
   136   68  146 1    
   137   69   70 am   BACKBONE|DICT|INTERRES
   138   69  147 1    
   139   70   71 2    
   140   70   72 1    
   141   72   73 1    
   142   72   74 1    
   143   72  148 1    
   144   73  149 1    
   145   73  150 1    
   146   73  151 1    
   147   74   75 am   BACKBONE|DICT|INTERRES
   148   74  152 1    
   149   75   76 2    
   150   75   77 1    
   151   77   78 1    
   152   77   79 1    
   153   77  153 1    
   154   78  154 1    
   155   78  155 1    
   156   78  156 1    
   157   79   80 am   BACKBONE|DICT|INTERRES
   158   79  157 1    
   159   80   81 2    
@<TRIPOS>SUBSTRUCTURE
     1 UNK         1 GROUP             0       ****    0 ROOT    
