@<TRIPOS>MOLECULE
3R207
157   159    1
SMALL
USER_CHARGES


@<TRIPOS>ATOM
      1 CA        -54.5760  -27.6675    3.4264 C.3       0 UNK        -0.1975 
      2 C         -53.6097  -27.7552    4.5984 C.2       0 UNK         0.4852 
      3 O         -53.9141  -27.2491    5.6785 O.2       0 UNK        -0.5216 
      4 N         -52.4502  -28.3939    4.3893 N.am      1 UNK        -0.4461 
      5 CA        -51.3950  -28.5953    5.3936 C.3       1 UNK         0.0864 
      6 C6        -50.3349  -29.6161    4.9103 C.3       14 UNK        -0.0898 
      7 S7        -51.0842  -31.2483    4.5724 S.3       14 UNK        -0.2598 
      8 C8        -50.3532  -32.3094    5.8631 C.3       14 UNK         0.0286 
      9 C9        -50.5411  -31.7558    7.2702 C.ar      14 UNK        -0.0844 
     10 C10       -49.4251  -31.3842    8.0262 C.ar      14 UNK        -0.0881 
     11 C11       -49.5792  -30.8688    9.3155 C.ar      14 UNK        -0.0643 
     12 C12       -50.8608  -30.7387    9.8553 C.ar      14 UNK        -0.0930 
     13 C13       -51.9851  -31.1006    9.1083 C.ar      14 UNK        -0.0827 
     14 C14       -51.8206  -31.6162    7.8185 C.ar      14 UNK        -0.1249 
     15 C15       -53.3716  -30.9212    9.7030 C.3       14 UNK         0.0141 
     16 S16       -53.8222  -29.1602    9.7691 S.3       14 UNK        -0.2313 
     17 C17       -55.3944  -29.2343   10.6942 C.3       14 UNK        -0.0915 
     18 CA        -55.2767  -28.8152   12.1864 C.3       13 UNK         0.0968 
     19 C         -54.6150  -29.9103   13.0751 C.2       13 UNK         0.5732 
     20 N         -53.6049  -29.6105   13.8837 N.am      13 UNK        -0.7310 
     21 O         -55.0385  -31.0632   13.0403 O.2       13 UNK        -0.5035 
     22 N         -54.6774  -27.4805   12.3222 N.am      13 UNK        -0.4233 
     23 C         -54.9982  -26.5839   13.2591 C.2       13 UNK         0.4989 
     24 O         -55.9113  -26.7328   14.0735 O.2       13 UNK        -0.4996 
     25 CA        -54.1506  -25.3064   13.2549 C.3       12 UNK         0.0216 
     26 CB        -54.7185  -24.2231   12.3157 C.3       12 UNK        -0.1964 
     27 N         -53.8903  -24.8317   14.6150 N.am      12 UNK        -0.4276 
     28 C         -54.6145  -24.0406   15.4189 C.2       12 UNK         0.5020 
     29 O         -55.6729  -23.4903   15.1068 O.2       12 UNK        -0.5489 
     30 CA        -54.0217  -23.8279   16.8289 C.3       11 UNK         0.0294 
     31 CB        -54.9904  -23.1267   17.8061 C.3       11 UNK        -0.2019 
     32 N         -53.4911  -25.0737   17.3990 N.am      11 UNK        -0.4493 
     33 C         -54.1823  -26.1958   17.6645 C.2       11 UNK         0.4932 
     34 O         -55.4110  -26.2692   17.6214 O.2       11 UNK        -0.5029 
     35 CA        -53.3683  -27.4540   18.0398 C.3       10 UNK         0.0280 
     36 CB        -54.0800  -28.7555   17.6123 C.3       10 UNK        -0.1976 
     37 N         -51.9828  -27.4445   17.5491 N.am      10 UNK        -0.4242 
     38 C         -51.5691  -27.3543   16.2761 C.2       10 UNK         0.5072 
     39 O         -52.3176  -27.2697   15.3004 O.2       10 UNK        -0.5224 
     40 CA        -50.0472  -27.3037   16.0696 C.3       9 UNK         0.0343 
     41 CB        -49.5942  -28.4289   15.1241 C.3       9 UNK        -0.2003 
     42 N         -49.5900  -26.0121   15.5471 N.am      9 UNK        -0.4272 
     43 C         -49.8488  -24.8034   16.0718 C.2       9 UNK         0.4988 
     44 O         -50.5399  -24.6190   17.0759 O.2       9 UNK        -0.5108 
     45 CA        -49.2341  -23.5908   15.3532 C.3       8 UNK         0.0248 
     46 CB        -47.7487  -23.4295   15.7147 C.3       8 UNK        -0.2001 
     47 N         -49.3878  -23.6813   13.9003 N.am      8 UNK        -0.4140 
     48 C         -50.5382  -23.4440   13.2547 C.2       8 UNK         0.5028 
     49 O         -51.5477  -23.0101   13.8076 O.2       8 UNK        -0.5428 
     50 CA        -50.5805  -23.7307   11.7431 C.3       7 UNK         0.0264 
     51 CB        -50.2385  -22.4642   10.9428 C.3       7 UNK        -0.1988 
     52 N         -49.6812  -24.8137   11.3424 N.am      7 UNK        -0.4454 
     53 C         -49.8691  -26.1116   11.6221 C.2       7 UNK         0.5027 
     54 O         -50.8827  -26.5523   12.1618 O.2       7 UNK        -0.5083 
     55 CA        -48.7203  -27.0794   11.2736 C.3       6 UNK         0.0844 
     56 C56       -48.8962  -27.6755    9.8601 C.3       14 UNK        -0.0967 
     57 S57       -47.6140  -28.9179    9.4722 S.3       14 UNK        -0.2604 
     58 C58       -48.3601  -30.4467   10.1202 C.3       14 UNK         0.0134 
     59 N         -47.4064  -26.4557   11.4440 N.am      6 UNK        -0.4116 
     60 C         -46.8519  -26.1462   12.6212 C.2       5 UNK         0.5034 
     61 O         -47.3984  -26.3305   13.7071 O.2       5 UNK        -0.5045 
     62 CA        -45.4676  -25.4815   12.5710 C.3       5 UNK         0.0224 
     63 CB        -44.3635  -26.5389   12.4127 C.3       5 UNK        -0.1978 
     64 N         -45.3622  -24.4919   11.4949 N.am      5 UNK        -0.4737 
     65 C         -46.0435  -23.3383   11.4718 C.2       4 UNK         0.5027 
     66 O         -46.8045  -22.9762   12.3686 O.2       4 UNK        -0.5211 
     67 CA        -45.8815  -22.4664   10.2153 C.3       4 UNK         0.0297 
     68 CB        -44.5953  -21.6291   10.3003 C.3       4 UNK        -0.1993 
     69 N         -45.8989  -23.2244    8.9565 N.am      4 UNK        -0.4486 
     70 C         -46.9241  -23.9797    8.5415 C.2       3 UNK         0.4961 
     71 O         -47.9330  -24.1972    9.2163 O.2       3 UNK        -0.5105 
     72 CA        -46.8133  -24.6092    7.1496 C.3       3 UNK         0.0299 
     73 CB        -46.0886  -25.9658    7.2134 C.3       3 UNK        -0.1972 
     74 N         -48.1750  -24.7674    6.6492 N.am      3 UNK        -0.4305 
     75 C         -48.5523  -25.0104    5.3917 C.2       2 UNK         0.5006 
     76 O         -47.7726  -25.2288    4.4620 O.2       2 UNK        -0.5106 
     77 CA        -50.0674  -24.9787    5.1239 C.3       2 UNK         0.0296 
     78 CB        -50.4060  -24.0789    3.9223 C.3       2 UNK        -0.2002 
     79 N         -50.6110  -26.3157    4.8909 N.am      2 UNK        -0.4032 
     80 C         -50.7275  -27.2719    5.8245 C.2       1 UNK         0.5000 
     81 O         -50.3670  -27.1292    6.9923 O.2       1 UNK        -0.5238 
     82 H82       -54.7708  -26.6244    3.1782 H         1 UNK         0.0889 
     83 H83       -55.5235  -28.1389    3.6860 H         1 UNK         0.0889 
     84 H84       -54.1850  -28.1606    2.5365 H         1 UNK         0.0889 
     85 H85       -52.2749  -28.8173    3.4889 H         1 UNK         0.3028 
     86 H86       -51.8714  -29.0045    6.2880 H         1 UNK         0.0864 
     87 H87       -49.8517  -29.2657    3.9964 H         1 UNK         0.0720 
     88 H88       -49.5373  -29.7251    5.6473 H         1 UNK         0.0720 
     89 H89       -49.2946  -32.4507    5.6394 H         1 UNK         0.0814 
     90 H90       -50.8101  -33.2982    5.8063 H         1 UNK         0.0814 
     91 H91       -48.4315  -31.4809    7.6099 H         1 UNK         0.1469 
     92 H92       -50.9892  -30.3343   10.8504 H         1 UNK         0.1381 
     93 H93       -52.6860  -31.8958    7.2331 H         1 UNK         0.1206 
     94 H94       -53.3901  -31.3464   10.7072 H         1 UNK         0.0813 
     95 H95       -54.1176  -31.4638    9.1203 H         1 UNK         0.0813 
     96 H96       -55.8370  -30.2274   10.5976 H         1 UNK         0.0638 
     97 H97       -56.0912  -28.5615   10.1922 H         1 UNK         0.0638 
     98 H98       -56.3009  -28.7541   12.5585 H         1 UNK         0.0568 
     99 H99       -53.2039  -30.3434   14.4446 H         1 UNK         0.3450 
    100 H100      -53.2641  -28.6626   13.9860 H         1 UNK         0.3450 
    101 H101      -53.8999  -27.2952   11.7043 H         1 UNK         0.2987 
    102 H102      -53.1643  -25.5729   12.8763 H         1 UNK         0.0766 
    103 H103      -54.1285  -23.3076   12.3635 H         1 UNK         0.0798 
    104 H104      -55.7518  -23.9740   12.5584 H         1 UNK         0.0798 
    105 H105      -54.7066  -24.5647   11.2802 H         1 UNK         0.0798 
    106 H106      -53.0926  -25.2912   15.0392 H         1 UNK         0.3198 
    107 H107      -53.1617  -23.1694   16.6936 H         1 UNK         0.0843 
    108 H108      -54.5352  -22.9888   18.7866 H         1 UNK         0.0831 
    109 H109      -55.9140  -23.6903   17.9393 H         1 UNK         0.0831 
    110 H110      -55.2668  -22.1390   17.4354 H         1 UNK         0.0831 
    111 H111      -52.4776  -25.1108   17.4704 H         1 UNK         0.3133 
    112 H112      -53.3025  -27.4559   19.1287 H         1 UNK         0.0566 
    113 H113      -53.4887  -29.6360   17.8628 H         1 UNK         0.0814 
    114 H114      -55.0424  -28.8599   18.1146 H         1 UNK         0.0814 
    115 H115      -54.2731  -28.7728   16.5392 H         1 UNK         0.0814 
    116 H116      -51.2743  -27.4679   18.2699 H         1 UNK         0.3091 
    117 H117      -49.5532  -27.4541   17.0313 H         1 UNK         0.0702 
    118 H118      -49.9101  -29.4040   15.4970 H         1 UNK         0.0785 
    119 H119      -48.5090  -28.4558   15.0262 H         1 UNK         0.0785 
    120 H120      -50.0193  -28.3095   14.1270 H         1 UNK         0.0785 
    121 H121      -48.9675  -26.0594   14.7452 H         1 UNK         0.2998 
    122 H122      -49.7581  -22.6976   15.7005 H         1 UNK         0.0697 
    123 H123      -47.3213  -22.5444   15.2429 H         1 UNK         0.0825 
    124 H124      -47.6208  -23.3172   16.7921 H         1 UNK         0.0825 
    125 H125      -47.1556  -24.2898   15.4048 H         1 UNK         0.0825 
    126 H126      -48.5738  -23.9546   13.3638 H         1 UNK         0.3029 
    127 H127      -51.6012  -24.0276   11.4933 H         1 UNK         0.0897 
    128 H128      -50.3317  -22.6359    9.8703 H         1 UNK         0.0792 
    129 H129      -50.9114  -21.6454   11.2011 H         1 UNK         0.0792 
    130 H130      -49.2203  -22.1264   11.1396 H         1 UNK         0.0792 
    131 H131      -48.8665  -24.5482   10.7928 H         1 UNK         0.3086 
    132 H132      -48.7820  -27.9035   11.9873 H         1 UNK         0.0583 
    133 H133      -49.8864  -28.1178    9.7398 H         1 UNK         0.1020 
    134 H134      -48.8355  -26.8854    9.1098 H         1 UNK         0.1020 
    135 H135      -47.6153  -31.2430   10.0873 H         1 UNK         0.0694 
    136 H136      -48.6134  -30.3087   11.1725 H         1 UNK         0.0694 
    137 H137      -46.8996  -26.2433   10.5984 H         1 UNK         0.2989 
    138 H138      -45.3161  -24.9666   13.5227 H         1 UNK         0.1055 
    139 H139      -44.4144  -27.2770   13.2146 H         1 UNK         0.0806 
    140 H140      -43.3724  -26.0867   12.4543 H         1 UNK         0.0806 
    141 H141      -44.4480  -27.0783   11.4683 H         1 UNK         0.0806 
    142 H142      -44.7567  -24.7108   10.7168 H         1 UNK         0.3061 
    143 H143      -46.7297  -21.7787   10.1904 H         1 UNK         0.0734 
    144 H144      -43.7016  -22.2541   10.2857 H         1 UNK         0.0832 
    145 H145      -44.5255  -20.9224    9.4732 H         1 UNK         0.0832 
    146 H146      -44.5701  -21.0470   11.2227 H         1 UNK         0.0832 
    147 H147      -45.1034  -23.1071    8.3447 H         1 UNK         0.3156 
    148 H148      -46.2706  -23.9272    6.4920 H         1 UNK         0.0589 
    149 H149      -45.9728  -26.4038    6.2221 H         1 UNK         0.0808 
    150 H150      -45.0892  -25.8605    7.6369 H         1 UNK         0.0808 
    151 H151      -46.6328  -26.6808    7.8290 H         1 UNK         0.0808 
    152 H152      -48.8788  -24.6236    7.3646 H         1 UNK         0.3098 
    153 H153      -50.5697  -24.5609    5.9994 H         1 UNK         0.0720 
    154 H154      -50.0163  -23.0707    4.0691 H         1 UNK         0.0791 
    155 H155      -51.4838  -23.9914    3.7832 H         1 UNK         0.0791 
    156 H156      -49.9777  -24.4614    2.9947 H         1 UNK         0.0791 
    157 H157      -50.9207  -26.5236    3.9533 H         1 UNK         0.3028 
@<TRIPOS>BOND
     1    1    2 1    
     2    1   82 1    
     3    1   83 1    
     4    1   84 1    
     5    2    3 2    
     6    2    4 am   BACKBONE|DICT|INTERRES
     7    4    5 1    
     8    4   85 1    
     9    5    6 1    
    10    5   80 1    
    11    5   86 1    
    12    6    7 1    
    13    6   87 1    
    14    6   88 1    
    15    7    8 1    
    16    8    9 1    
    17    8   89 1    
    18    8   90 1    
    19    9   10 ar   
    20    9   14 ar   
    21   10   11 ar   
    22   10   91 1    
    23   11   12 ar   
    24   11   58 1    
    25   12   13 ar   
    26   12   92 1    
    27   13   14 ar   
    28   13   15 1    
    29   14   93 1    
    30   15   16 1    
    31   15   94 1    
    32   15   95 1    
    33   16   17 1    
    34   17   18 1    
    35   17   96 1    
    36   17   97 1    
    37   18   19 1    
    38   18   22 1    
    39   18   98 1    
    40   19   20 am   BACKBONE|DICT|INTERRES
    41   19   21 2    
    42   20   99 1    
    43   20  100 1    
    44   22   23 am   BACKBONE|DICT|INTERRES
    45   22  101 1    
    46   23   24 2    
    47   23   25 1    
    48   25   26 1    
    49   25   27 1    
    50   25  102 1    
    51   26  103 1    
    52   26  104 1    
    53   26  105 1    
    54   27   28 am   BACKBONE|DICT|INTERRES
    55   27  106 1    
    56   28   29 2    
    57   28   30 1    
    58   30   31 1    
    59   30   32 1    
    60   30  107 1    
    61   31  108 1    
    62   31  109 1    
    63   31  110 1    
    64   32   33 am   BACKBONE|DICT|INTERRES
    65   32  111 1    
    66   33   34 2    
    67   33   35 1    
    68   35   36 1    
    69   35   37 1    
    70   35  112 1    
    71   36  113 1    
    72   36  114 1    
    73   36  115 1    
    74   37   38 am   BACKBONE|DICT|INTERRES
    75   37  116 1    
    76   38   39 2    
    77   38   40 1    
    78   40   41 1    
    79   40   42 1    
    80   40  117 1    
    81   41  118 1    
    82   41  119 1    
    83   41  120 1    
    84   42   43 am   BACKBONE|DICT|INTERRES
    85   42  121 1    
    86   43   44 2    
    87   43   45 1    
    88   45   46 1    
    89   45   47 1    
    90   45  122 1    
    91   46  123 1    
    92   46  124 1    
    93   46  125 1    
    94   47   48 am   BACKBONE|DICT|INTERRES
    95   47  126 1    
    96   48   49 2    
    97   48   50 1    
    98   50   51 1    
    99   50   52 1    
   100   50  127 1    
   101   51  128 1    
   102   51  129 1    
   103   51  130 1    
   104   52   53 am   BACKBONE|DICT|INTERRES
   105   52  131 1    
   106   53   54 2    
   107   53   55 1    
   108   55   56 1    
   109   55   59 1    
   110   55  132 1    
   111   56   57 1    
   112   56  133 1    
   113   56  134 1    
   114   57   58 1    
   115   58  135 1    
   116   58  136 1    
   117   59   60 am   BACKBONE|DICT|INTERRES
   118   59  137 1    
   119   60   61 2    
   120   60   62 1    
   121   62   63 1    
   122   62   64 1    
   123   62  138 1    
   124   63  139 1    
   125   63  140 1    
   126   63  141 1    
   127   64   65 am   BACKBONE|DICT|INTERRES
   128   64  142 1    
   129   65   66 2    
   130   65   67 1    
   131   67   68 1    
   132   67   69 1    
   133   67  143 1    
   134   68  144 1    
   135   68  145 1    
   136   68  146 1    
   137   69   70 am   BACKBONE|DICT|INTERRES
   138   69  147 1    
   139   70   71 2    
   140   70   72 1    
   141   72   73 1    
   142   72   74 1    
   143   72  148 1    
   144   73  149 1    
   145   73  150 1    
   146   73  151 1    
   147   74   75 am   BACKBONE|DICT|INTERRES
   148   74  152 1    
   149   75   76 2    
   150   75   77 1    
   151   77   78 1    
   152   77   79 1    
   153   77  153 1    
   154   78  154 1    
   155   78  155 1    
   156   78  156 1    
   157   79   80 am   BACKBONE|DICT|INTERRES
   158   79  157 1    
   159   80   81 2    
@<TRIPOS>SUBSTRUCTURE
     1 UNK         1 GROUP             0       ****    0 ROOT    
