@<TRIPOS>MOLECULE
3R207
157   159    1
SMALL
USER_CHARGES


@<TRIPOS>ATOM
      1 CA        -50.7778  -31.8969    4.8840 C.3       0 UNK        -0.1975 
      2 C         -51.1174  -30.6192    4.1317 C.2       0 UNK         0.4852 
      3 O         -50.4141  -30.2539    3.1901 O.2       0 UNK        -0.5216 
      4 N         -52.1823  -29.9265    4.5515 N.am      1 UNK        -0.4461 
      5 CA        -52.6870  -28.6646    3.9897 C.3       1 UNK         0.0864 
      6 C6        -54.2408  -28.5358    4.1114 C.3       14 UNK        -0.0898 
      7 S7        -55.0237  -29.3844    5.5329 S.3       14 UNK        -0.2598 
      8 C8        -55.1593  -28.0630    6.7834 C.3       14 UNK         0.0286 
      9 C9        -53.8256  -27.7065    7.4299 C.ar      14 UNK        -0.0844 
     10 C10       -53.4769  -26.3680    7.6186 C.ar      14 UNK        -0.0881 
     11 C11       -52.2594  -26.0201    8.2092 C.ar      14 UNK        -0.0643 
     12 C12       -51.3865  -27.0390    8.6170 C.ar      14 UNK        -0.0930 
     13 C13       -51.7182  -28.3872    8.4433 C.ar      14 UNK        -0.0827 
     14 C14       -52.9467  -28.7064    7.8533 C.ar      14 UNK        -0.1249 
     15 C15       -50.7019  -29.4520    8.8666 C.3       14 UNK         0.0141 
     16 S16       -51.2601  -31.1907    8.7640 S.3       14 UNK        -0.2313 
     17 C17       -51.7898  -31.5601   10.4704 C.3       14 UNK        -0.0915 
     18 CA        -53.2795  -31.2189   10.7341 C.3       13 UNK         0.0968 
     19 C         -53.8191  -31.9991   11.9640 C.2       13 UNK         0.5732 
     20 N         -54.3544  -33.1937   11.7515 N.am      13 UNK        -0.7310 
     21 O         -53.7223  -31.5533   13.1069 O.2       13 UNK        -0.5035 
     22 N         -53.4508  -29.7746   10.8995 N.am      13 UNK        -0.4233 
     23 C         -54.6117  -29.1153   10.9003 C.2       13 UNK         0.4989 
     24 O         -55.7032  -29.6307   10.6514 O.2       13 UNK        -0.4996 
     25 CA        -54.5192  -27.6293   11.2936 C.3       12 UNK         0.0216 
     26 CB        -55.7984  -26.8408   10.9611 C.3       12 UNK        -0.1964 
     27 N         -54.2221  -27.4946   12.7235 N.am      12 UNK        -0.4276 
     28 C         -53.0301  -27.7352   13.2839 C.2       12 UNK         0.5020 
     29 O         -52.0042  -27.9552   12.6360 O.2       12 UNK        -0.5489 
     30 CA        -52.9820  -27.7333   14.8165 C.3       11 UNK         0.0294 
     31 CB        -51.9841  -28.7694   15.3606 C.3       11 UNK        -0.2019 
     32 N         -52.5931  -26.4129   15.2957 N.am      11 UNK        -0.4493 
     33 C         -53.4440  -25.4456   15.6616 C.2       11 UNK         0.4932 
     34 O         -54.6686  -25.5593   15.5889 O.2       11 UNK        -0.5029 
     35 CA        -52.8228  -24.1338   16.1903 C.3       10 UNK         0.0280 
     36 CB        -53.7538  -23.3798   17.1635 C.3       10 UNK        -0.1976 
     37 N         -51.4824  -24.3188   16.7666 N.am      10 UNK        -0.4242 
     38 C         -51.1567  -25.0612   17.8371 C.2       10 UNK         0.5072 
     39 O         -51.9827  -25.6040   18.5722 O.2       10 UNK        -0.5224 
     40 CA        -49.6616  -25.2743   18.1272 C.3       9 UNK         0.0343 
     41 CB        -49.3097  -26.7720   18.0555 C.3       9 UNK        -0.2003 
     42 N         -48.7862  -24.5519   17.1970 N.am      9 UNK        -0.4272 
     43 C         -47.8770  -23.6394   17.5656 C.2       9 UNK         0.4988 
     44 O         -47.7350  -23.2350   18.7205 O.2       9 UNK        -0.5108 
     45 CA        -46.9402  -23.1043   16.4715 C.3       8 UNK         0.0248 
     46 CB        -45.8232  -24.1196   16.1763 C.3       8 UNK        -0.2001 
     47 N         -47.6188  -22.7578   15.2228 N.am      8 UNK        -0.4140 
     48 C         -48.4306  -21.7043   15.0553 C.2       8 UNK         0.5028 
     49 O         -48.7737  -20.9484   15.9644 O.2       8 UNK        -0.5428 
     50 CA        -48.9410  -21.4484   13.6298 C.3       7 UNK         0.0264 
     51 CB        -47.8350  -20.8363   12.7531 C.3       7 UNK        -0.1988 
     52 N         -49.4146  -22.6926   13.0242 N.am      7 UNK        -0.4454 
     53 C         -50.7023  -23.0584   12.9624 C.2       7 UNK         0.5027 
     54 O         -51.6308  -22.3248   13.3027 O.2       7 UNK        -0.5083 
     55 CA        -51.0308  -24.4862   12.4750 C.3       6 UNK         0.0844 
     56 C56       -51.8010  -24.4946   11.1353 C.3       14 UNK        -0.0967 
     57 S57       -50.7680  -24.1063    9.6864 S.3       14 UNK        -0.2604 
     58 C58       -51.9092  -24.5356    8.3313 C.3       14 UNK         0.0134 
     59 N         -49.8707  -25.3812   12.4605 N.am      6 UNK        -0.4116 
     60 C         -49.3173  -25.9226   13.5522 C.2       5 UNK         0.5034 
     61 O         -49.7287  -25.7242   14.6968 O.2       5 UNK        -0.5045 
     62 CA        -48.0659  -26.7919   13.3439 C.3       5 UNK         0.0224 
     63 CB        -48.4666  -28.2473   13.0565 C.3       5 UNK        -0.1978 
     64 N         -47.1633  -26.3304   12.2826 N.am      5 UNK        -0.4737 
     65 C         -46.5994  -25.1168   12.1897 C.2       4 UNK         0.5027 
     66 O         -46.8555  -24.1892   12.9556 O.2       4 UNK        -0.5211 
     67 CA        -45.5823  -24.8986   11.0534 C.3       4 UNK         0.0297 
     68 CB        -44.1500  -25.0419   11.5909 C.3       4 UNK        -0.1993 
     69 N         -45.7799  -25.8234    9.9310 N.am      4 UNK        -0.4486 
     70 C         -46.7944  -25.7217    9.0634 C.2       3 UNK         0.4961 
     71 O         -47.5706  -24.7643    9.0361 O.2       3 UNK        -0.5105 
     72 CA        -47.0103  -26.9014    8.1049 C.3       3 UNK         0.0299 
     73 CB        -47.3068  -28.1914    8.9019 C.3       3 UNK        -0.1972 
     74 N         -48.1231  -26.5422    7.2265 N.am      3 UNK        -0.4305 
     75 C         -48.6310  -27.2412    6.2073 C.2       2 UNK         0.5006 
     76 O         -48.2367  -28.3562    5.8574 O.2       2 UNK        -0.5106 
     77 CA        -49.7583  -26.5619    5.4230 C.3       2 UNK         0.0296 
     78 CB        -49.1869  -25.7231    4.2639 C.3       2 UNK        -0.2002 
     79 N         -50.6568  -27.5941    4.9176 N.am      2 UNK        -0.4032 
     80 C         -51.9052  -27.4129    4.4691 C.2       1 UNK         0.5000 
     81 O         -52.4307  -26.2999    4.3929 O.2       1 UNK        -0.5238 
     82 H82       -50.7327  -32.7393    4.1945 H         1 UNK         0.0889 
     83 H83       -51.5172  -32.1261    5.6514 H         1 UNK         0.0889 
     84 H84       -49.8069  -31.7985    5.3691 H         1 UNK         0.0889 
     85 H85       -52.7201  -30.2676    5.3366 H         1 UNK         0.3028 
     86 H86       -52.4773  -28.6919    2.9180 H         1 UNK         0.0864 
     87 H87       -54.5850  -27.5013    4.0754 H         1 UNK         0.0720 
     88 H88       -54.6825  -28.9946    3.2257 H         1 UNK         0.0720 
     89 H89       -55.8389  -28.3973    7.5683 H         1 UNK         0.0814 
     90 H90       -55.6219  -27.1869    6.3267 H         1 UNK         0.0814 
     91 H91       -54.1497  -25.5895    7.2860 H         1 UNK         0.1469 
     92 H92       -50.4322  -26.7859    9.0558 H         1 UNK         0.1381 
     93 H93       -53.2341  -29.7370    7.7120 H         1 UNK         0.1206 
     94 H94       -49.8417  -29.3588    8.2049 H         1 UNK         0.0813 
     95 H95       -50.3455  -29.2404    9.8754 H         1 UNK         0.0813 
     96 H96       -51.1361  -31.0572   11.1855 H         1 UNK         0.0638 
     97 H97       -51.6134  -32.6283   10.6107 H         1 UNK         0.0638 
     98 H98       -53.8682  -31.5231    9.8663 H         1 UNK         0.0568 
     99 H99       -54.4270  -33.5758   10.8211 H         1 UNK         0.3450 
    100 H100      -54.6969  -33.7224   12.5382 H         1 UNK         0.3450 
    101 H101      -52.6340  -29.2627   11.2144 H         1 UNK         0.2987 
    102 H102      -53.7039  -27.1945   10.7136 H         1 UNK         0.0766 
    103 H103      -56.6608  -27.2100   11.5174 H         1 UNK         0.0798 
    104 H104      -55.6797  -25.7812   11.1876 H         1 UNK         0.0798 
    105 H105      -56.0356  -26.9188    9.8992 H         1 UNK         0.0798 
    106 H106      -55.0082  -27.3091   13.3311 H         1 UNK         0.3198 
    107 H107      -53.9704  -28.0000   15.1975 H         1 UNK         0.0843 
    108 H108      -52.1951  -29.7627   14.9614 H         1 UNK         0.0831 
    109 H109      -52.0383  -28.8354   16.4473 H         1 UNK         0.0831 
    110 H110      -50.9581  -28.5195   15.0954 H         1 UNK         0.0831 
    111 H111      -51.5974  -26.2150   15.3051 H         1 UNK         0.3133 
    112 H112      -52.6919  -23.4960   15.3186 H         1 UNK         0.0566 
    113 H113      -53.2920  -22.4601   17.5223 H         1 UNK         0.0814 
    114 H114      -54.6875  -23.1015   16.6733 H         1 UNK         0.0814 
    115 H115      -54.0141  -23.9866   18.0311 H         1 UNK         0.0814 
    116 H116      -50.7205  -23.9223   16.2360 H         1 UNK         0.3091 
    117 H117      -49.4977  -24.9373   19.1527 H         1 UNK         0.0702 
    118 H118      -48.2632  -26.9445   18.3070 H         1 UNK         0.0785 
    119 H119      -49.4867  -27.1811   17.0600 H         1 UNK         0.0785 
    120 H120      -49.9093  -27.3525   18.7579 H         1 UNK         0.0785 
    121 H121      -48.8406  -24.8407   16.2250 H         1 UNK         0.2998 
    122 H122      -46.4722  -22.1955   16.8562 H         1 UNK         0.0697 
    123 H123      -46.2172  -25.0447   15.7542 H         1 UNK         0.0825 
    124 H124      -45.2800  -24.3800   17.0858 H         1 UNK         0.0825 
    125 H125      -45.0974  -23.7154   15.4702 H         1 UNK         0.0825 
    126 H126      -47.3585  -23.3048   14.4028 H         1 UNK         0.3029 
    127 H127      -49.7541  -20.7216   13.6923 H         1 UNK         0.0897 
    128 H128      -48.2052  -20.6120   11.7527 H         1 UNK         0.0792 
    129 H129      -47.4723  -19.9011   13.1816 H         1 UNK         0.0792 
    130 H130      -46.9770  -21.5012   12.6489 H         1 UNK         0.0792 
    131 H131      -48.7007  -23.3554   12.7423 H         1 UNK         0.3086 
    132 H132      -51.7257  -24.8828   13.2147 H         1 UNK         0.0583 
    133 H133      -52.2287  -25.4859   10.9915 H         1 UNK         0.1020 
    134 H134      -52.6507  -23.8096   11.1659 H         1 UNK         0.1020 
    135 H135      -52.8194  -23.9473    8.4580 H         1 UNK         0.0694 
    136 H136      -51.4634  -24.2091    7.3913 H         1 UNK         0.0694 
    137 H137      -49.4610  -25.5665   11.5565 H         1 UNK         0.2989 
    138 H138      -47.5016  -26.7701   14.2784 H         1 UNK         0.1055 
    139 H139      -49.0496  -28.6607   13.8783 H         1 UNK         0.0806 
    140 H140      -47.5929  -28.8876   12.9350 H         1 UNK         0.0806 
    141 H141      -49.0749  -28.3305   12.1548 H         1 UNK         0.0806 
    142 H142      -46.8841  -27.0225   11.6043 H         1 UNK         0.3061 
    143 H143      -45.7094  -23.8754   10.6923 H         1 UNK         0.0734 
    144 H144      -43.9718  -24.3461   12.4124 H         1 UNK         0.0832 
    145 H145      -43.9559  -26.0466   11.9686 H         1 UNK         0.0832 
    146 H146      -43.4122  -24.8234   10.8188 H         1 UNK         0.0832 
    147 H147      -45.1575  -26.6174    9.8735 H         1 UNK         0.3156 
    148 H148      -46.1124  -27.0320    7.4987 H         1 UNK         0.0589 
    149 H149      -48.1806  -28.0740    9.5423 H         1 UNK         0.0808 
    150 H150      -47.4772  -29.0450    8.2473 H         1 UNK         0.0808 
    151 H151      -46.4689  -28.4658    9.5430 H         1 UNK         0.0808 
    152 H152      -48.4933  -25.6219    7.4424 H         1 UNK         0.3098 
    153 H153      -50.3172  -25.9129    6.0977 H         1 UNK         0.0720 
    154 H154      -49.9738  -25.1949    3.7255 H         1 UNK         0.0791 
    155 H155      -48.6496  -26.3448    3.5467 H         1 UNK         0.0791 
    156 H156      -48.4892  -24.9699    4.6323 H         1 UNK         0.0791 
    157 H157      -50.2702  -28.5298    4.9365 H         1 UNK         0.3028 
@<TRIPOS>BOND
     1    1    2 1    
     2    1   82 1    
     3    1   83 1    
     4    1   84 1    
     5    2    3 2    
     6    2    4 am   BACKBONE|DICT|INTERRES
     7    4    5 1    
     8    4   85 1    
     9    5    6 1    
    10    5   80 1    
    11    5   86 1    
    12    6    7 1    
    13    6   87 1    
    14    6   88 1    
    15    7    8 1    
    16    8    9 1    
    17    8   89 1    
    18    8   90 1    
    19    9   10 ar   
    20    9   14 ar   
    21   10   11 ar   
    22   10   91 1    
    23   11   12 ar   
    24   11   58 1    
    25   12   13 ar   
    26   12   92 1    
    27   13   14 ar   
    28   13   15 1    
    29   14   93 1    
    30   15   16 1    
    31   15   94 1    
    32   15   95 1    
    33   16   17 1    
    34   17   18 1    
    35   17   96 1    
    36   17   97 1    
    37   18   19 1    
    38   18   22 1    
    39   18   98 1    
    40   19   20 am   BACKBONE|DICT|INTERRES
    41   19   21 2    
    42   20   99 1    
    43   20  100 1    
    44   22   23 am   BACKBONE|DICT|INTERRES
    45   22  101 1    
    46   23   24 2    
    47   23   25 1    
    48   25   26 1    
    49   25   27 1    
    50   25  102 1    
    51   26  103 1    
    52   26  104 1    
    53   26  105 1    
    54   27   28 am   BACKBONE|DICT|INTERRES
    55   27  106 1    
    56   28   29 2    
    57   28   30 1    
    58   30   31 1    
    59   30   32 1    
    60   30  107 1    
    61   31  108 1    
    62   31  109 1    
    63   31  110 1    
    64   32   33 am   BACKBONE|DICT|INTERRES
    65   32  111 1    
    66   33   34 2    
    67   33   35 1    
    68   35   36 1    
    69   35   37 1    
    70   35  112 1    
    71   36  113 1    
    72   36  114 1    
    73   36  115 1    
    74   37   38 am   BACKBONE|DICT|INTERRES
    75   37  116 1    
    76   38   39 2    
    77   38   40 1    
    78   40   41 1    
    79   40   42 1    
    80   40  117 1    
    81   41  118 1    
    82   41  119 1    
    83   41  120 1    
    84   42   43 am   BACKBONE|DICT|INTERRES
    85   42  121 1    
    86   43   44 2    
    87   43   45 1    
    88   45   46 1    
    89   45   47 1    
    90   45  122 1    
    91   46  123 1    
    92   46  124 1    
    93   46  125 1    
    94   47   48 am   BACKBONE|DICT|INTERRES
    95   47  126 1    
    96   48   49 2    
    97   48   50 1    
    98   50   51 1    
    99   50   52 1    
   100   50  127 1    
   101   51  128 1    
   102   51  129 1    
   103   51  130 1    
   104   52   53 am   BACKBONE|DICT|INTERRES
   105   52  131 1    
   106   53   54 2    
   107   53   55 1    
   108   55   56 1    
   109   55   59 1    
   110   55  132 1    
   111   56   57 1    
   112   56  133 1    
   113   56  134 1    
   114   57   58 1    
   115   58  135 1    
   116   58  136 1    
   117   59   60 am   BACKBONE|DICT|INTERRES
   118   59  137 1    
   119   60   61 2    
   120   60   62 1    
   121   62   63 1    
   122   62   64 1    
   123   62  138 1    
   124   63  139 1    
   125   63  140 1    
   126   63  141 1    
   127   64   65 am   BACKBONE|DICT|INTERRES
   128   64  142 1    
   129   65   66 2    
   130   65   67 1    
   131   67   68 1    
   132   67   69 1    
   133   67  143 1    
   134   68  144 1    
   135   68  145 1    
   136   68  146 1    
   137   69   70 am   BACKBONE|DICT|INTERRES
   138   69  147 1    
   139   70   71 2    
   140   70   72 1    
   141   72   73 1    
   142   72   74 1    
   143   72  148 1    
   144   73  149 1    
   145   73  150 1    
   146   73  151 1    
   147   74   75 am   BACKBONE|DICT|INTERRES
   148   74  152 1    
   149   75   76 2    
   150   75   77 1    
   151   77   78 1    
   152   77   79 1    
   153   77  153 1    
   154   78  154 1    
   155   78  155 1    
   156   78  156 1    
   157   79   80 am   BACKBONE|DICT|INTERRES
   158   79  157 1    
   159   80   81 2    
@<TRIPOS>SUBSTRUCTURE
     1 UNK         1 GROUP             0       ****    0 ROOT    
