@<TRIPOS>MOLECULE
3R207
157   159    1
SMALL
USER_CHARGES


@<TRIPOS>ATOM
      1 CA        -47.8586  -30.4461    9.8166 C.3       0 UNK        -0.1975 
      2 C         -47.8893  -30.1550    8.3235 C.2       0 UNK         0.4852 
      3 O         -46.8475  -30.1995    7.6686 O.2       0 UNK        -0.5216 
      4 N         -49.0762  -29.8583    7.7852 N.am      1 UNK        -0.4461 
      5 CA        -49.2942  -29.4133    6.4078 C.3       1 UNK         0.0864 
      6 C6        -50.6552  -29.9184    5.8563 C.3       14 UNK        -0.0898 
      7 S7        -52.0879  -29.5781    6.9402 S.3       14 UNK        -0.2598 
      8 C8        -52.8334  -28.1019    6.1706 C.3       14 UNK         0.0286 
      9 C9        -53.1109  -27.0289    7.2136 C.ar      14 UNK        -0.0844 
     10 C10       -52.4237  -25.8128    7.1864 C.ar      14 UNK        -0.0881 
     11 C11       -52.6459  -24.8391    8.1650 C.ar      14 UNK        -0.0643 
     12 C12       -53.5684  -25.1104    9.1878 C.ar      14 UNK        -0.0930 
     13 C13       -54.2761  -26.3169    9.2274 C.ar      14 UNK        -0.0827 
     14 C14       -54.0475  -27.2645    8.2218 C.ar      14 UNK        -0.1249 
     15 C15       -55.2591  -26.5415   10.3820 C.3       14 UNK         0.0141 
     16 S16       -56.2274  -28.0931   10.3375 S.3       14 UNK        -0.2313 
     17 C17       -54.9711  -29.3335   10.8064 C.3       14 UNK        -0.0915 
     18 CA        -55.2210  -29.9259   12.2257 C.3       13 UNK         0.0968 
     19 C         -56.1740  -31.1615   12.2413 C.2       13 UNK         0.5732 
     20 N         -56.0238  -32.0942   13.1751 N.am      13 UNK        -0.7310 
     21 O         -57.0811  -31.2707   11.4197 O.2       13 UNK        -0.5035 
     22 N         -53.9730  -30.0976   12.9863 N.am      13 UNK        -0.4233 
     23 C         -52.9621  -30.9268   12.6842 C.2       13 UNK         0.4989 
     24 O         -52.9668  -31.6749   11.7064 O.2       13 UNK        -0.4996 
     25 CA        -51.7235  -30.9211   13.6064 C.3       12 UNK         0.0216 
     26 CB        -50.4448  -30.6229   12.8047 C.3       12 UNK        -0.1964 
     27 N         -51.8249  -29.9523   14.7003 N.am      12 UNK        -0.4276 
     28 C         -52.4267  -30.1708   15.8773 C.2       12 UNK         0.5020 
     29 O         -52.8904  -31.2580   16.2214 O.2       12 UNK        -0.5489 
     30 CA        -52.5828  -28.9474   16.8003 C.3       11 UNK         0.0294 
     31 CB        -51.3972  -28.8543   17.7726 C.3       11 UNK        -0.2019 
     32 N         -52.7231  -27.6852   16.0579 N.am      11 UNK        -0.4493 
     33 C         -53.7636  -27.4022   15.2549 C.2       11 UNK         0.4932 
     34 O         -54.7158  -28.1683   15.1068 O.2       11 UNK        -0.5029 
     35 CA        -53.7165  -26.1133   14.4125 C.3       10 UNK         0.0280 
     36 CB        -55.1068  -25.4709   14.2219 C.3       10 UNK        -0.1976 
     37 N         -52.7239  -25.1347   14.8622 N.am      10 UNK        -0.4242 
     38 C         -52.7216  -24.4363   16.0072 C.2       10 UNK         0.5072 
     39 O         -53.6154  -24.5001   16.8532 O.2       10 UNK        -0.5224 
     40 CA        -51.5002  -23.5268   16.2480 C.3       9 UNK         0.0343 
     41 CB        -51.3302  -23.1326   17.7308 C.3       9 UNK        -0.2003 
     42 N         -50.2446  -24.0730   15.7150 N.am      9 UNK        -0.4272 
     43 C         -49.6582  -25.2354   16.0453 C.2       9 UNK         0.4988 
     44 O         -50.1664  -26.0420   16.8241 O.2       9 UNK        -0.5108 
     45 CA        -48.3031  -25.5920   15.3939 C.3       8 UNK         0.0248 
     46 CB        -48.3135  -27.0369   14.8618 C.3       8 UNK        -0.2001 
     47 N         -47.9041  -24.6883   14.3106 N.am      8 UNK        -0.4140 
     48 C         -47.3950  -23.4579   14.4648 C.2       8 UNK         0.5028 
     49 O         -47.1026  -22.9691   15.5562 O.2       8 UNK        -0.5428 
     50 CA        -47.2591  -22.6009   13.1918 C.3       7 UNK         0.0264 
     51 CB        -45.8967  -22.8287   12.5184 C.3       7 UNK        -0.1988 
     52 N         -48.3369  -22.8396   12.2237 N.am      7 UNK        -0.4454 
     53 C         -49.6386  -22.6073   12.4554 C.2       7 UNK         0.5027 
     54 O         -50.0607  -22.0985   13.4940 O.2       7 UNK        -0.5083 
     55 CA        -50.6460  -23.0726   11.3849 C.3       6 UNK         0.0844 
     56 C56       -50.7798  -22.0317   10.2463 C.3       14 UNK        -0.0967 
     57 S57       -52.3115  -22.2374    9.2785 S.3       14 UNK        -0.2604 
     58 C58       -51.8603  -23.5270    8.0642 C.3       14 UNK         0.0134 
     59 N         -50.2999  -24.4101   10.8939 N.am      6 UNK        -0.4116 
     60 C         -50.4085  -25.5366   11.6111 C.2       5 UNK         0.5034 
     61 O         -50.8842  -25.5819   12.7452 O.2       5 UNK        -0.5045 
     62 CA        -49.8415  -26.8231   10.9856 C.3       5 UNK         0.0224 
     63 CB        -50.9264  -27.5948   10.2253 C.3       5 UNK        -0.1978 
     64 N         -48.6842  -26.5770   10.1163 N.am      5 UNK        -0.4737 
     65 C         -47.4919  -26.1933   10.5964 C.2       4 UNK         0.5027 
     66 O         -47.2647  -26.0550   11.7976 O.2       4 UNK        -0.5211 
     67 CA        -46.3805  -25.8607    9.5888 C.3       4 UNK         0.0297 
     68 CB        -45.6756  -27.1330    9.1021 C.3       4 UNK        -0.1993 
     69 N         -46.8334  -25.0851    8.4345 N.am      4 UNK        -0.4486 
     70 C         -47.3895  -23.8700    8.4743 C.2       3 UNK         0.4961 
     71 O         -47.6435  -23.2765    9.5209 O.2       3 UNK        -0.5105 
     72 CA        -47.7412  -23.1989    7.1325 C.3       3 UNK         0.0299 
     73 CB        -46.5094  -22.5010    6.5251 C.3       3 UNK        -0.1972 
     74 N         -48.4012  -24.0830    6.1601 N.am      3 UNK        -0.4305 
     75 C         -47.9154  -25.1727    5.5489 C.2       2 UNK         0.5006 
     76 O         -46.7567  -25.5801    5.6596 O.2       2 UNK        -0.5106 
     77 CA        -48.9183  -25.9706    4.7011 C.3       2 UNK         0.0296 
     78 CB        -48.5771  -25.8519    3.2068 C.3       2 UNK        -0.2002 
     79 N         -48.9793  -27.3879    5.0748 N.am      2 UNK        -0.4032 
     80 C         -49.1695  -27.8786    6.3105 C.2       1 UNK         0.5000 
     81 O         -49.2811  -27.1808    7.3251 O.2       1 UNK        -0.5238 
     82 H82       -47.3006  -29.6692   10.3387 H         1 UNK         0.0889 
     83 H83       -48.8608  -30.4861   10.2405 H         1 UNK         0.0889 
     84 H84       -47.3728  -31.4031   10.0050 H         1 UNK         0.0889 
     85 H85       -49.8996  -29.8123    8.3678 H         1 UNK         0.3028 
     86 H86       -48.5093  -29.8364    5.7767 H         1 UNK         0.0864 
     87 H87       -50.6012  -31.0020    5.7411 H         1 UNK         0.0720 
     88 H88       -50.8458  -29.5394    4.8508 H         1 UNK         0.0720 
     89 H89       -53.7672  -28.3860    5.6835 H         1 UNK         0.0814 
     90 H90       -52.1850  -27.7101    5.3861 H         1 UNK         0.0814 
     91 H91       -51.6997  -25.6284    6.4064 H         1 UNK         0.1469 
     92 H92       -53.7480  -24.3858    9.9683 H         1 UNK         0.1381 
     93 H93       -54.5691  -28.2100    8.2220 H         1 UNK         0.1206 
     94 H94       -55.9665  -25.7113   10.3973 H         1 UNK         0.0813 
     95 H95       -54.7141  -26.4968   11.3253 H         1 UNK         0.0813 
     96 H96       -54.9405  -30.1180   10.0482 H         1 UNK         0.0638 
     97 H97       -53.9926  -28.8543   10.7598 H         1 UNK         0.0638 
     98 H98       -55.7623  -29.1752   12.8020 H         1 UNK         0.0568 
     99 H99       -55.2959  -32.0145   13.8669 H         1 UNK         0.3450 
    100 H100      -56.6481  -32.8851   13.1859 H         1 UNK         0.3450 
    101 H101      -53.9279  -29.5533   13.8392 H         1 UNK         0.2987 
    102 H102      -51.6321  -31.9248   14.0270 H         1 UNK         0.0766 
    103 H103      -50.2916  -31.3701   12.0252 H         1 UNK         0.0798 
    104 H104      -49.5609  -30.6400   13.4428 H         1 UNK         0.0798 
    105 H105      -50.4914  -29.6484   12.3201 H         1 UNK         0.0798 
    106 H106      -51.4768  -29.0226   14.5170 H         1 UNK         0.3198 
    107 H107      -53.4932  -29.0914   17.3862 H         1 UNK         0.0843 
    108 H108      -51.5120  -28.0163   18.4605 H         1 UNK         0.0831 
    109 H109      -50.4505  -28.7275   17.2460 H         1 UNK         0.0831 
    110 H110      -51.3155  -29.7598   18.3753 H         1 UNK         0.0831 
    111 H111      -51.9769  -27.0058   16.1664 H         1 UNK         0.3133 
    112 H112      -53.3771  -26.4318   13.4263 H         1 UNK         0.0566 
    113 H113      -55.5573  -25.1865   15.1730 H         1 UNK         0.0814 
    114 H114      -55.7949  -26.1627   13.7341 H         1 UNK         0.0814 
    115 H115      -55.0495  -24.5804   13.5961 H         1 UNK         0.0814 
    116 H116      -51.9222  -25.0448   14.2408 H         1 UNK         0.3091 
    117 H117      -51.6946  -22.6124   15.6860 H         1 UNK         0.0702 
    118 H118      -50.4729  -22.4738   17.8697 H         1 UNK         0.0785 
    119 H119      -51.1887  -24.0066   18.3675 H         1 UNK         0.0785 
    120 H120      -52.2084  -22.6007   18.0988 H         1 UNK         0.0785 
    121 H121      -49.7919  -23.4873   15.0225 H         1 UNK         0.2998 
    122 H122      -47.5492  -25.5311   16.1811 H         1 UNK         0.0697 
    123 H123      -47.3666  -27.2943   14.3867 H         1 UNK         0.0825 
    124 H124      -48.4727  -27.7526   15.6693 H         1 UNK         0.0825 
    125 H125      -49.1076  -27.1894   14.1321 H         1 UNK         0.0825 
    126 H126      -48.0217  -25.0390   13.3648 H         1 UNK         0.3029 
    127 H127      -47.3175  -21.5533   13.4947 H         1 UNK         0.0897 
    128 H128      -45.7768  -22.1944   11.6398 H         1 UNK         0.0792 
    129 H129      -45.0804  -22.5943   13.2029 H         1 UNK         0.0792 
    130 H130      -45.7690  -23.8639   12.2029 H         1 UNK         0.0792 
    131 H131      -48.0605  -23.1931   11.3090 H         1 UNK         0.3086 
    132 H132      -51.6151  -23.1477   11.8842 H         1 UNK         0.0583 
    133 H133      -50.8189  -21.0222   10.6614 H         1 UNK         0.1020 
    134 H134      -49.9141  -22.0392    9.5839 H         1 UNK         0.1020 
    135 H135      -50.7958  -23.7497    8.1363 H         1 UNK         0.0694 
    136 H136      -52.0158  -23.1073    7.0693 H         1 UNK         0.0694 
    137 H137      -49.8503  -24.4637    9.9930 H         1 UNK         0.2989 
    138 H138      -49.5098  -27.4540   11.8119 H         1 UNK         0.1055 
    139 H139      -51.8308  -27.7035   10.8251 H         1 UNK         0.0806 
    140 H140      -51.2035  -27.0858    9.3053 H         1 UNK         0.0806 
    141 H141      -50.5918  -28.5958    9.9598 H         1 UNK         0.0806 
    142 H142      -48.8161  -26.6914    9.1118 H         1 UNK         0.3061 
    143 H143      -45.6436  -25.2521   10.1165 H         1 UNK         0.0734 
    144 H144      -44.7626  -26.8944    8.5566 H         1 UNK         0.0832 
    145 H145      -45.3962  -27.7779    9.9366 H         1 UNK         0.0832 
    146 H146      -46.3168  -27.7088    8.4365 H         1 UNK         0.0832 
    147 H147      -46.6824  -25.4890    7.5126 H         1 UNK         0.3156 
    148 H148      -48.4722  -22.4211    7.3596 H         1 UNK         0.0589 
    149 H149      -46.7684  -21.9624    5.6136 H         1 UNK         0.0808 
    150 H150      -46.0926  -21.7741    7.2236 H         1 UNK         0.0808 
    151 H151      -45.7144  -23.2069    6.2829 H         1 UNK         0.0808 
    152 H152      -49.3699  -23.8574    5.9852 H         1 UNK         0.3098 
    153 H153      -49.9165  -25.5571    4.8521 H         1 UNK         0.0720 
    154 H154      -48.5424  -24.8069    2.8954 H         1 UNK         0.0791 
    155 H155      -47.6045  -26.2911    2.9798 H         1 UNK         0.0791 
    156 H156      -49.3237  -26.3479    2.5862 H         1 UNK         0.0791 
    157 H157      -48.8740  -28.0433    4.3144 H         1 UNK         0.3028 
@<TRIPOS>BOND
     1    1    2 1    
     2    1   82 1    
     3    1   83 1    
     4    1   84 1    
     5    2    3 2    
     6    2    4 am   BACKBONE|DICT|INTERRES
     7    4    5 1    
     8    4   85 1    
     9    5    6 1    
    10    5   80 1    
    11    5   86 1    
    12    6    7 1    
    13    6   87 1    
    14    6   88 1    
    15    7    8 1    
    16    8    9 1    
    17    8   89 1    
    18    8   90 1    
    19    9   10 ar   
    20    9   14 ar   
    21   10   11 ar   
    22   10   91 1    
    23   11   12 ar   
    24   11   58 1    
    25   12   13 ar   
    26   12   92 1    
    27   13   14 ar   
    28   13   15 1    
    29   14   93 1    
    30   15   16 1    
    31   15   94 1    
    32   15   95 1    
    33   16   17 1    
    34   17   18 1    
    35   17   96 1    
    36   17   97 1    
    37   18   19 1    
    38   18   22 1    
    39   18   98 1    
    40   19   20 am   BACKBONE|DICT|INTERRES
    41   19   21 2    
    42   20   99 1    
    43   20  100 1    
    44   22   23 am   BACKBONE|DICT|INTERRES
    45   22  101 1    
    46   23   24 2    
    47   23   25 1    
    48   25   26 1    
    49   25   27 1    
    50   25  102 1    
    51   26  103 1    
    52   26  104 1    
    53   26  105 1    
    54   27   28 am   BACKBONE|DICT|INTERRES
    55   27  106 1    
    56   28   29 2    
    57   28   30 1    
    58   30   31 1    
    59   30   32 1    
    60   30  107 1    
    61   31  108 1    
    62   31  109 1    
    63   31  110 1    
    64   32   33 am   BACKBONE|DICT|INTERRES
    65   32  111 1    
    66   33   34 2    
    67   33   35 1    
    68   35   36 1    
    69   35   37 1    
    70   35  112 1    
    71   36  113 1    
    72   36  114 1    
    73   36  115 1    
    74   37   38 am   BACKBONE|DICT|INTERRES
    75   37  116 1    
    76   38   39 2    
    77   38   40 1    
    78   40   41 1    
    79   40   42 1    
    80   40  117 1    
    81   41  118 1    
    82   41  119 1    
    83   41  120 1    
    84   42   43 am   BACKBONE|DICT|INTERRES
    85   42  121 1    
    86   43   44 2    
    87   43   45 1    
    88   45   46 1    
    89   45   47 1    
    90   45  122 1    
    91   46  123 1    
    92   46  124 1    
    93   46  125 1    
    94   47   48 am   BACKBONE|DICT|INTERRES
    95   47  126 1    
    96   48   49 2    
    97   48   50 1    
    98   50   51 1    
    99   50   52 1    
   100   50  127 1    
   101   51  128 1    
   102   51  129 1    
   103   51  130 1    
   104   52   53 am   BACKBONE|DICT|INTERRES
   105   52  131 1    
   106   53   54 2    
   107   53   55 1    
   108   55   56 1    
   109   55   59 1    
   110   55  132 1    
   111   56   57 1    
   112   56  133 1    
   113   56  134 1    
   114   57   58 1    
   115   58  135 1    
   116   58  136 1    
   117   59   60 am   BACKBONE|DICT|INTERRES
   118   59  137 1    
   119   60   61 2    
   120   60   62 1    
   121   62   63 1    
   122   62   64 1    
   123   62  138 1    
   124   63  139 1    
   125   63  140 1    
   126   63  141 1    
   127   64   65 am   BACKBONE|DICT|INTERRES
   128   64  142 1    
   129   65   66 2    
   130   65   67 1    
   131   67   68 1    
   132   67   69 1    
   133   67  143 1    
   134   68  144 1    
   135   68  145 1    
   136   68  146 1    
   137   69   70 am   BACKBONE|DICT|INTERRES
   138   69  147 1    
   139   70   71 2    
   140   70   72 1    
   141   72   73 1    
   142   72   74 1    
   143   72  148 1    
   144   73  149 1    
   145   73  150 1    
   146   73  151 1    
   147   74   75 am   BACKBONE|DICT|INTERRES
   148   74  152 1    
   149   75   76 2    
   150   75   77 1    
   151   77   78 1    
   152   77   79 1    
   153   77  153 1    
   154   78  154 1    
   155   78  155 1    
   156   78  156 1    
   157   79   80 am   BACKBONE|DICT|INTERRES
   158   79  157 1    
   159   80   81 2    
@<TRIPOS>SUBSTRUCTURE
     1 UNK         1 GROUP             0       ****    0 ROOT    
