@<TRIPOS>MOLECULE
3R207
157   159    1
SMALL
USER_CHARGES


@<TRIPOS>ATOM
      1 CA        -49.5977  -30.3985    2.3445 C.3       0 UNK        -0.1975 
      2 C         -49.9686  -29.2077    3.2156 C.2       0 UNK         0.4852 
      3 O         -50.8123  -28.4011    2.8240 O.2       0 UNK        -0.5216 
      4 N         -49.3366  -29.0840    4.3907 N.am      1 UNK        -0.4461 
      5 CA        -49.6021  -28.0328    5.3864 C.3       1 UNK         0.0864 
      6 C6        -49.2518  -28.4818    6.8333 C.3       14 UNK        -0.0898 
      7 S7        -49.7976  -30.1741    7.2504 S.3       14 UNK        -0.2598 
      8 C8        -51.5856  -29.9580    7.5188 C.3       14 UNK         0.0286 
      9 C9        -51.9014  -29.2961    8.8521 C.ar      14 UNK        -0.0844 
     10 C10       -52.5134  -28.0399    8.8932 C.ar      14 UNK        -0.0881 
     11 C11       -52.8468  -27.4525   10.1175 C.ar      14 UNK        -0.0643 
     12 C12       -52.5398  -28.1190   11.3058 C.ar      14 UNK        -0.0930 
     13 C13       -51.9491  -29.3869   11.2783 C.ar      14 UNK        -0.0827 
     14 C14       -51.6293  -29.9670   10.0479 C.ar      14 UNK        -0.1249 
     15 C15       -51.6732  -30.1449   12.5700 C.3       14 UNK         0.0141 
     16 S16       -53.1186  -30.2021   13.6829 S.3       14 UNK        -0.2313 
     17 C17       -54.2960  -31.2350   12.7432 C.3       14 UNK        -0.0915 
     18 CA        -55.2285  -30.4386   11.7865 C.3       13 UNK         0.0968 
     19 C         -56.2266  -31.3917   11.0667 C.2       13 UNK         0.5732 
     20 N         -57.5347  -31.2487   11.2463 N.am      13 UNK        -0.7310 
     21 O         -55.8057  -32.2781   10.3271 O.2       13 UNK        -0.5035 
     22 N         -55.8459  -29.2742   12.4456 N.am      13 UNK        -0.4233 
     23 C         -56.3369  -28.2060   11.8028 C.2       13 UNK         0.4989 
     24 O         -56.3647  -28.1026   10.5762 O.2       13 UNK        -0.4996 
     25 CA        -56.9128  -27.0544   12.6509 C.3       12 UNK         0.0216 
     26 CB        -58.4359  -26.9546   12.4580 C.3       12 UNK        -0.1964 
     27 N         -56.6236  -27.1491   14.0861 N.am      12 UNK        -0.4276 
     28 C         -55.4373  -26.8900   14.6509 C.2       12 UNK         0.5020 
     29 O         -54.4301  -26.5692   14.0159 O.2       12 UNK        -0.5489 
     30 CA        -55.3799  -27.0607   16.1807 C.3       11 UNK         0.0294 
     31 CB        -55.3104  -28.5508   16.5566 C.3       11 UNK        -0.2019 
     32 N         -54.2297  -26.3823   16.7747 N.am      11 UNK        -0.4493 
     33 C         -54.0579  -25.0597   16.8786 C.2       11 UNK         0.4932 
     34 O         -54.9253  -24.2358   16.5846 O.2       11 UNK        -0.5029 
     35 CA        -52.6906  -24.5601   17.3896 C.3       10 UNK         0.0280 
     36 CB        -52.7062  -24.3381   18.9149 C.3       10 UNK        -0.1976 
     37 N         -51.5452  -25.3824   16.9634 N.am      10 UNK        -0.4242 
     38 C         -51.2212  -26.6299   17.3364 C.2       10 UNK         0.5072 
     39 O         -51.8547  -27.2800   18.1685 O.2       10 UNK        -0.5224 
     40 CA        -50.0437  -27.3090   16.6214 C.3       9 UNK         0.0343 
     41 CB        -50.5658  -28.1994   15.4855 C.3       9 UNK        -0.2003 
     42 N         -49.0526  -26.3824   16.0760 N.am      9 UNK        -0.4272 
     43 C         -48.1259  -25.7486   16.8072 C.2       9 UNK         0.4988 
     44 O         -48.0525  -25.8162   18.0346 O.2       9 UNK        -0.5108 
     45 CA        -47.0956  -24.9135   16.0339 C.3       8 UNK         0.0248 
     46 CB        -46.0448  -25.8201   15.3707 C.3       8 UNK        -0.2001 
     47 N         -47.7394  -24.0857   15.0158 N.am      8 UNK        -0.4140 
     48 C         -48.2690  -22.8779   15.2501 C.2       8 UNK         0.5028 
     49 O         -48.2157  -22.3027   16.3379 O.2       8 UNK        -0.5428 
     50 CA        -48.9844  -22.1916   14.0747 C.3       7 UNK         0.0264 
     51 CB        -48.0126  -21.2796   13.3087 C.3       7 UNK        -0.1988 
     52 N         -49.5998  -23.1385   13.1414 N.am      7 UNK        -0.4454 
     53 C         -50.6807  -23.8827   13.4274 C.2       7 UNK         0.5027 
     54 O         -51.2499  -23.8617   14.5170 O.2       7 UNK        -0.5083 
     55 CA        -51.2067  -24.8133   12.3148 C.3       6 UNK         0.0844 
     56 C56       -52.1822  -24.0168   11.4032 C.3       14 UNK        -0.0967 
     57 S57       -52.4954  -24.7361    9.7531 S.3       14 UNK        -0.2604 
     58 C58       -53.5926  -26.1276   10.1470 C.3       14 UNK         0.0134 
     59 N         -50.1332  -25.4561   11.5572 N.am      6 UNK        -0.4116 
     60 C         -49.0879  -26.1411   12.0380 C.2       5 UNK         0.5034 
     61 O         -48.9011  -26.3760   13.2321 O.2       5 UNK        -0.5045 
     62 CA        -48.0304  -26.5746   11.0082 C.3       5 UNK         0.0224 
     63 CB        -48.2979  -28.0192   10.5560 C.3       5 UNK        -0.1978 
     64 N         -47.9443  -25.7046    9.8248 N.am      5 UNK        -0.4737 
     65 C         -47.7607  -24.3740    9.8281 C.2       4 UNK         0.5027 
     66 O         -47.6633  -23.6966   10.8535 O.2       4 UNK        -0.5211 
     67 CA        -47.7212  -23.7014    8.4452 C.3       4 UNK         0.0297 
     68 CB        -47.3115  -22.2139    8.5021 C.3       4 UNK        -0.1993 
     69 N         -46.9016  -24.4534    7.4881 N.am      4 UNK        -0.4486 
     70 C         -45.5754  -24.6679    7.5414 C.2       3 UNK         0.4961 
     71 O         -44.8426  -24.2172    8.4223 O.2       3 UNK        -0.5105 
     72 CA        -44.9425  -25.5487    6.4423 C.3       3 UNK         0.0299 
     73 CB        -44.4311  -26.8689    7.0446 C.3       3 UNK        -0.1972 
     74 N         -45.8466  -25.8611    5.3333 N.am      3 UNK        -0.4305 
     75 C         -46.2852  -24.9908    4.4127 C.2       2 UNK         0.5006 
     76 O         -45.8822  -23.8311    4.3203 O.2       2 UNK        -0.5106 
     77 CA        -47.3871  -25.4844    3.4551 C.3       2 UNK         0.0296 
     78 CB        -46.7923  -25.8164    2.0767 C.3       2 UNK        -0.2002 
     79 N         -48.1431  -26.6460    3.9431 N.am      2 UNK        -0.4032 
     80 C         -48.9017  -26.6938    5.0511 C.2       1 UNK         0.5000 
     81 O         -49.0162  -25.7424    5.8270 O.2       1 UNK        -0.5238 
     82 H82       -50.4769  -31.0153    2.1601 H         1 UNK         0.0889 
     83 H83       -48.8372  -31.0243    2.8113 H         1 UNK         0.0889 
     84 H84       -49.2136  -30.0565    1.3839 H         1 UNK         0.0889 
     85 H85       -48.6685  -29.7882    4.6729 H         1 UNK         0.3028 
     86 H86       -50.6729  -27.8197    5.3663 H         1 UNK         0.0864 
     87 H87       -49.6793  -27.7888    7.5605 H         1 UNK         0.0720 
     88 H88       -48.1717  -28.4538    6.9903 H         1 UNK         0.0720 
     89 H89       -52.0598  -30.9402    7.4972 H         1 UNK         0.0814 
     90 H90       -52.0159  -29.3986    6.6872 H         1 UNK         0.0814 
     91 H91       -52.7525  -27.5239    7.9735 H         1 UNK         0.1469 
     92 H92       -52.8055  -27.6744   12.2548 H         1 UNK         0.1381 
     93 H93       -51.1735  -30.9472   10.0149 H         1 UNK         0.1206 
     94 H94       -50.8445  -29.6578   13.0818 H         1 UNK         0.0813 
     95 H95       -51.3476  -31.1655   12.3637 H         1 UNK         0.0813 
     96 H96       -53.7315  -31.9861   12.1875 H         1 UNK         0.0638 
     97 H97       -54.8932  -31.7854   13.4722 H         1 UNK         0.0638 
     98 H98       -54.6028  -30.0459   10.9846 H         1 UNK         0.0568 
     99 H99       -57.8918  -30.5237   11.8464 H         1 UNK         0.3450 
    100 H100      -58.1688  -31.8713   10.7712 H         1 UNK         0.3450 
    101 H101      -55.8443  -29.2810   13.4533 H         1 UNK         0.2987 
    102 H102      -56.4635  -26.1320   12.2765 H         1 UNK         0.0766 
    103 H103      -58.6911  -26.8401   11.4034 H         1 UNK         0.0798 
    104 H104      -58.8469  -26.0908   12.9812 H         1 UNK         0.0798 
    105 H105      -58.9500  -27.8450   12.8219 H         1 UNK         0.0798 
    106 H106      -57.3952  -27.4149   14.6821 H         1 UNK         0.3198 
    107 H107      -56.2863  -26.6279   16.6096 H         1 UNK         0.0843 
    108 H108      -54.4059  -29.0208   16.1687 H         1 UNK         0.0831 
    109 H109      -56.1624  -29.1042   16.1603 H         1 UNK         0.0831 
    110 H110      -55.3166  -28.6861   17.6384 H         1 UNK         0.0831 
    111 H111      -53.4626  -26.9676   17.0871 H         1 UNK         0.3133 
    112 H112      -52.5290  -23.5859   16.9258 H         1 UNK         0.0566 
    113 H113      -51.7532  -23.9440   19.2679 H         1 UNK         0.0814 
    114 H114      -52.9138  -25.2577   19.4623 H         1 UNK         0.0814 
    115 H115      -53.4778  -23.6189   19.1921 H         1 UNK         0.0814 
    116 H116      -51.0224  -24.9747   16.1945 H         1 UNK         0.3091 
    117 H117      -49.5458  -27.9513   17.3512 H         1 UNK         0.0702 
    118 H118      -49.7505  -28.7423   15.0074 H         1 UNK         0.0785 
    119 H119      -51.0792  -27.6175   14.7180 H         1 UNK         0.0785 
    120 H120      -51.2728  -28.9401   15.8615 H         1 UNK         0.0785 
    121 H121      -49.0178  -26.3033   15.0613 H         1 UNK         0.2998 
    122 H122      -46.5781  -24.2693   16.7483 H         1 UNK         0.0697 
    123 H123      -46.4888  -26.4904   14.6336 H         1 UNK         0.0825 
    124 H124      -45.5422  -26.4407   16.1139 H         1 UNK         0.0825 
    125 H125      -45.2767  -25.2324   14.8678 H         1 UNK         0.0825 
    126 H126      -47.8654  -24.4987   14.1014 H         1 UNK         0.3029 
    127 H127      -49.7772  -21.5681   14.4942 H         1 UNK         0.0897 
    128 H128      -47.1939  -21.8458   12.8624 H         1 UNK         0.0792 
    129 H129      -47.5705  -20.5355   13.9727 H         1 UNK         0.0792 
    130 H130      -48.5205  -20.7396   12.5095 H         1 UNK         0.0792 
    131 H131      -49.1401  -23.2544   12.2428 H         1 UNK         0.3086 
    132 H132      -51.7664  -25.6148   12.7999 H         1 UNK         0.0583 
    133 H133      -53.1351  -23.8712   11.9162 H         1 UNK         0.1020 
    134 H134      -51.7997  -23.0113   11.2126 H         1 UNK         0.1020 
    135 H135      -54.0704  -25.9728   11.1157 H         1 UNK         0.0694 
    136 H136      -54.4005  -26.1571    9.4145 H         1 UNK         0.0694 
    137 H137      -50.1968  -25.3446   10.5559 H         1 UNK         0.2989 
    138 H138      -47.0611  -26.5395   11.5099 H         1 UNK         0.1055 
    139 H139      -49.2516  -28.1082   10.0338 H         1 UNK         0.0806 
    140 H140      -47.5147  -28.3838    9.8913 H         1 UNK         0.0806 
    141 H141      -48.3360  -28.6956   11.4113 H         1 UNK         0.0806 
    142 H142      -48.0137  -26.1616    8.9276 H         1 UNK         0.3061 
    143 H143      -48.7423  -23.7411    8.0622 H         1 UNK         0.0734 
    144 H144      -46.3247  -22.0789    8.9457 H         1 UNK         0.0832 
    145 H145      -47.2977  -21.7675    7.5079 H         1 UNK         0.0832 
    146 H146      -48.0158  -21.6402    9.1057 H         1 UNK         0.0832 
    147 H147      -47.4266  -24.8857    6.7334 H         1 UNK         0.3156 
    148 H148      -44.0880  -25.0010    6.0396 H         1 UNK         0.0589 
    149 H149      -43.9226  -27.4774    6.2965 H         1 UNK         0.0808 
    150 H150      -43.7143  -26.6819    7.8456 H         1 UNK         0.0808 
    151 H151      -45.2428  -27.4621    7.4678 H         1 UNK         0.0808 
    152 H152      -46.2173  -26.7992    5.3069 H         1 UNK         0.3098 
    153 H153      -48.0957  -24.6626    3.3335 H         1 UNK         0.0720 
    154 H154      -46.2502  -24.9619    1.6686 H         1 UNK         0.0791 
    155 H155      -47.5715  -26.0743    1.3590 H         1 UNK         0.0791 
    156 H156      -46.0922  -26.6513    2.1289 H         1 UNK         0.0791 
    157 H157      -48.1070  -27.4782    3.3727 H         1 UNK         0.3028 
@<TRIPOS>BOND
     1    1    2 1    
     2    1   82 1    
     3    1   83 1    
     4    1   84 1    
     5    2    3 2    
     6    2    4 am   BACKBONE|DICT|INTERRES
     7    4    5 1    
     8    4   85 1    
     9    5    6 1    
    10    5   80 1    
    11    5   86 1    
    12    6    7 1    
    13    6   87 1    
    14    6   88 1    
    15    7    8 1    
    16    8    9 1    
    17    8   89 1    
    18    8   90 1    
    19    9   10 ar   
    20    9   14 ar   
    21   10   11 ar   
    22   10   91 1    
    23   11   12 ar   
    24   11   58 1    
    25   12   13 ar   
    26   12   92 1    
    27   13   14 ar   
    28   13   15 1    
    29   14   93 1    
    30   15   16 1    
    31   15   94 1    
    32   15   95 1    
    33   16   17 1    
    34   17   18 1    
    35   17   96 1    
    36   17   97 1    
    37   18   19 1    
    38   18   22 1    
    39   18   98 1    
    40   19   20 am   BACKBONE|DICT|INTERRES
    41   19   21 2    
    42   20   99 1    
    43   20  100 1    
    44   22   23 am   BACKBONE|DICT|INTERRES
    45   22  101 1    
    46   23   24 2    
    47   23   25 1    
    48   25   26 1    
    49   25   27 1    
    50   25  102 1    
    51   26  103 1    
    52   26  104 1    
    53   26  105 1    
    54   27   28 am   BACKBONE|DICT|INTERRES
    55   27  106 1    
    56   28   29 2    
    57   28   30 1    
    58   30   31 1    
    59   30   32 1    
    60   30  107 1    
    61   31  108 1    
    62   31  109 1    
    63   31  110 1    
    64   32   33 am   BACKBONE|DICT|INTERRES
    65   32  111 1    
    66   33   34 2    
    67   33   35 1    
    68   35   36 1    
    69   35   37 1    
    70   35  112 1    
    71   36  113 1    
    72   36  114 1    
    73   36  115 1    
    74   37   38 am   BACKBONE|DICT|INTERRES
    75   37  116 1    
    76   38   39 2    
    77   38   40 1    
    78   40   41 1    
    79   40   42 1    
    80   40  117 1    
    81   41  118 1    
    82   41  119 1    
    83   41  120 1    
    84   42   43 am   BACKBONE|DICT|INTERRES
    85   42  121 1    
    86   43   44 2    
    87   43   45 1    
    88   45   46 1    
    89   45   47 1    
    90   45  122 1    
    91   46  123 1    
    92   46  124 1    
    93   46  125 1    
    94   47   48 am   BACKBONE|DICT|INTERRES
    95   47  126 1    
    96   48   49 2    
    97   48   50 1    
    98   50   51 1    
    99   50   52 1    
   100   50  127 1    
   101   51  128 1    
   102   51  129 1    
   103   51  130 1    
   104   52   53 am   BACKBONE|DICT|INTERRES
   105   52  131 1    
   106   53   54 2    
   107   53   55 1    
   108   55   56 1    
   109   55   59 1    
   110   55  132 1    
   111   56   57 1    
   112   56  133 1    
   113   56  134 1    
   114   57   58 1    
   115   58  135 1    
   116   58  136 1    
   117   59   60 am   BACKBONE|DICT|INTERRES
   118   59  137 1    
   119   60   61 2    
   120   60   62 1    
   121   62   63 1    
   122   62   64 1    
   123   62  138 1    
   124   63  139 1    
   125   63  140 1    
   126   63  141 1    
   127   64   65 am   BACKBONE|DICT|INTERRES
   128   64  142 1    
   129   65   66 2    
   130   65   67 1    
   131   67   68 1    
   132   67   69 1    
   133   67  143 1    
   134   68  144 1    
   135   68  145 1    
   136   68  146 1    
   137   69   70 am   BACKBONE|DICT|INTERRES
   138   69  147 1    
   139   70   71 2    
   140   70   72 1    
   141   72   73 1    
   142   72   74 1    
   143   72  148 1    
   144   73  149 1    
   145   73  150 1    
   146   73  151 1    
   147   74   75 am   BACKBONE|DICT|INTERRES
   148   74  152 1    
   149   75   76 2    
   150   75   77 1    
   151   77   78 1    
   152   77   79 1    
   153   77  153 1    
   154   78  154 1    
   155   78  155 1    
   156   78  156 1    
   157   79   80 am   BACKBONE|DICT|INTERRES
   158   79  157 1    
   159   80   81 2    
@<TRIPOS>SUBSTRUCTURE
     1 UNK         1 GROUP             0       ****    0 ROOT    
