@<TRIPOS>MOLECULE
3R207
157   159    1
SMALL
USER_CHARGES


@<TRIPOS>ATOM
      1 CA        -44.9698  -31.4751    6.5443 C.3       0 UNK        -0.1975 
      2 C         -45.9446  -30.6333    5.7336 C.2       0 UNK         0.4852 
      3 O         -45.6506  -30.2928    4.5864 O.2       0 UNK        -0.5216 
      4 N         -47.1041  -30.3055    6.3183 N.am      1 UNK        -0.4461 
      5 CA        -48.1219  -29.4327    5.7247 C.3       1 UNK         0.0864 
      6 C6        -49.5160  -29.7001    6.3521 C.3       14 UNK        -0.0898 
      7 S7        -50.8907  -29.2223    5.2509 S.3       14 UNK        -0.2598 
      8 C8        -52.3165  -29.9457    6.1188 C.3       14 UNK         0.0286 
      9 C9        -52.5416  -29.3158    7.4865 C.ar      14 UNK        -0.0844 
     10 C10       -53.1334  -28.0535    7.5967 C.ar      14 UNK        -0.0881 
     11 C11       -53.3792  -27.4844    8.8513 C.ar      14 UNK        -0.0643 
     12 C12       -53.0363  -28.2060   10.0011 C.ar      14 UNK        -0.0930 
     13 C13       -52.4300  -29.4619    9.9060 C.ar      14 UNK        -0.0827 
     14 C14       -52.1808  -30.0083    8.6448 C.ar      14 UNK        -0.1249 
     15 C15       -52.0300  -30.2314   11.1569 C.3       14 UNK         0.0141 
     16 S16       -53.0787  -31.7030   11.4027 S.3       14 UNK        -0.2313 
     17 C17       -54.2358  -31.1495   12.6993 C.3       14 UNK        -0.0915 
     18 CA        -55.4261  -30.2980   12.1639 C.3       13 UNK         0.0968 
     19 C         -56.5792  -31.1519   11.5723 C.2       13 UNK         0.5732 
     20 N         -56.3180  -31.9037   10.5131 N.am      13 UNK        -0.7310 
     21 O         -57.7084  -31.1415   12.0627 O.2       13 UNK        -0.5035 
     22 N         -55.9390  -29.3725   13.1807 N.am      13 UNK        -0.4233 
     23 C         -55.2933  -28.2943   13.6301 C.2       13 UNK         0.4989 
     24 O         -54.1729  -27.9629   13.2415 O.2       13 UNK        -0.4996 
     25 CA        -56.0007  -27.4669   14.7148 C.3       12 UNK         0.0216 
     26 CB        -55.9603  -28.1934   16.0698 C.3       12 UNK        -0.1964 
     27 N         -55.3295  -26.1737   14.8456 N.am      12 UNK        -0.4276 
     28 C         -55.6336  -25.0903   14.1194 C.2       12 UNK         0.5020 
     29 O         -56.6505  -25.0057   13.4276 O.2       12 UNK        -0.5489 
     30 CA        -54.6314  -23.9184   14.1148 C.3       11 UNK         0.0294 
     31 CB        -55.3249  -22.5470   14.2602 C.3       11 UNK        -0.2019 
     32 N         -53.5115  -24.0630   15.0536 N.am      11 UNK        -0.4493 
     33 C         -53.5388  -23.9951   16.3922 C.2       11 UNK         0.4932 
     34 O         -54.5600  -23.7893   17.0497 O.2       11 UNK        -0.5029 
     35 CA        -52.1895  -24.2024   17.1094 C.3       10 UNK         0.0280 
     36 CB        -52.3427  -24.4307   18.6284 C.3       10 UNK        -0.1976 
     37 N         -51.3630  -25.2577   16.5089 N.am      10 UNK        -0.4242 
     38 C         -51.6792  -26.5558   16.3686 C.2       10 UNK         0.5072 
     39 O         -52.7644  -27.0229   16.7152 O.2       10 UNK        -0.5224 
     40 CA        -50.6343  -27.5035   15.7391 C.3       9 UNK         0.0343 
     41 CB        -51.2428  -28.3135   14.5832 C.3       9 UNK        -0.2003 
     42 N         -49.4365  -26.8222   15.2457 N.am      9 UNK        -0.4272 
     43 C         -48.3908  -26.4442   15.9919 C.2       9 UNK         0.4988 
     44 O         -48.2775  -26.6944   17.1920 O.2       9 UNK        -0.5108 
     45 CA        -47.3124  -25.5979   15.2890 C.3       8 UNK         0.0248 
     46 CB        -46.2656  -26.5005   14.6175 C.3       8 UNK        -0.2001 
     47 N         -47.8649  -24.6572   14.3053 N.am      8 UNK        -0.4140 
     48 C         -48.7264  -23.6715   14.6030 C.2       8 UNK         0.5028 
     49 O         -49.1122  -23.4246   15.7458 O.2       8 UNK        -0.5428 
     50 CA        -49.3033  -22.8599   13.4332 C.3       7 UNK         0.0264 
     51 CB        -48.2946  -21.8071   12.9474 C.3       7 UNK        -0.1988 
     52 N         -49.7238  -23.7042   12.3133 N.am      7 UNK        -0.4454 
     53 C         -50.7042  -24.6180   12.3671 C.2       7 UNK         0.5027 
     54 O         -51.3987  -24.8043   13.3660 O.2       7 UNK        -0.5083 
     55 CA        -50.9035  -25.5124   11.1239 C.3       6 UNK         0.0844 
     56 C56       -51.7638  -24.8328   10.0289 C.3       14 UNK        -0.0967 
     57 S57       -53.5469  -25.0646   10.3380 S.3       14 UNK        -0.2604 
     58 C58       -54.0554  -26.1140    8.9288 C.3       14 UNK         0.0134 
     59 N         -49.6310  -26.0025   10.5945 N.am      6 UNK        -0.4116 
     60 C         -48.7992  -26.8146   11.2613 C.2       5 UNK         0.5034 
     61 O         -49.0295  -27.2727   12.3792 O.2       5 UNK        -0.5045 
     62 CA        -47.4611  -27.1341   10.5829 C.3       5 UNK         0.0224 
     63 CB        -47.6238  -28.3105    9.6120 C.3       5 UNK        -0.1978 
     64 N         -46.9086  -25.9722    9.8806 N.am      5 UNK        -0.4737 
     65 C         -46.4552  -24.8762   10.5073 C.2       4 UNK         0.5027 
     66 O         -46.4232  -24.7541   11.7321 O.2       4 UNK        -0.5211 
     67 CA        -46.0103  -23.7022    9.6202 C.3       4 UNK         0.0297 
     68 CB        -44.6282  -23.9760    9.0061 C.3       4 UNK        -0.1993 
     69 N         -46.9710  -23.3939    8.5576 N.am      4 UNK        -0.4486 
     70 C         -48.2372  -23.0001    8.7593 C.2       3 UNK         0.4961 
     71 O         -48.7329  -22.8325    9.8705 O.2       3 UNK        -0.5105 
     72 CA        -49.1190  -22.7820    7.5191 C.3       3 UNK         0.0299 
     73 CB        -49.0911  -21.3053    7.0951 C.3       3 UNK        -0.1972 
     74 N         -48.7546  -23.6262    6.3789 N.am      3 UNK        -0.4305 
     75 C         -48.7950  -24.9657    6.3725 C.2       2 UNK         0.5006 
     76 O         -49.1572  -25.6378    7.3432 O.2       2 UNK        -0.5106 
     77 CA        -48.3677  -25.6325    5.0489 C.3       2 UNK         0.0296 
     78 CB        -46.9693  -25.1661    4.5826 C.3       2 UNK        -0.2002 
     79 N         -48.4460  -27.0966    5.0880 N.am      2 UNK        -0.4032 
     80 C         -47.7113  -27.9439    5.8221 C.2       1 UNK         0.5000 
     81 O         -46.7745  -27.5976    6.5495 O.2       1 UNK        -0.5238 
     82 H82       -44.0297  -30.9393    6.6722 H         1 UNK         0.0889 
     83 H83       -44.7616  -32.4114    6.0272 H         1 UNK         0.0889 
     84 H84       -45.3607  -31.7136    7.5333 H         1 UNK         0.0889 
     85 H85       -47.2725  -30.5882    7.2725 H         1 UNK         0.3028 
     86 H86       -48.1756  -29.6828    4.6624 H         1 UNK         0.0864 
     87 H87       -49.6319  -30.7653    6.5600 H         1 UNK         0.0720 
     88 H88       -49.6298  -29.1926    7.3109 H         1 UNK         0.0720 
     89 H89       -52.1759  -31.0241    6.2075 H         1 UNK         0.0814 
     90 H90       -53.2087  -29.8072    5.5065 H         1 UNK         0.0814 
     91 H91       -53.4097  -27.5177    6.6987 H         1 UNK         0.1469 
     92 H92       -53.2391  -27.7868   10.9744 H         1 UNK         0.1381 
     93 H93       -51.7178  -30.9827    8.5681 H         1 UNK         0.1206 
     94 H94       -50.9920  -30.5521   11.0580 H         1 UNK         0.0813 
     95 H95       -52.0639  -29.5870   12.0363 H         1 UNK         0.0813 
     96 H96       -54.6023  -32.0267   13.2353 H         1 UNK         0.0638 
     97 H97       -53.6512  -30.5957   13.4345 H         1 UNK         0.0638 
     98 H98       -55.0750  -29.6725   11.3421 H         1 UNK         0.0568 
     99 H99       -57.0514  -32.4666   10.1124 H         1 UNK         0.3450 
    100 H100      -55.3861  -31.9338   10.1276 H         1 UNK         0.3450 
    101 H101      -56.8713  -29.5897   13.5083 H         1 UNK         0.2987 
    102 H102      -57.0432  -27.3201   14.4247 H         1 UNK         0.0766 
    103 H103      -56.3822  -27.5769   16.8638 H         1 UNK         0.0798 
    104 H104      -54.9424  -28.4583   16.3574 H         1 UNK         0.0798 
    105 H105      -56.5377  -29.1180   16.0370 H         1 UNK         0.0798 
    106 H106      -54.4481  -26.1843   15.3446 H         1 UNK         0.3198 
    107 H107      -54.1720  -23.9407   13.1257 H         1 UNK         0.0843 
    108 H108      -55.8854  -22.4703   15.1920 H         1 UNK         0.0831 
    109 H109      -56.0315  -22.3804   13.4463 H         1 UNK         0.0831 
    110 H110      -54.6029  -21.7312   14.2315 H         1 UNK         0.0831 
    111 H111      -52.6253  -24.2992   14.6048 H         1 UNK         0.3133 
    112 H112      -51.6339  -23.2736   16.9738 H         1 UNK         0.0566 
    113 H113      -51.3725  -24.5454   19.1116 H         1 UNK         0.0814 
    114 H114      -52.8415  -23.5849   19.1031 H         1 UNK         0.0814 
    115 H115      -52.9340  -25.3206   18.8464 H         1 UNK         0.0814 
    116 H116      -50.4623  -24.9437   16.1630 H         1 UNK         0.3091 
    117 H117      -50.3380  -28.2072   16.5194 H         1 UNK         0.0702 
    118 H118      -52.1154  -28.8803   14.9100 H         1 UNK         0.0785 
    119 H119      -51.5617  -27.6626   13.7683 H         1 UNK         0.0785 
    120 H120      -50.5264  -29.0280   14.1777 H         1 UNK         0.0785 
    121 H121      -49.4115  -26.6339   14.2480 H         1 UNK         0.2998 
    122 H122      -46.8078  -25.0068   16.0560 H         1 UNK         0.0697 
    123 H123      -46.7071  -27.1164   13.8341 H         1 UNK         0.0825 
    124 H124      -45.8086  -27.1744   15.3433 H         1 UNK         0.0825 
    125 H125      -45.4635  -25.9136   14.1695 H         1 UNK         0.0825 
    126 H126      -47.5539  -24.7638   13.3429 H         1 UNK         0.3029 
    127 H127      -50.1887  -22.3367   13.8010 H         1 UNK         0.0897 
    128 H128      -47.4014  -22.2673   12.5236 H         1 UNK         0.0792 
    129 H129      -47.9746  -21.1636   13.7680 H         1 UNK         0.0792 
    130 H130      -48.7319  -21.1646   12.1830 H         1 UNK         0.0792 
    131 H131      -49.2377  -23.5548   11.4294 H         1 UNK         0.3086 
    132 H132      -51.4306  -26.4026   11.4711 H         1 UNK         0.0583 
    133 H133      -51.5447  -23.7664    9.9453 H         1 UNK         0.1020 
    134 H134      -51.5304  -25.2538    9.0490 H         1 UNK         0.1020 
    135 H135      -55.1332  -26.2692    8.9898 H         1 UNK         0.0694 
    136 H136      -53.8772  -25.5542    8.0092 H         1 UNK         0.0694 
    137 H137      -49.3617  -25.6887    9.6707 H         1 UNK         0.2989 
    138 H138      -46.7548  -27.4289   11.3620 H         1 UNK         0.1055 
    139 H139      -48.0172  -29.1904   10.1230 H         1 UNK         0.0806 
    140 H140      -46.6708  -28.5912    9.1632 H         1 UNK         0.0806 
    141 H141      -48.3158  -28.0609    8.8087 H         1 UNK         0.0806 
    142 H142      -46.9317  -25.9923    8.8692 H         1 UNK         0.3061 
    143 H143      -45.9305  -22.8199   10.2589 H         1 UNK         0.0734 
    144 H144      -44.2593  -23.1102    8.4561 H         1 UNK         0.0832 
    145 H145      -43.8953  -24.1999    9.7827 H         1 UNK         0.0832 
    146 H146      -44.6475  -24.8258    8.3224 H         1 UNK         0.0832 
    147 H147      -46.6545  -23.5077    7.6062 H         1 UNK         0.3156 
    148 H148      -50.1434  -23.0352    7.8002 H         1 UNK         0.0589 
    149 H149      -48.0963  -20.9946    6.7732 H         1 UNK         0.0808 
    150 H150      -49.7858  -21.1127    6.2773 H         1 UNK         0.0808 
    151 H151      -49.3822  -20.6570    7.9230 H         1 UNK         0.0808 
    152 H152      -48.4651  -23.1469    5.5383 H         1 UNK         0.3098 
    153 H153      -49.0940  -25.3200    4.2971 H         1 UNK         0.0720 
    154 H154      -46.6515  -25.7047    3.6896 H         1 UNK         0.0791 
    155 H155      -46.2099  -25.3203    5.3500 H         1 UNK         0.0791 
    156 H156      -46.9632  -24.1057    4.3293 H         1 UNK         0.0791 
    157 H157      -49.2324  -27.4945    4.5911 H         1 UNK         0.3028 
@<TRIPOS>BOND
     1    1    2 1    
     2    1   82 1    
     3    1   83 1    
     4    1   84 1    
     5    2    3 2    
     6    2    4 am   BACKBONE|DICT|INTERRES
     7    4    5 1    
     8    4   85 1    
     9    5    6 1    
    10    5   80 1    
    11    5   86 1    
    12    6    7 1    
    13    6   87 1    
    14    6   88 1    
    15    7    8 1    
    16    8    9 1    
    17    8   89 1    
    18    8   90 1    
    19    9   10 ar   
    20    9   14 ar   
    21   10   11 ar   
    22   10   91 1    
    23   11   12 ar   
    24   11   58 1    
    25   12   13 ar   
    26   12   92 1    
    27   13   14 ar   
    28   13   15 1    
    29   14   93 1    
    30   15   16 1    
    31   15   94 1    
    32   15   95 1    
    33   16   17 1    
    34   17   18 1    
    35   17   96 1    
    36   17   97 1    
    37   18   19 1    
    38   18   22 1    
    39   18   98 1    
    40   19   20 am   BACKBONE|DICT|INTERRES
    41   19   21 2    
    42   20   99 1    
    43   20  100 1    
    44   22   23 am   BACKBONE|DICT|INTERRES
    45   22  101 1    
    46   23   24 2    
    47   23   25 1    
    48   25   26 1    
    49   25   27 1    
    50   25  102 1    
    51   26  103 1    
    52   26  104 1    
    53   26  105 1    
    54   27   28 am   BACKBONE|DICT|INTERRES
    55   27  106 1    
    56   28   29 2    
    57   28   30 1    
    58   30   31 1    
    59   30   32 1    
    60   30  107 1    
    61   31  108 1    
    62   31  109 1    
    63   31  110 1    
    64   32   33 am   BACKBONE|DICT|INTERRES
    65   32  111 1    
    66   33   34 2    
    67   33   35 1    
    68   35   36 1    
    69   35   37 1    
    70   35  112 1    
    71   36  113 1    
    72   36  114 1    
    73   36  115 1    
    74   37   38 am   BACKBONE|DICT|INTERRES
    75   37  116 1    
    76   38   39 2    
    77   38   40 1    
    78   40   41 1    
    79   40   42 1    
    80   40  117 1    
    81   41  118 1    
    82   41  119 1    
    83   41  120 1    
    84   42   43 am   BACKBONE|DICT|INTERRES
    85   42  121 1    
    86   43   44 2    
    87   43   45 1    
    88   45   46 1    
    89   45   47 1    
    90   45  122 1    
    91   46  123 1    
    92   46  124 1    
    93   46  125 1    
    94   47   48 am   BACKBONE|DICT|INTERRES
    95   47  126 1    
    96   48   49 2    
    97   48   50 1    
    98   50   51 1    
    99   50   52 1    
   100   50  127 1    
   101   51  128 1    
   102   51  129 1    
   103   51  130 1    
   104   52   53 am   BACKBONE|DICT|INTERRES
   105   52  131 1    
   106   53   54 2    
   107   53   55 1    
   108   55   56 1    
   109   55   59 1    
   110   55  132 1    
   111   56   57 1    
   112   56  133 1    
   113   56  134 1    
   114   57   58 1    
   115   58  135 1    
   116   58  136 1    
   117   59   60 am   BACKBONE|DICT|INTERRES
   118   59  137 1    
   119   60   61 2    
   120   60   62 1    
   121   62   63 1    
   122   62   64 1    
   123   62  138 1    
   124   63  139 1    
   125   63  140 1    
   126   63  141 1    
   127   64   65 am   BACKBONE|DICT|INTERRES
   128   64  142 1    
   129   65   66 2    
   130   65   67 1    
   131   67   68 1    
   132   67   69 1    
   133   67  143 1    
   134   68  144 1    
   135   68  145 1    
   136   68  146 1    
   137   69   70 am   BACKBONE|DICT|INTERRES
   138   69  147 1    
   139   70   71 2    
   140   70   72 1    
   141   72   73 1    
   142   72   74 1    
   143   72  148 1    
   144   73  149 1    
   145   73  150 1    
   146   73  151 1    
   147   74   75 am   BACKBONE|DICT|INTERRES
   148   74  152 1    
   149   75   76 2    
   150   75   77 1    
   151   77   78 1    
   152   77   79 1    
   153   77  153 1    
   154   78  154 1    
   155   78  155 1    
   156   78  156 1    
   157   79   80 am   BACKBONE|DICT|INTERRES
   158   79  157 1    
   159   80   81 2    
@<TRIPOS>SUBSTRUCTURE
     1 UNK         1 GROUP             0       ****    0 ROOT    
