@<TRIPOS>MOLECULE
3R207
157   159    1
SMALL
USER_CHARGES


@<TRIPOS>ATOM
      1 CA        -45.7111  -27.7623    3.6009 C.3       0 UNK        -0.1975 
      2 C         -47.0454  -27.3651    4.2114 C.2       0 UNK         0.4852 
      3 O         -47.0911  -26.4408    5.0257 O.2       0 UNK        -0.5216 
      4 N         -48.1366  -28.0318    3.8025 N.am      1 UNK        -0.4461 
      5 CA        -49.5193  -27.9424    4.3168 C.3       1 UNK         0.0864 
      6 C6        -49.6351  -28.3875    5.8004 C.3       14 UNK        -0.0898 
      7 S7        -49.1404  -30.1224    6.0735 S.3       14 UNK        -0.2598 
      8 C8        -50.6318  -30.8165    6.8618 C.3       14 UNK         0.0286 
      9 C9        -50.9282  -30.1626    8.2061 C.ar      14 UNK        -0.0844 
     10 C10       -50.1180  -30.4313    9.3132 C.ar      14 UNK        -0.0881 
     11 C11       -50.3682  -29.8148   10.5434 C.ar      14 UNK        -0.0643 
     12 C12       -51.4491  -28.9367   10.6656 C.ar      14 UNK        -0.0930 
     13 C13       -52.2796  -28.6768    9.5731 C.ar      14 UNK        -0.0827 
     14 C14       -52.0121  -29.2893    8.3451 C.ar      14 UNK        -0.1249 
     15 C15       -53.4628  -27.7304    9.7142 C.3       14 UNK         0.0141 
     16 S16       -55.0352  -28.6421    9.8109 S.3       14 UNK        -0.2313 
     17 C17       -54.9803  -29.3172   11.5068 C.3       14 UNK        -0.0915 
     18 CA        -56.2831  -29.0138   12.2914 C.3       13 UNK         0.0968 
     19 C         -56.3078  -29.7505   13.6570 C.2       13 UNK         0.5732 
     20 N         -56.6012  -31.0439   13.6517 N.am      13 UNK        -0.7310 
     21 O         -56.0380  -29.1826   14.7132 O.2       13 UNK        -0.5035 
     22 N         -56.4953  -27.5683   12.4390 N.am      13 UNK        -0.4233 
     23 C         -57.6952  -26.9756   12.4861 C.2       13 UNK         0.4989 
     24 O         -58.7618  -27.5887   12.4055 O.2       13 UNK        -0.4996 
     25 CA        -57.7071  -25.4356   12.6005 C.3       12 UNK         0.0216 
     26 CB        -59.0554  -24.8736   13.1033 C.3       12 UNK        -0.1964 
     27 N         -56.5812  -24.9040   13.3786 N.am      12 UNK        -0.4276 
     28 C         -56.3275  -25.1182   14.6767 C.2       12 UNK         0.5020 
     29 O         -57.0735  -25.7258   15.4480 O.2       12 UNK        -0.5489 
     30 CA        -54.9847  -24.5814   15.1940 C.3       11 UNK         0.0294 
     31 CB        -55.1845  -23.5641   16.3295 C.3       11 UNK        -0.2019 
     32 N         -54.1396  -25.6754   15.6660 N.am      11 UNK        -0.4493 
     33 C         -53.6492  -26.6623   14.9054 C.2       11 UNK         0.4932 
     34 O         -53.8311  -26.7470   13.6877 O.2       11 UNK        -0.5029 
     35 CA        -52.7809  -27.7007   15.6399 C.3       10 UNK         0.0280 
     36 CB        -52.3100  -28.8435   14.7225 C.3       10 UNK        -0.1976 
     37 N         -51.6069  -27.0672   16.2429 N.am      10 UNK        -0.4242 
     38 C         -51.5850  -26.3975   17.4037 C.2       10 UNK         0.5072 
     39 O         -52.5708  -26.2562   18.1290 O.2       10 UNK        -0.5224 
     40 CA        -50.2532  -25.7427   17.7958 C.3       9 UNK         0.0343 
     41 CB        -49.2112  -26.8024   18.1928 C.3       9 UNK        -0.2003 
     42 N         -49.7405  -24.9403   16.6858 N.am      9 UNK        -0.4272 
     43 C         -49.9478  -23.6240   16.5318 C.2       9 UNK         0.4988 
     44 O         -50.5077  -22.9139   17.3676 O.2       9 UNK        -0.5108 
     45 CA        -49.4546  -22.9856   15.2181 C.3       8 UNK         0.0248 
     46 CB        -48.0274  -22.4417   15.3873 C.3       8 UNK        -0.2001 
     47 N         -49.4965  -23.9183   14.0877 N.am      8 UNK        -0.4140 
     48 C         -50.6352  -24.3866   13.5513 C.2       8 UNK         0.5028 
     49 O         -51.7453  -23.9431   13.8430 O.2       8 UNK        -0.5428 
     50 CA        -50.5449  -25.5549   12.5479 C.3       7 UNK         0.0264 
     51 CB        -50.9145  -25.0767   11.1367 C.3       7 UNK        -0.1988 
     52 N         -49.2483  -26.2481   12.5224 N.am      7 UNK        -0.4454 
     53 C         -48.7285  -26.9175   13.5657 C.2       7 UNK         0.5027 
     54 O         -49.3195  -27.0480   14.6386 O.2       7 UNK        -0.5083 
     55 CA        -47.2975  -27.4832   13.4484 C.3       6 UNK         0.0844 
     56 C56       -47.2918  -29.0064   13.1708 C.3       14 UNK        -0.0967 
     57 S57       -47.7987  -29.4345   11.4709 S.3       14 UNK        -0.2604 
     58 C58       -49.4720  -30.0946   11.7391 C.3       14 UNK         0.0134 
     59 N         -46.4282  -26.7480   12.5270 N.am      6 UNK        -0.4116 
     60 C         -46.0945  -25.4543   12.6028 C.2       5 UNK         0.5034 
     61 O         -46.5421  -24.6879   13.4564 O.2       5 UNK        -0.5045 
     62 CA        -45.1155  -24.9087   11.5435 C.3       5 UNK         0.0224 
     63 CB        -43.6524  -25.1466   11.9642 C.3       5 UNK        -0.1978 
     64 N         -45.3756  -25.3855   10.1755 N.am      5 UNK        -0.4737 
     65 C         -45.3004  -26.6302    9.6782 C.2       4 UNK         0.5027 
     66 O         -44.8409  -27.5845   10.3067 O.2       4 UNK        -0.5211 
     67 CA        -45.8841  -26.8488    8.2641 C.3       4 UNK         0.0297 
     68 CB        -46.4086  -28.2856    8.0600 C.3       4 UNK        -0.1993 
     69 N         -46.9168  -25.8724    7.8764 N.am      4 UNK        -0.4486 
     70 C         -48.0479  -25.5781    8.5400 C.2       3 UNK         0.4961 
     71 O         -48.3705  -26.0942    9.6097 O.2       3 UNK        -0.5105 
     72 CA        -48.9390  -24.4773    7.9481 C.3       3 UNK         0.0299 
     73 CB        -48.4549  -23.0980    8.4427 C.3       3 UNK        -0.1972 
     74 N         -48.9976  -24.5320    6.4836 N.am      3 UNK        -0.4305 
     75 C         -49.8720  -23.8523    5.7208 C.2       2 UNK         0.5006 
     76 O         -50.6954  -23.0515    6.1646 O.2       2 UNK        -0.5106 
     77 CA        -49.8495  -24.1245    4.2030 C.3       2 UNK         0.0296 
     78 CB        -48.8893  -23.1567    3.4930 C.3       2 UNK        -0.2002 
     79 N         -49.4481  -25.5001    3.9202 N.am      2 UNK        -0.4032 
     80 C         -50.2173  -26.5712    4.1449 C.2       1 UNK         0.5000 
     81 O         -51.4417  -26.5042    4.2699 O.2       1 UNK        -0.5238 
     82 H82       -45.0240  -28.0784    4.3852 H         1 UNK         0.0889 
     83 H83       -45.2687  -26.9127    3.0818 H         1 UNK         0.0889 
     84 H84       -45.8146  -28.5811    2.8895 H         1 UNK         0.0889 
     85 H85       -48.0120  -28.7463    3.0984 H         1 UNK         0.3028 
     86 H86       -50.1032  -28.6404    3.7145 H         1 UNK         0.0864 
     87 H87       -49.0274  -27.7542    6.4482 H         1 UNK         0.0720 
     88 H88       -50.6606  -28.2624    6.1495 H         1 UNK         0.0720 
     89 H89       -50.4885  -31.8881    7.0070 H         1 UNK         0.0814 
     90 H90       -51.4795  -30.7118    6.1827 H         1 UNK         0.0814 
     91 H91       -49.2761  -31.1026    9.2122 H         1 UNK         0.1469 
     92 H92       -51.6473  -28.4533   11.6108 H         1 UNK         0.1381 
     93 H93       -52.6513  -29.0830    7.4975 H         1 UNK         0.1206 
     94 H94       -53.4939  -27.0624    8.8523 H         1 UNK         0.0813 
     95 H95       -53.3542  -27.0905   10.5919 H         1 UNK         0.0813 
     96 H96       -54.1154  -28.9185   12.0381 H         1 UNK         0.0638 
     97 H97       -54.8176  -30.3931   11.4243 H         1 UNK         0.0638 
     98 H98       -57.1114  -29.4177   11.7056 H         1 UNK         0.0568 
     99 H99       -56.6127  -31.5447   14.5262 H         1 UNK         0.3450 
    100 H100      -56.8172  -31.5280   12.7944 H         1 UNK         0.3450 
    101 H101      -55.6600  -27.0241   12.6182 H         1 UNK         0.2987 
    102 H102      -57.5652  -25.0675   11.5833 H         1 UNK         0.0766 
    103 H103      -59.0339  -23.7857   13.1661 H         1 UNK         0.0798 
    104 H104      -59.3161  -25.2619   14.0882 H         1 UNK         0.0798 
    105 H105      -59.8673  -25.1411   12.4259 H         1 UNK         0.0798 
    106 H106      -55.8864  -24.4017   12.8420 H         1 UNK         0.3198 
    107 H107      -54.4555  -24.0819   14.3795 H         1 UNK         0.0843 
    108 H108      -55.6772  -24.0133   17.1929 H         1 UNK         0.0831 
    109 H109      -55.8028  -22.7286   15.9989 H         1 UNK         0.0831 
    110 H110      -54.2319  -23.1512   16.6627 H         1 UNK         0.0831 
    111 H111      -53.9212  -25.6975   16.6559 H         1 UNK         0.3133 
    112 H112      -53.3954  -28.1408   16.4281 H         1 UNK         0.0566 
    113 H113      -51.6759  -28.4748   13.9178 H         1 UNK         0.0814 
    114 H114      -51.7427  -29.5896   15.2786 H         1 UNK         0.0814 
    115 H115      -53.1587  -29.3552   14.2683 H         1 UNK         0.0814 
    116 H116      -50.7521  -27.1014   15.6893 H         1 UNK         0.3091 
    117 H117      -50.4319  -25.1068   18.6656 H         1 UNK         0.0702 
    118 H118      -48.2833  -26.3362   18.5243 H         1 UNK         0.0785 
    119 H119      -48.9700  -27.4724   17.3666 H         1 UNK         0.0785 
    120 H120      -49.5764  -27.4177   19.0161 H         1 UNK         0.0785 
    121 H121      -49.3126  -25.4547   15.9249 H         1 UNK         0.2998 
    122 H122      -50.1137  -22.1456   14.9885 H         1 UNK         0.0697 
    123 H123      -47.3211  -23.2324   15.6435 H         1 UNK         0.0825 
    124 H124      -47.9862  -21.6980   16.1842 H         1 UNK         0.0825 
    125 H125      -47.6741  -21.9602   14.4753 H         1 UNK         0.0825 
    126 H126      -48.6092  -24.2997   13.7776 H         1 UNK         0.3029 
    127 H127      -51.2939  -26.2858   12.8554 H         1 UNK         0.0897 
    128 H128      -51.9081  -24.6266   11.1241 H         1 UNK         0.0792 
    129 H129      -50.9279  -25.9042   10.4274 H         1 UNK         0.0792 
    130 H130      -50.2115  -24.3271   10.7741 H         1 UNK         0.0792 
    131 H131      -48.7329  -26.2186   11.6463 H         1 UNK         0.3086 
    132 H132      -46.8530  -27.3464   14.4364 H         1 UNK         0.0583 
    133 H133      -46.2817  -29.3926   13.3162 H         1 UNK         0.1020 
    134 H134      -47.9070  -29.5385   13.8992 H         1 UNK         0.1020 
    135 H135      -49.4126  -31.1698   11.9130 H         1 UNK         0.0694 
    136 H136      -49.9032  -29.6581   12.6406 H         1 UNK         0.0694 
    137 H137      -46.0165  -27.2888   11.7708 H         1 UNK         0.2989 
    138 H138      -45.2729  -23.8290   11.5131 H         1 UNK         0.1055 
    139 H139      -43.4495  -24.6905   12.9341 H         1 UNK         0.0806 
    140 H140      -42.9578  -24.7072   11.2483 H         1 UNK         0.0806 
    141 H141      -43.4167  -26.2074   12.0523 H         1 UNK         0.0806 
    142 H142      -45.7900  -24.6967    9.5635 H         1 UNK         0.3061 
    143 H143      -45.0512  -26.7037    7.5747 H         1 UNK         0.0734 
    144 H144      -46.6934  -28.4566    7.0232 H         1 UNK         0.0832 
    145 H145      -45.6505  -29.0293    8.3073 H         1 UNK         0.0832 
    146 H146      -47.2813  -28.4890    8.6809 H         1 UNK         0.0832 
    147 H147      -46.7371  -25.4061    6.9967 H         1 UNK         0.3156 
    148 H148      -49.9494  -24.6491    8.3239 H         1 UNK         0.0589 
    149 H149      -47.4954  -22.8261    8.0018 H         1 UNK         0.0808 
    150 H150      -49.1673  -22.3094    8.2020 H         1 UNK         0.0808 
    151 H151      -48.3312  -23.0897    9.5267 H         1 UNK         0.0808 
    152 H152      -48.3852  -25.2053    6.0336 H         1 UNK         0.3098 
    153 H153      -50.8565  -23.9617    3.8126 H         1 UNK         0.0720 
    154 H154      -48.8995  -23.3100    2.4137 H         1 UNK         0.0791 
    155 H155      -47.8621  -23.2777    3.8397 H         1 UNK         0.0791 
    156 H156      -49.1761  -22.1202    3.6757 H         1 UNK         0.0791 
    157 H157      -48.4499  -25.6757    3.8828 H         1 UNK         0.3028 
@<TRIPOS>BOND
     1    1    2 1    
     2    1   82 1    
     3    1   83 1    
     4    1   84 1    
     5    2    3 2    
     6    2    4 am   BACKBONE|DICT|INTERRES
     7    4    5 1    
     8    4   85 1    
     9    5    6 1    
    10    5   80 1    
    11    5   86 1    
    12    6    7 1    
    13    6   87 1    
    14    6   88 1    
    15    7    8 1    
    16    8    9 1    
    17    8   89 1    
    18    8   90 1    
    19    9   10 ar   
    20    9   14 ar   
    21   10   11 ar   
    22   10   91 1    
    23   11   12 ar   
    24   11   58 1    
    25   12   13 ar   
    26   12   92 1    
    27   13   14 ar   
    28   13   15 1    
    29   14   93 1    
    30   15   16 1    
    31   15   94 1    
    32   15   95 1    
    33   16   17 1    
    34   17   18 1    
    35   17   96 1    
    36   17   97 1    
    37   18   19 1    
    38   18   22 1    
    39   18   98 1    
    40   19   20 am   BACKBONE|DICT|INTERRES
    41   19   21 2    
    42   20   99 1    
    43   20  100 1    
    44   22   23 am   BACKBONE|DICT|INTERRES
    45   22  101 1    
    46   23   24 2    
    47   23   25 1    
    48   25   26 1    
    49   25   27 1    
    50   25  102 1    
    51   26  103 1    
    52   26  104 1    
    53   26  105 1    
    54   27   28 am   BACKBONE|DICT|INTERRES
    55   27  106 1    
    56   28   29 2    
    57   28   30 1    
    58   30   31 1    
    59   30   32 1    
    60   30  107 1    
    61   31  108 1    
    62   31  109 1    
    63   31  110 1    
    64   32   33 am   BACKBONE|DICT|INTERRES
    65   32  111 1    
    66   33   34 2    
    67   33   35 1    
    68   35   36 1    
    69   35   37 1    
    70   35  112 1    
    71   36  113 1    
    72   36  114 1    
    73   36  115 1    
    74   37   38 am   BACKBONE|DICT|INTERRES
    75   37  116 1    
    76   38   39 2    
    77   38   40 1    
    78   40   41 1    
    79   40   42 1    
    80   40  117 1    
    81   41  118 1    
    82   41  119 1    
    83   41  120 1    
    84   42   43 am   BACKBONE|DICT|INTERRES
    85   42  121 1    
    86   43   44 2    
    87   43   45 1    
    88   45   46 1    
    89   45   47 1    
    90   45  122 1    
    91   46  123 1    
    92   46  124 1    
    93   46  125 1    
    94   47   48 am   BACKBONE|DICT|INTERRES
    95   47  126 1    
    96   48   49 2    
    97   48   50 1    
    98   50   51 1    
    99   50   52 1    
   100   50  127 1    
   101   51  128 1    
   102   51  129 1    
   103   51  130 1    
   104   52   53 am   BACKBONE|DICT|INTERRES
   105   52  131 1    
   106   53   54 2    
   107   53   55 1    
   108   55   56 1    
   109   55   59 1    
   110   55  132 1    
   111   56   57 1    
   112   56  133 1    
   113   56  134 1    
   114   57   58 1    
   115   58  135 1    
   116   58  136 1    
   117   59   60 am   BACKBONE|DICT|INTERRES
   118   59  137 1    
   119   60   61 2    
   120   60   62 1    
   121   62   63 1    
   122   62   64 1    
   123   62  138 1    
   124   63  139 1    
   125   63  140 1    
   126   63  141 1    
   127   64   65 am   BACKBONE|DICT|INTERRES
   128   64  142 1    
   129   65   66 2    
   130   65   67 1    
   131   67   68 1    
   132   67   69 1    
   133   67  143 1    
   134   68  144 1    
   135   68  145 1    
   136   68  146 1    
   137   69   70 am   BACKBONE|DICT|INTERRES
   138   69  147 1    
   139   70   71 2    
   140   70   72 1    
   141   72   73 1    
   142   72   74 1    
   143   72  148 1    
   144   73  149 1    
   145   73  150 1    
   146   73  151 1    
   147   74   75 am   BACKBONE|DICT|INTERRES
   148   74  152 1    
   149   75   76 2    
   150   75   77 1    
   151   77   78 1    
   152   77   79 1    
   153   77  153 1    
   154   78  154 1    
   155   78  155 1    
   156   78  156 1    
   157   79   80 am   BACKBONE|DICT|INTERRES
   158   79  157 1    
   159   80   81 2    
@<TRIPOS>SUBSTRUCTURE
     1 UNK         1 GROUP             0       ****    0 ROOT    
