@<TRIPOS>MOLECULE
3R207
157   159    1
SMALL
USER_CHARGES


@<TRIPOS>ATOM
      1 CA        -49.7352  -29.5600    1.4933 C.3       0 UNK        -0.1975 
      2 C         -49.8271  -29.0985    2.9399 C.2       0 UNK         0.4852 
      3 O         -50.5739  -28.1655    3.2413 O.2       0 UNK        -0.5216 
      4 N         -49.0671  -29.7336    3.8421 N.am      1 UNK        -0.4461 
      5 CA        -49.0147  -29.4336    5.2777 C.3       1 UNK         0.0864 
      6 C6        -48.6204  -30.7016    6.0821 C.3       14 UNK        -0.0898 
      7 S7        -48.9967  -30.5664    7.8593 S.3       14 UNK        -0.2598 
      8 C8        -50.7747  -30.9451    7.9031 C.3       14 UNK         0.0286 
      9 C9        -51.4511  -30.1394    9.0002 C.ar      14 UNK        -0.0844 
     10 C10       -51.9750  -28.8747    8.7195 C.ar      14 UNK        -0.0881 
     11 C11       -52.5642  -28.1097    9.7297 C.ar      14 UNK        -0.0643 
     12 C12       -52.6184  -28.6167   11.0306 C.ar      14 UNK        -0.0930 
     13 C13       -52.1330  -29.8991   11.3196 C.ar      14 UNK        -0.0827 
     14 C14       -51.5421  -30.6491   10.2980 C.ar      14 UNK        -0.1249 
     15 C15       -52.2076  -30.4915   12.7252 C.3       14 UNK         0.0141 
     16 S16       -53.6782  -29.9901   13.6836 S.3       14 UNK        -0.2313 
     17 C17       -55.0195  -30.9039   12.8468 C.3       14 UNK        -0.0915 
     18 CA        -55.7182  -30.1120   11.7067 C.3       13 UNK         0.0968 
     19 C         -56.8765  -30.9464   11.0859 C.2       13 UNK         0.5732 
     20 N         -58.1291  -30.5123   11.1641 N.am      13 UNK        -0.7310 
     21 O         -56.6328  -32.0088   10.5186 O.2       13 UNK        -0.5035 
     22 N         -56.0858  -28.7464   12.1208 N.am      13 UNK        -0.4233 
     23 C         -56.3333  -27.7337   11.2795 C.2       13 UNK         0.4989 
     24 O         -56.3190  -27.8461   10.0536 O.2       13 UNK        -0.4996 
     25 CA        -56.6627  -26.3584   11.8904 C.3       12 UNK         0.0216 
     26 CB        -58.1522  -26.0286   11.6933 C.3       12 UNK        -0.1964 
     27 N         -56.3338  -26.2385   13.3149 N.am      12 UNK        -0.4276 
     28 C         -55.1014  -26.0507   13.8040 C.2       12 UNK         0.5020 
     29 O         -54.0851  -25.9737   13.1102 O.2       12 UNK        -0.5489 
     30 CA        -54.9989  -25.9414   15.3296 C.3       11 UNK         0.0294 
     31 CB        -55.1330  -27.3228   15.9994 C.3       11 UNK        -0.2019 
     32 N         -53.7190  -25.3409   15.6923 N.am      11 UNK        -0.4493 
     33 C         -53.4473  -24.7463   16.8608 C.2       11 UNK         0.4932 
     34 O         -54.2805  -24.5850   17.7549 O.2       11 UNK        -0.5029 
     35 CA        -51.9958  -24.2717   17.0623 C.3       10 UNK         0.0280 
     36 CB        -51.6851  -23.8292   18.5078 C.3       10 UNK        -0.1976 
     37 N         -51.0307  -25.2692   16.5923 N.am      10 UNK        -0.4242 
     38 C         -50.8427  -26.5175   17.0461 C.2       10 UNK         0.5072 
     39 O         -51.4113  -26.9962   18.0284 O.2       10 UNK        -0.5224 
     40 CA        -49.8574  -27.3941   16.2531 C.3       9 UNK         0.0343 
     41 CB        -50.6075  -28.1925   15.1772 C.3       9 UNK        -0.2003 
     42 N         -48.7829  -26.6270   15.6182 N.am      9 UNK        -0.4272 
     43 C         -47.7778  -26.0405   16.2842 C.2       9 UNK         0.4988 
     44 O         -47.6048  -26.1462   17.4991 O.2       9 UNK        -0.5108 
     45 CA        -46.8105  -25.1745   15.4600 C.3       8 UNK         0.0248 
     46 CB        -45.7661  -26.0509   14.7502 C.3       8 UNK        -0.2001 
     47 N         -47.4991  -24.3236   14.4844 N.am      8 UNK        -0.4140 
     48 C         -48.3340  -23.3239   14.8089 C.2       8 UNK         0.5028 
     49 O         -48.5694  -22.9747   15.9657 O.2       8 UNK        -0.5428 
     50 CA        -49.0494  -22.6009   13.6563 C.3       7 UNK         0.0264 
     51 CB        -48.1346  -21.5364   13.0304 C.3       7 UNK        -0.1988 
     52 N         -49.5280  -23.5110   12.6149 N.am      7 UNK        -0.4454 
     53 C         -50.4677  -24.4539   12.7851 C.2       7 UNK         0.5027 
     54 O         -51.0665  -24.6398   13.8437 O.2       7 UNK        -0.5083 
     55 CA        -50.7537  -25.3657   11.5761 C.3       6 UNK         0.0844 
     56 C56       -51.6977  -24.6506   10.5773 C.3       14 UNK        -0.0967 
     57 S57       -51.9150  -25.5176    8.9868 S.3       14 UNK        -0.2604 
     58 C58       -53.1784  -26.7575    9.3981 C.3       14 UNK         0.0134 
     59 N         -49.5101  -25.8399   10.9638 N.am      6 UNK        -0.4116 
     60 C         -48.5891  -26.5935   11.5810 C.2       5 UNK         0.5034 
     61 O         -48.6923  -27.0075   12.7357 O.2       5 UNK        -0.5045 
     62 CA        -47.3025  -26.8777   10.7952 C.3       5 UNK         0.0224 
     63 CB        -47.5042  -28.0503    9.8266 C.3       5 UNK        -0.1978 
     64 N         -46.8450  -25.6952   10.0622 N.am      5 UNK        -0.4737 
     65 C         -46.3302  -24.6075   10.6549 C.2       4 UNK         0.5027 
     66 O         -46.1522  -24.5135   11.8686 O.2       4 UNK        -0.5211 
     67 CA        -45.9999  -23.4048    9.7546 C.3       4 UNK         0.0297 
     68 CB        -44.5929  -23.5507    9.1545 C.3       4 UNK        -0.1993 
     69 N         -46.9741  -23.2093    8.6793 N.am      4 UNK        -0.4486 
     70 C         -48.2758  -22.9503    8.8664 C.2       3 UNK         0.4961 
     71 O         -48.7873  -22.7840    9.9729 O.2       3 UNK        -0.5105 
     72 CA        -49.1694  -22.9007    7.6159 C.3       3 UNK         0.0299 
     73 CB        -49.3596  -21.4472    7.1549 C.3       3 UNK        -0.1972 
     74 N         -48.6940  -23.7122    6.4880 N.am      3 UNK        -0.4305 
     75 C         -48.4994  -25.0390    6.5095 C.2       2 UNK         0.5006 
     76 O         -48.6072  -25.7298    7.5242 O.2       2 UNK        -0.5106 
     77 CA        -48.0932  -25.6688    5.1675 C.3       2 UNK         0.0296 
     78 CB        -46.5742  -25.5536    4.9242 C.3       2 UNK        -0.2002 
     79 N         -48.5887  -27.0432    5.0216 N.am      2 UNK        -0.4032 
     80 C         -48.1351  -28.1884    5.5548 C.2       1 UNK         0.5000 
     81 O         -47.0815  -28.2979    6.1855 O.2       1 UNK        -0.5238 
     82 H82       -49.0412  -30.3917    1.3736 H         1 UNK         0.0889 
     83 H83       -49.3964  -28.7410    0.8594 H         1 UNK         0.0889 
     84 H84       -50.7144  -29.8820    1.1401 H         1 UNK         0.0889 
     85 H85       -48.4460  -30.4672    3.5303 H         1 UNK         0.3028 
     86 H86       -50.0257  -29.1614    5.5890 H         1 UNK         0.0864 
     87 H87       -47.5588  -30.9255    5.9625 H         1 UNK         0.0720 
     88 H88       -49.1526  -31.5739    5.6985 H         1 UNK         0.0720 
     89 H89       -50.9133  -32.0143    8.0701 H         1 UNK         0.0814 
     90 H90       -51.2392  -30.7227    6.9417 H         1 UNK         0.0814 
     91 H91       -51.9172  -28.4769    7.7156 H         1 UNK         0.1469 
     92 H92       -53.0678  -28.0199   11.8118 H         1 UNK         0.1381 
     93 H93       -51.1399  -31.6296   10.5137 H         1 UNK         0.1206 
     94 H94       -52.1777  -31.5813   12.6824 H         1 UNK         0.0813 
     95 H95       -51.3149  -30.1857   13.2682 H         1 UNK         0.0813 
     96 H96       -55.7485  -31.1756   13.6123 H         1 UNK         0.0638 
     97 H97       -54.6175  -31.8450   12.4672 H         1 UNK         0.0638 
     98 H98       -54.9919  -30.0090   10.8998 H         1 UNK         0.0568 
     99 H99       -58.8679  -31.0618   10.7549 H         1 UNK         0.3450 
    100 H100      -58.3408  -29.6421   11.6236 H         1 UNK         0.3450 
    101 H101      -56.1079  -28.5749   13.1136 H         1 UNK         0.2987 
    102 H102      -56.0769  -25.6176   11.3414 H         1 UNK         0.0766 
    103 H103      -58.4270  -26.0730   10.6383 H         1 UNK         0.0798 
    104 H104      -58.3855  -25.0224   12.0422 H         1 UNK         0.0798 
    105 H105      -58.7970  -26.7280   12.2270 H         1 UNK         0.0798 
    106 H106      -57.1095  -26.2857   13.9609 H         1 UNK         0.3198 
    107 H107      -55.8052  -25.2894   15.6731 H         1 UNK         0.0843 
    108 H108      -55.1660  -27.2347   17.0854 H         1 UNK         0.0831 
    109 H109      -54.2920  -27.9693   15.7486 H         1 UNK         0.0831 
    110 H110      -56.0459  -27.8340   15.6925 H         1 UNK         0.0831 
    111 H111      -53.0118  -25.3779   14.9633 H         1 UNK         0.3133 
    112 H112      -51.8658  -23.4015   16.4173 H         1 UNK         0.0566 
    113 H113      -50.6517  -23.4956   18.6040 H         1 UNK         0.0814 
    114 H114      -51.8466  -24.6350   19.2243 H         1 UNK         0.0814 
    115 H115      -52.3238  -22.9972   18.8061 H         1 UNK         0.0814 
    116 H116      -50.5755  -25.0255   15.7181 H         1 UNK         0.3091 
    117 H117      -49.4049  -28.1019   16.9508 H         1 UNK         0.0702 
    118 H118      -49.9305  -28.8621   14.6471 H         1 UNK         0.0785 
    119 H119      -51.0773  -27.5396   14.4395 H         1 UNK         0.0785 
    120 H120      -51.3945  -28.8044   15.6202 H         1 UNK         0.0785 
    121 H121      -48.8121  -26.5529   14.6041 H         1 UNK         0.2998 
    122 H122      -46.2823  -24.5180   16.1546 H         1 UNK         0.0697 
    123 H123      -46.2244  -26.7082   14.0110 H         1 UNK         0.0825 
    124 H124      -45.2350  -26.6818   15.4642 H         1 UNK         0.0825 
    125 H125      -45.0200  -25.4422   14.2391 H         1 UNK         0.0825 
    126 H126      -47.2989  -24.4994   13.5040 H         1 UNK         0.3029 
    127 H127      -49.9219  -22.0958   14.0766 H         1 UNK         0.0897 
    128 H128      -47.2530  -21.9827   12.5691 H         1 UNK         0.0792 
    129 H129      -47.7870  -20.8279   13.7835 H         1 UNK         0.0792 
    130 H130      -48.6584  -20.9649   12.2639 H         1 UNK         0.0792 
    131 H131      -49.1297  -23.3857   11.6854 H         1 UNK         0.3086 
    132 H132      -51.2744  -26.2471   11.9545 H         1 UNK         0.0583 
    133 H133      -52.6761  -24.4923   11.0358 H         1 UNK         0.1020 
    134 H134      -51.3213  -23.6540   10.3390 H         1 UNK         0.1020 
    135 H135      -53.8008  -26.3991   10.2188 H         1 UNK         0.0694 
    136 H136      -53.8456  -26.8748    8.5430 H         1 UNK         0.0694 
    137 H137      -49.3483  -25.5635   10.0048 H         1 UNK         0.2989 
    138 H138      -46.5277  -27.1577   11.5123 H         1 UNK         0.1055 
    139 H139      -48.2876  -27.8435    9.0964 H         1 UNK         0.0806 
    140 H140      -46.5912  -28.2798    9.2771 H         1 UNK         0.0806 
    141 H141      -47.7968  -28.9531   10.3644 H         1 UNK         0.0806 
    142 H142      -47.0396  -25.6730    9.0677 H         1 UNK         0.3061 
    143 H143      -46.0141  -22.5103   10.3808 H         1 UNK         0.0734 
    144 H144      -44.5216  -24.4154    8.4933 H         1 UNK         0.0832 
    145 H145      -44.3097  -22.6658    8.5843 H         1 UNK         0.0832 
    146 H146      -43.8471  -23.6796    9.9403 H         1 UNK         0.0832 
    147 H147      -46.6449  -23.3289    7.7329 H         1 UNK         0.3156 
    148 H148      -50.1458  -23.2928    7.9055 H         1 UNK         0.0589 
    149 H149      -50.0801  -21.3790    6.3397 H         1 UNK         0.0808 
    150 H150      -49.7371  -20.8264    7.9690 H         1 UNK         0.0808 
    151 H151      -48.4224  -21.0043    6.8157 H         1 UNK         0.0808 
    152 H152      -48.5643  -23.2232    5.6135 H         1 UNK         0.3098 
    153 H153      -48.5956  -25.1070    4.3783 H         1 UNK         0.0720 
    154 H154      -46.2707  -24.5094    4.8427 H         1 UNK         0.0791 
    155 H155      -46.2808  -26.0488    3.9986 H         1 UNK         0.0791 
    156 H156      -45.9951  -25.9912    5.7381 H         1 UNK         0.0791 
    157 H157      -49.4460  -27.1289    4.4822 H         1 UNK         0.3028 
@<TRIPOS>BOND
     1    1    2 1    
     2    1   82 1    
     3    1   83 1    
     4    1   84 1    
     5    2    3 2    
     6    2    4 am   BACKBONE|DICT|INTERRES
     7    4    5 1    
     8    4   85 1    
     9    5    6 1    
    10    5   80 1    
    11    5   86 1    
    12    6    7 1    
    13    6   87 1    
    14    6   88 1    
    15    7    8 1    
    16    8    9 1    
    17    8   89 1    
    18    8   90 1    
    19    9   10 ar   
    20    9   14 ar   
    21   10   11 ar   
    22   10   91 1    
    23   11   12 ar   
    24   11   58 1    
    25   12   13 ar   
    26   12   92 1    
    27   13   14 ar   
    28   13   15 1    
    29   14   93 1    
    30   15   16 1    
    31   15   94 1    
    32   15   95 1    
    33   16   17 1    
    34   17   18 1    
    35   17   96 1    
    36   17   97 1    
    37   18   19 1    
    38   18   22 1    
    39   18   98 1    
    40   19   20 am   BACKBONE|DICT|INTERRES
    41   19   21 2    
    42   20   99 1    
    43   20  100 1    
    44   22   23 am   BACKBONE|DICT|INTERRES
    45   22  101 1    
    46   23   24 2    
    47   23   25 1    
    48   25   26 1    
    49   25   27 1    
    50   25  102 1    
    51   26  103 1    
    52   26  104 1    
    53   26  105 1    
    54   27   28 am   BACKBONE|DICT|INTERRES
    55   27  106 1    
    56   28   29 2    
    57   28   30 1    
    58   30   31 1    
    59   30   32 1    
    60   30  107 1    
    61   31  108 1    
    62   31  109 1    
    63   31  110 1    
    64   32   33 am   BACKBONE|DICT|INTERRES
    65   32  111 1    
    66   33   34 2    
    67   33   35 1    
    68   35   36 1    
    69   35   37 1    
    70   35  112 1    
    71   36  113 1    
    72   36  114 1    
    73   36  115 1    
    74   37   38 am   BACKBONE|DICT|INTERRES
    75   37  116 1    
    76   38   39 2    
    77   38   40 1    
    78   40   41 1    
    79   40   42 1    
    80   40  117 1    
    81   41  118 1    
    82   41  119 1    
    83   41  120 1    
    84   42   43 am   BACKBONE|DICT|INTERRES
    85   42  121 1    
    86   43   44 2    
    87   43   45 1    
    88   45   46 1    
    89   45   47 1    
    90   45  122 1    
    91   46  123 1    
    92   46  124 1    
    93   46  125 1    
    94   47   48 am   BACKBONE|DICT|INTERRES
    95   47  126 1    
    96   48   49 2    
    97   48   50 1    
    98   50   51 1    
    99   50   52 1    
   100   50  127 1    
   101   51  128 1    
   102   51  129 1    
   103   51  130 1    
   104   52   53 am   BACKBONE|DICT|INTERRES
   105   52  131 1    
   106   53   54 2    
   107   53   55 1    
   108   55   56 1    
   109   55   59 1    
   110   55  132 1    
   111   56   57 1    
   112   56  133 1    
   113   56  134 1    
   114   57   58 1    
   115   58  135 1    
   116   58  136 1    
   117   59   60 am   BACKBONE|DICT|INTERRES
   118   59  137 1    
   119   60   61 2    
   120   60   62 1    
   121   62   63 1    
   122   62   64 1    
   123   62  138 1    
   124   63  139 1    
   125   63  140 1    
   126   63  141 1    
   127   64   65 am   BACKBONE|DICT|INTERRES
   128   64  142 1    
   129   65   66 2    
   130   65   67 1    
   131   67   68 1    
   132   67   69 1    
   133   67  143 1    
   134   68  144 1    
   135   68  145 1    
   136   68  146 1    
   137   69   70 am   BACKBONE|DICT|INTERRES
   138   69  147 1    
   139   70   71 2    
   140   70   72 1    
   141   72   73 1    
   142   72   74 1    
   143   72  148 1    
   144   73  149 1    
   145   73  150 1    
   146   73  151 1    
   147   74   75 am   BACKBONE|DICT|INTERRES
   148   74  152 1    
   149   75   76 2    
   150   75   77 1    
   151   77   78 1    
   152   77   79 1    
   153   77  153 1    
   154   78  154 1    
   155   78  155 1    
   156   78  156 1    
   157   79   80 am   BACKBONE|DICT|INTERRES
   158   79  157 1    
   159   80   81 2    
@<TRIPOS>SUBSTRUCTURE
     1 UNK         1 GROUP             0       ****    0 ROOT    
