@<TRIPOS>MOLECULE
3R207
157   159    1
SMALL
USER_CHARGES


@<TRIPOS>ATOM
      1 CA        -52.6066  -26.9786    5.3821 C.3       0 UNK        -0.1975 
      2 C         -51.4474  -26.8868    6.3620 C.2       0 UNK         0.4852 
      3 O         -50.9177  -25.7968    6.5845 O.2       0 UNK        -0.5216 
      4 N         -51.0347  -28.0256    6.9399 N.am      1 UNK        -0.4461 
      5 CA        -49.9928  -28.1215    7.9746 C.3       1 UNK         0.0864 
      6 C6        -49.9559  -29.5253    8.6426 C.3       14 UNK        -0.0898 
      7 S7        -50.1122  -29.3974   10.4564 S.3       14 UNK        -0.2598 
      8 C8        -51.8625  -29.8138   10.7436 C.3       14 UNK         0.0286 
      9 C9        -52.8225  -29.0040    9.8800 C.ar      14 UNK        -0.0844 
     10 C10       -52.8634  -27.6093    9.9776 C.ar      14 UNK        -0.0881 
     11 C11       -53.7238  -26.8587    9.1636 C.ar      14 UNK        -0.0643 
     12 C12       -54.5647  -27.5322    8.2716 C.ar      14 UNK        -0.0930 
     13 C13       -54.5386  -28.9250    8.1677 C.ar      14 UNK        -0.0827 
     14 C14       -53.6624  -29.6555    8.9730 C.ar      14 UNK        -0.1249 
     15 C15       -55.4294  -29.6300    7.1542 C.3       14 UNK         0.0141 
     16 S16       -57.1188  -29.8930    7.7821 S.3       14 UNK        -0.2313 
     17 C17       -56.8786  -31.2791    8.9463 C.3       14 UNK        -0.0915 
     18 CA        -57.2180  -30.9139   10.4156 C.3       13 UNK         0.0968 
     19 C         -57.0761  -32.1625   11.3359 C.2       13 UNK         0.5732 
     20 N         -56.1439  -32.2038   12.2811 N.am      13 UNK        -0.7310 
     21 O         -57.8366  -33.1167   11.1893 O.2       13 UNK        -0.5035 
     22 N         -56.4748  -29.7303   10.8684 N.am      13 UNK        -0.4233 
     23 C         -56.7780  -29.0008   11.9467 C.2       13 UNK         0.4989 
     24 O         -57.7608  -29.1913   12.6665 O.2       13 UNK        -0.4996 
     25 CA        -55.7959  -27.8695   12.2837 C.3       12 UNK         0.0216 
     26 CB        -56.5066  -26.5090   12.3673 C.3       12 UNK        -0.1964 
     27 N         -55.0505  -28.1090   13.5208 N.am      12 UNK        -0.4276 
     28 C         -54.3111  -29.1875   13.8147 C.2       12 UNK         0.5020 
     29 O         -54.2362  -30.1849   13.0944 O.2       12 UNK        -0.5489 
     30 CA        -53.4767  -29.1115   15.1109 C.3       11 UNK         0.0294 
     31 CB        -52.5846  -30.3509   15.3130 C.3       11 UNK        -0.2019 
     32 N         -52.6293  -27.9142   15.1358 N.am      11 UNK        -0.4493 
     33 C         -53.0464  -26.6767   15.4348 C.2       11 UNK         0.4932 
     34 O         -54.2076  -26.4207   15.7595 O.2       11 UNK        -0.5029 
     35 CA        -52.0238  -25.5367   15.2785 C.3       10 UNK         0.0280 
     36 CB        -52.3948  -24.2818   16.0973 C.3       10 UNK        -0.1976 
     37 N         -50.6303  -25.9322   15.5238 N.am      10 UNK        -0.4242 
     38 C         -50.1093  -26.3742   16.6784 C.2       10 UNK         0.5072 
     39 O         -50.7571  -26.5529   17.7104 O.2       10 UNK        -0.5224 
     40 CA        -48.6024  -26.6640   16.6840 C.3       9 UNK         0.0343 
     41 CB        -48.3203  -28.0780   16.1468 C.3       9 UNK        -0.2003 
     42 N         -47.8490  -25.6784   15.9019 N.am      9 UNK        -0.4272 
     43 C         -47.3218  -24.5572   16.4129 C.2       9 UNK         0.4988 
     44 O         -47.4600  -24.2090   17.5863 O.2       9 UNK        -0.5108 
     45 CA        -46.4483  -23.7038   15.4783 C.3       8 UNK         0.0248 
     46 CB        -45.1721  -24.4609   15.0721 C.3       8 UNK        -0.2001 
     47 N         -47.1462  -23.2263   14.2823 N.am      8 UNK        -0.4140 
     48 C         -48.0382  -22.2246   14.2787 C.2       8 UNK         0.5028 
     49 O         -48.4297  -21.6500   15.2954 O.2       8 UNK        -0.5428 
     50 CA        -48.5667  -21.7642   12.9076 C.3       7 UNK         0.0264 
     51 CB        -47.5099  -20.9455   12.1473 C.3       7 UNK        -0.1988 
     52 N         -49.0154  -22.8840   12.0808 N.am      7 UNK        -0.4454 
     53 C         -50.1385  -23.5771   12.3142 C.2       7 UNK         0.5027 
     54 O         -50.9489  -23.2642   13.1843 O.2       7 UNK        -0.5083 
     55 CA        -50.3833  -24.8473   11.4661 C.3       6 UNK         0.0844 
     56 C56       -51.2254  -24.5472   10.2003 C.3       14 UNK        -0.0967 
     57 S57       -53.0087  -24.4936   10.6020 S.3       14 UNK        -0.2604 
     58 C58       -53.7663  -25.3285    9.1671 C.3       14 UNK         0.0134 
     59 N         -49.1274  -25.5459   11.1722 N.am      6 UNK        -0.4116 
     60 C         -48.4015  -26.1755   12.1089 C.2       5 UNK         0.5034 
     61 O         -48.7827  -26.3308   13.2694 O.2       5 UNK        -0.5045 
     62 CA        -46.9845  -26.6357   11.7324 C.3       5 UNK         0.0224 
     63 CB        -46.9148  -28.1409   11.4410 C.3       5 UNK        -0.1978 
     64 N         -46.4196  -25.8640   10.6209 N.am      5 UNK        -0.4737 
     65 C         -45.9019  -24.6396   10.7908 C.2       4 UNK         0.5027 
     66 O         -45.8672  -24.0701   11.8809 O.2       4 UNK        -0.5211 
     67 CA        -45.3591  -23.9097    9.5543 C.3       4 UNK         0.0297 
     68 CB        -43.9844  -24.4702    9.1577 C.3       4 UNK        -0.1993 
     69 N         -46.2482  -23.9364    8.3932 N.am      4 UNK        -0.4486 
     70 C         -47.5126  -23.5006    8.3400 C.2       3 UNK         0.4961 
     71 O         -48.1395  -23.0996    9.3202 O.2       3 UNK        -0.5105 
     72 CA        -48.2013  -23.5226    6.9610 C.3       3 UNK         0.0299 
     73 CB        -47.6981  -22.3782    6.0605 C.3       3 UNK        -0.1972 
     74 N         -48.1303  -24.8260    6.2878 N.am      3 UNK        -0.4305 
     75 C         -47.0470  -25.4973    5.8580 C.2       2 UNK         0.5006 
     76 O         -45.9180  -25.0045    5.8082 O.2       2 UNK        -0.5106 
     77 CA        -47.2404  -26.9876    5.4908 C.3       2 UNK         0.0296 
     78 CB        -45.9549  -27.8140    5.7080 C.3       2 UNK        -0.2002 
     79 N         -48.3714  -27.6195    6.1866 N.am      2 UNK        -0.4032 
     80 C         -48.5981  -27.6435    7.5119 C.2       1 UNK         0.5000 
     81 O         -47.7974  -27.2213    8.3480 O.2       1 UNK        -0.5238 
     82 H82       -53.0295  -27.9823    5.3448 H         1 UNK         0.0889 
     83 H83       -52.2741  -26.7090    4.3802 H         1 UNK         0.0889 
     84 H84       -53.3978  -26.2896    5.6758 H         1 UNK         0.0889 
     85 H85       -51.5167  -28.8867    6.7251 H         1 UNK         0.3028 
     86 H86       -50.2888  -27.3903    8.7277 H         1 UNK         0.0864 
     87 H87       -50.7547  -30.1683    8.2704 H         1 UNK         0.0720 
     88 H88       -49.0327  -30.0632    8.4175 H         1 UNK         0.0720 
     89 H89       -52.0836  -29.6281   11.7935 H         1 UNK         0.0814 
     90 H90       -52.0030  -30.8841   10.5853 H         1 UNK         0.0814 
     91 H91       -52.2027  -27.1234   10.6789 H         1 UNK         0.1469 
     92 H92       -55.2331  -26.9667    7.6364 H         1 UNK         0.1381 
     93 H93       -53.6257  -30.7328    8.8863 H         1 UNK         0.1206 
     94 H94       -54.9945  -30.5847    6.8540 H         1 UNK         0.0813 
     95 H95       -55.4872  -29.0299    6.2449 H         1 UNK         0.0813 
     96 H96       -55.8554  -31.6499    8.8736 H         1 UNK         0.0638 
     97 H97       -57.5159  -32.0971    8.6053 H         1 UNK         0.0638 
     98 H98       -58.2764  -30.6480   10.4440 H         1 UNK         0.0568 
     99 H99       -56.0744  -33.0220   12.8636 H         1 UNK         0.3450 
    100 H100      -55.5061  -31.4254   12.4312 H         1 UNK         0.3450 
    101 H101      -55.6412  -29.5088   10.3411 H         1 UNK         0.2987 
    102 H102      -55.0632  -27.8046   11.4819 H         1 UNK         0.0766 
    103 H103      -55.7914  -25.6963   12.4986 H         1 UNK         0.0798 
    104 H104      -57.2148  -26.4732   13.1961 H         1 UNK         0.0798 
    105 H105      -57.0625  -26.3036   11.4515 H         1 UNK         0.0798 
    106 H106      -55.0467  -27.3575   14.2032 H         1 UNK         0.3198 
    107 H107      -54.1799  -29.0671   15.9455 H         1 UNK         0.0843 
    108 H108      -53.1842  -31.2616   15.3460 H         1 UNK         0.0831 
    109 H109      -51.8627  -30.4659   14.5034 H         1 UNK         0.0831 
    110 H110      -52.0324  -30.2947   16.2513 H         1 UNK         0.0831 
    111 H111      -51.6710  -28.0332   14.8414 H         1 UNK         0.3133 
    112 H112      -52.0786  -25.2679   14.2253 H         1 UNK         0.0566 
    113 H113      -51.6693  -23.4826   15.9438 H         1 UNK         0.0814 
    114 H114      -53.3684  -23.8923   15.7977 H         1 UNK         0.0814 
    115 H115      -52.4430  -24.4930   17.1658 H         1 UNK         0.0814 
    116 H116      -50.0060  -25.8780   14.7235 H         1 UNK         0.3091 
    117 H117      -48.2643  -26.6356   17.7223 H         1 UNK         0.0702 
    118 H118      -48.8399  -28.8298   16.7425 H         1 UNK         0.0785 
    119 H119      -47.2564  -28.3113   16.1892 H         1 UNK         0.0785 
    120 H120      -48.6479  -28.2004   15.1143 H         1 UNK         0.0785 
    121 H121      -47.7666  -25.8624   14.9085 H         1 UNK         0.2998 
    122 H122      -46.1313  -22.8262   16.0464 H         1 UNK         0.0697 
    123 H123      -45.3915  -25.3406   14.4678 H         1 UNK         0.0825 
    124 H124      -44.6215  -24.7984   15.9512 H         1 UNK         0.0825 
    125 H125      -44.5014  -23.8229   14.4960 H         1 UNK         0.0825 
    126 H126      -46.8264  -23.5960   13.3888 H         1 UNK         0.3029 
    127 H127      -49.4233  -21.1106   13.0876 H         1 UNK         0.0897 
    128 H128      -47.9080  -20.5642   11.2067 H         1 UNK         0.0792 
    129 H129      -47.1868  -20.0858   12.7356 H         1 UNK         0.0792 
    130 H130      -46.6221  -21.5343   11.9168 H         1 UNK         0.0792 
    131 H131      -48.4399  -23.1334   11.2817 H         1 UNK         0.3086 
    132 H132      -50.9607  -25.5335   12.0895 H         1 UNK         0.0583 
    133 H133      -50.9269  -23.6099    9.7260 H         1 UNK         0.1020 
    134 H134      -51.0653  -25.3170    9.4455 H         1 UNK         0.1020 
    135 H135      -54.8093  -25.0106    9.1261 H         1 UNK         0.0694 
    136 H136      -53.2979  -24.9585    8.2539 H         1 UNK         0.0694 
    137 H137      -48.7247  -25.4202   10.2544 H         1 UNK         0.2989 
    138 H138      -46.3656  -26.4678   12.6158 H         1 UNK         0.1055 
    139 H139      -47.3699  -28.7170   12.2480 H         1 UNK         0.0806 
    140 H140      -45.8816  -28.4751   11.3476 H         1 UNK         0.0806 
    141 H141      -47.4304  -28.4075   10.5221 H         1 UNK         0.0806 
    142 H142      -46.5009  -26.2636    9.6905 H         1 UNK         0.3061 
    143 H143      -45.2295  -22.8613    9.8307 H         1 UNK         0.0734 
    144 H144      -43.5307  -23.8812    8.3604 H         1 UNK         0.0832 
    145 H145      -43.2958  -24.4527   10.0038 H         1 UNK         0.0832 
    146 H146      -44.0533  -25.5030    8.8132 H         1 UNK         0.0832 
    147 H147      -45.8556  -24.2822    7.5201 H         1 UNK         0.3156 
    148 H148      -49.2637  -23.3502    7.1418 H         1 UNK         0.0589 
    149 H149      -46.6336  -22.4619    5.8405 H         1 UNK         0.0808 
    150 H150      -48.2350  -22.3567    5.1123 H         1 UNK         0.0808 
    151 H151      -47.8521  -21.4117    6.5421 H         1 UNK         0.0808 
    152 H152      -49.0151  -25.3273    6.2942 H         1 UNK         0.3098 
    153 H153      -47.4783  -27.0098    4.4264 H         1 UNK         0.0720 
    154 H154      -45.1356  -27.4370    5.0946 H         1 UNK         0.0791 
    155 H155      -46.1045  -28.8591    5.4373 H         1 UNK         0.0791 
    156 H156      -45.6254  -27.7811    6.7473 H         1 UNK         0.0791 
    157 H157      -49.1056  -27.9760    5.5909 H         1 UNK         0.3028 
@<TRIPOS>BOND
     1    1    2 1    
     2    1   82 1    
     3    1   83 1    
     4    1   84 1    
     5    2    3 2    
     6    2    4 am   BACKBONE|DICT|INTERRES
     7    4    5 1    
     8    4   85 1    
     9    5    6 1    
    10    5   80 1    
    11    5   86 1    
    12    6    7 1    
    13    6   87 1    
    14    6   88 1    
    15    7    8 1    
    16    8    9 1    
    17    8   89 1    
    18    8   90 1    
    19    9   10 ar   
    20    9   14 ar   
    21   10   11 ar   
    22   10   91 1    
    23   11   12 ar   
    24   11   58 1    
    25   12   13 ar   
    26   12   92 1    
    27   13   14 ar   
    28   13   15 1    
    29   14   93 1    
    30   15   16 1    
    31   15   94 1    
    32   15   95 1    
    33   16   17 1    
    34   17   18 1    
    35   17   96 1    
    36   17   97 1    
    37   18   19 1    
    38   18   22 1    
    39   18   98 1    
    40   19   20 am   BACKBONE|DICT|INTERRES
    41   19   21 2    
    42   20   99 1    
    43   20  100 1    
    44   22   23 am   BACKBONE|DICT|INTERRES
    45   22  101 1    
    46   23   24 2    
    47   23   25 1    
    48   25   26 1    
    49   25   27 1    
    50   25  102 1    
    51   26  103 1    
    52   26  104 1    
    53   26  105 1    
    54   27   28 am   BACKBONE|DICT|INTERRES
    55   27  106 1    
    56   28   29 2    
    57   28   30 1    
    58   30   31 1    
    59   30   32 1    
    60   30  107 1    
    61   31  108 1    
    62   31  109 1    
    63   31  110 1    
    64   32   33 am   BACKBONE|DICT|INTERRES
    65   32  111 1    
    66   33   34 2    
    67   33   35 1    
    68   35   36 1    
    69   35   37 1    
    70   35  112 1    
    71   36  113 1    
    72   36  114 1    
    73   36  115 1    
    74   37   38 am   BACKBONE|DICT|INTERRES
    75   37  116 1    
    76   38   39 2    
    77   38   40 1    
    78   40   41 1    
    79   40   42 1    
    80   40  117 1    
    81   41  118 1    
    82   41  119 1    
    83   41  120 1    
    84   42   43 am   BACKBONE|DICT|INTERRES
    85   42  121 1    
    86   43   44 2    
    87   43   45 1    
    88   45   46 1    
    89   45   47 1    
    90   45  122 1    
    91   46  123 1    
    92   46  124 1    
    93   46  125 1    
    94   47   48 am   BACKBONE|DICT|INTERRES
    95   47  126 1    
    96   48   49 2    
    97   48   50 1    
    98   50   51 1    
    99   50   52 1    
   100   50  127 1    
   101   51  128 1    
   102   51  129 1    
   103   51  130 1    
   104   52   53 am   BACKBONE|DICT|INTERRES
   105   52  131 1    
   106   53   54 2    
   107   53   55 1    
   108   55   56 1    
   109   55   59 1    
   110   55  132 1    
   111   56   57 1    
   112   56  133 1    
   113   56  134 1    
   114   57   58 1    
   115   58  135 1    
   116   58  136 1    
   117   59   60 am   BACKBONE|DICT|INTERRES
   118   59  137 1    
   119   60   61 2    
   120   60   62 1    
   121   62   63 1    
   122   62   64 1    
   123   62  138 1    
   124   63  139 1    
   125   63  140 1    
   126   63  141 1    
   127   64   65 am   BACKBONE|DICT|INTERRES
   128   64  142 1    
   129   65   66 2    
   130   65   67 1    
   131   67   68 1    
   132   67   69 1    
   133   67  143 1    
   134   68  144 1    
   135   68  145 1    
   136   68  146 1    
   137   69   70 am   BACKBONE|DICT|INTERRES
   138   69  147 1    
   139   70   71 2    
   140   70   72 1    
   141   72   73 1    
   142   72   74 1    
   143   72  148 1    
   144   73  149 1    
   145   73  150 1    
   146   73  151 1    
   147   74   75 am   BACKBONE|DICT|INTERRES
   148   74  152 1    
   149   75   76 2    
   150   75   77 1    
   151   77   78 1    
   152   77   79 1    
   153   77  153 1    
   154   78  154 1    
   155   78  155 1    
   156   78  156 1    
   157   79   80 am   BACKBONE|DICT|INTERRES
   158   79  157 1    
   159   80   81 2    
@<TRIPOS>SUBSTRUCTURE
     1 UNK         1 GROUP             0       ****    0 ROOT    
