@<TRIPOS>MOLECULE
3R207
157   159    1
SMALL
USER_CHARGES


@<TRIPOS>ATOM
      1 CA        -45.4977  -27.9124    3.7826 C.3       0 UNK        -0.1975 
      2 C         -46.9865  -27.7701    4.0629 C.2       0 UNK         0.4852 
      3 O         -47.7441  -27.3914    3.1682 O.2       0 UNK        -0.5216 
      4 N         -47.4104  -28.0793    5.2949 N.am      1 UNK        -0.4461 
      5 CA        -48.7924  -27.9473    5.7696 C.3       1 UNK         0.0864 
      6 C6        -49.0177  -28.7003    7.1032 C.3       14 UNK        -0.0898 
      7 S7        -48.6101  -30.4733    6.9513 S.3       14 UNK        -0.2598 
      8 C8        -50.2261  -31.2679    7.2385 C.3       14 UNK         0.0286 
      9 C9        -50.6776  -31.1877    8.6926 C.ar      14 UNK        -0.0844 
     10 C10       -49.8049  -31.5353    9.7282 C.ar      14 UNK        -0.0881 
     11 C11       -50.2100  -31.4628   11.0644 C.ar      14 UNK        -0.0643 
     12 C12       -51.5223  -31.0766   11.3594 C.ar      14 UNK        -0.0930 
     13 C13       -52.4180  -30.7629   10.3319 C.ar      14 UNK        -0.0827 
     14 C14       -51.9853  -30.8045    9.0028 C.ar      14 UNK        -0.1249 
     15 C15       -53.8640  -30.4138   10.6479 C.3       14 UNK         0.0141 
     16 S16       -54.0468  -28.6564   11.0641 S.3       14 UNK        -0.2313 
     17 C17       -55.8332  -28.4037   10.7667 C.3       14 UNK        -0.0915 
     18 CA        -56.5397  -27.4726   11.8001 C.3       13 UNK         0.0968 
     19 C         -56.9519  -28.1249   13.1441 C.2       13 UNK         0.5732 
     20 N         -56.4554  -29.3094   13.4744 N.am      13 UNK        -0.7310 
     21 O         -57.7801  -27.5776   13.8684 O.2       13 UNK        -0.5035 
     22 N         -55.8103  -26.2238   12.0354 N.am      13 UNK        -0.4233 
     23 C         -55.7146  -25.2205   11.1572 C.2       13 UNK         0.4989 
     24 O         -56.3465  -25.1818   10.0996 O.2       13 UNK        -0.4996 
     25 CA        -54.7081  -24.0970   11.4680 C.3       12 UNK         0.0216 
     26 CB        -55.1837  -22.7121   10.9753 C.3       12 UNK        -0.1964 
     27 N         -54.2573  -24.0559   12.8646 N.am      12 UNK        -0.4276 
     28 C         -54.9609  -23.6722   13.9395 C.2       12 UNK         0.5020 
     29 O         -56.1412  -23.3194   13.9008 O.2       12 UNK        -0.5489 
     30 CA        -54.2027  -23.6794   15.2804 C.3       11 UNK         0.0294 
     31 CB        -55.1071  -23.3678   16.4926 C.3       11 UNK        -0.2019 
     32 N         -53.4350  -24.9097   15.5051 N.am      11 UNK        -0.4493 
     33 C         -53.9134  -26.1591   15.6159 C.2       11 UNK         0.4932 
     34 O         -55.1047  -26.4381   15.4913 O.2       11 UNK        -0.5029 
     35 CA        -52.9195  -27.3051   15.9049 C.3       10 UNK         0.0280 
     36 CB        -53.0313  -28.3994   14.8304 C.3       10 UNK        -0.1976 
     37 N         -51.5220  -26.8769   16.0028 N.am      10 UNK        -0.4242 
     38 C         -50.9693  -26.2417   17.0458 C.2       10 UNK         0.5072 
     39 O         -51.5592  -26.0132   18.1020 O.2       10 UNK        -0.5224 
     40 CA        -49.5334  -25.7170   16.8514 C.3       9 UNK         0.0343 
     41 CB        -48.4997  -26.7971   17.2075 C.3       9 UNK        -0.2003 
     42 N         -49.2852  -25.2187   15.4928 N.am      9 UNK        -0.4272 
     43 C         -49.9386  -24.1900   14.9283 C.2       9 UNK         0.4988 
     44 O         -50.7888  -23.5156   15.5079 O.2       9 UNK        -0.5108 
     45 CA        -49.6354  -23.9061   13.4513 C.3       8 UNK         0.0248 
     46 CB        -48.3119  -23.1338   13.3167 C.3       8 UNK        -0.2001 
     47 N         -49.6060  -25.1517   12.6777 N.am      8 UNK        -0.4140 
     48 C         -50.7031  -25.8699   12.3838 C.2       8 UNK         0.5028 
     49 O         -51.8467  -25.4828   12.6239 O.2       8 UNK        -0.5428 
     50 CA        -50.5037  -27.2705   11.7752 C.3       7 UNK         0.0264 
     51 CB        -50.6773  -27.2651   10.2495 C.3       7 UNK        -0.1988 
     52 N         -49.2118  -27.8566   12.1351 N.am      7 UNK        -0.4454 
     53 C         -48.9357  -28.3319   13.3603 C.2       7 UNK         0.5027 
     54 O         -49.7632  -28.3632   14.2701 O.2       7 UNK        -0.5083 
     55 CA        -47.4902  -28.7900   13.6571 C.3       6 UNK         0.0844 
     56 C56       -47.3403  -30.3294   13.6430 C.3       14 UNK        -0.0967 
     57 S57       -47.5981  -31.0864   12.0013 S.3       14 UNK        -0.2604 
     58 C58       -49.2511  -31.8471   12.1859 C.3       14 UNK         0.0134 
     59 N         -46.4879  -28.1169   12.8261 N.am      6 UNK        -0.4116 
     60 C         -46.2363  -26.8020   12.8747 C.2       5 UNK         0.5034 
     61 O         -46.8220  -26.0368   13.6430 O.2       5 UNK        -0.5045 
     62 CA        -45.1950  -26.2241   11.8952 C.3       5 UNK         0.0224 
     63 CB        -44.5081  -27.2832   11.0013 C.3       5 UNK        -0.1978 
     64 N         -45.7612  -25.1478   11.0684 N.am      5 UNK        -0.4737 
     65 C         -46.8237  -25.2416   10.2563 C.2       4 UNK         0.5027 
     66 O         -47.4804  -26.2750   10.1092 O.2       4 UNK        -0.5211 
     67 CA        -47.1935  -23.9731    9.4711 C.3       4 UNK         0.0297 
     68 CB        -46.2543  -23.7998    8.2661 C.3       4 UNK        -0.1993 
     69 N         -48.5726  -24.0772    8.9914 N.am      4 UNK        -0.4486 
     70 C         -49.6077  -23.3580    9.4471 C.2       3 UNK         0.4961 
     71 O         -49.4862  -22.4140   10.2283 O.2       3 UNK        -0.5105 
     72 CA        -51.0218  -23.7691    8.9793 C.3       3 UNK         0.0299 
     73 CB        -52.0470  -22.6205    9.0945 C.3       3 UNK        -0.1972 
     74 N         -51.0586  -24.3785    7.6434 N.am      3 UNK        -0.4305 
     75 C         -50.7233  -23.7917    6.4843 C.2       2 UNK         0.5006 
     76 O         -50.3639  -22.6167    6.3865 O.2       2 UNK        -0.5106 
     77 CA        -50.7992  -24.6797    5.2227 C.3       2 UNK         0.0296 
     78 CB        -50.0665  -24.0494    4.0184 C.3       2 UNK        -0.2002 
     79 N         -50.3355  -26.0652    5.4103 N.am      2 UNK        -0.4032 
     80 C         -49.1518  -26.4556    5.9095 C.2       1 UNK         0.5000 
     81 O         -48.3539  -25.6988    6.4657 O.2       1 UNK        -0.5238 
     82 H82       -45.3351  -28.6167    2.9671 H         1 UNK         0.0889 
     83 H83       -44.9511  -28.2713    4.6546 H         1 UNK         0.0889 
     84 H84       -45.0777  -26.9500    3.4916 H         1 UNK         0.0889 
     85 H85       -46.7434  -28.3757    5.9923 H         1 UNK         0.3028 
     86 H86       -49.4448  -28.3913    5.0142 H         1 UNK         0.0864 
     87 H87       -50.0534  -28.5944    7.4307 H         1 UNK         0.0720 
     88 H88       -48.4022  -28.2757    7.8997 H         1 UNK         0.0720 
     89 H89       -50.1529  -32.3192    6.9573 H         1 UNK         0.0814 
     90 H90       -50.9657  -30.8217    6.5717 H         1 UNK         0.0814 
     91 H91       -48.7992  -31.8549    9.4927 H         1 UNK         0.1469 
     92 H92       -51.8553  -31.0351   12.3875 H         1 UNK         0.1381 
     93 H93       -52.6754  -30.5552    8.2083 H         1 UNK         0.1206 
     94 H94       -54.2262  -31.0243   11.4762 H         1 UNK         0.0813 
     95 H95       -54.4951  -30.6530    9.7904 H         1 UNK         0.0813 
     96 H96       -55.9269  -27.9680    9.7711 H         1 UNK         0.0638 
     97 H97       -56.3475  -29.3642   10.7053 H         1 UNK         0.0638 
     98 H98       -57.4961  -27.1980   11.3507 H         1 UNK         0.0568 
     99 H99       -55.7756  -29.7594   12.8837 H         1 UNK         0.3450 
    100 H100      -56.7442  -29.7394   14.3384 H         1 UNK         0.3450 
    101 H101      -55.3096  -26.1683   12.9118 H         1 UNK         0.2987 
    102 H102      -53.8164  -24.3515   10.8936 H         1 UNK         0.0766 
    103 H103      -56.1328  -22.4232   11.4272 H         1 UNK         0.0798 
    104 H104      -54.4533  -21.9358   11.2023 H         1 UNK         0.0798 
    105 H105      -55.3307  -22.7107    9.8947 H         1 UNK         0.0798 
    106 H106      -53.3147  -24.4224   13.0044 H         1 UNK         0.3198 
    107 H107      -53.4688  -22.8750   15.2106 H         1 UNK         0.0843 
    108 H108      -55.5820  -22.3920   16.3839 H         1 UNK         0.0831 
    109 H109      -54.5344  -23.3473   17.4197 H         1 UNK         0.0831 
    110 H110      -55.9033  -24.1043   16.6052 H         1 UNK         0.0831 
    111 H111      -52.4344  -24.7700   15.5933 H         1 UNK         0.3133 
    112 H112      -53.2057  -27.7446   16.8624 H         1 UNK         0.0566 
    113 H113      -52.3170  -29.2054   14.9990 H         1 UNK         0.0814 
    114 H114      -54.0256  -28.8459   14.8309 H         1 UNK         0.0814 
    115 H115      -52.8587  -27.9963   13.8335 H         1 UNK         0.0814 
    116 H116      -50.9240  -27.1147   15.2165 H         1 UNK         0.3091 
    117 H117      -49.3946  -24.8772   17.5355 H         1 UNK         0.0702 
    118 H118      -47.4805  -26.4292   17.0872 H         1 UNK         0.0785 
    119 H119      -48.6120  -27.6871   16.5891 H         1 UNK         0.0785 
    120 H120      -48.6108  -27.1104   18.2464 H         1 UNK         0.0785 
    121 H121      -48.5743  -25.6929   14.9487 H         1 UNK         0.2998 
    122 H122      -50.4330  -23.2776   13.0484 H         1 UNK         0.0697 
    123 H123      -47.4893  -23.6158   13.8432 H         1 UNK         0.0825 
    124 H124      -48.4123  -22.1324   13.7366 H         1 UNK         0.0825 
    125 H125      -48.0165  -23.0159   12.2773 H         1 UNK         0.0825 
    126 H126      -48.6961  -25.5505   12.4867 H         1 UNK         0.3029 
    127 H127      -51.2842  -27.9161   12.1801 H         1 UNK         0.0897 
    128 H128      -50.5575  -28.2691    9.8425 H         1 UNK         0.0792 
    129 H129      -49.9620  -26.6133    9.7525 H         1 UNK         0.0792 
    130 H130      -51.6779  -26.9278    9.9775 H         1 UNK         0.0792 
    131 H131      -48.4796  -27.8143   11.4356 H         1 UNK         0.3086 
    132 H132      -47.2870  -28.4756   14.6830 H         1 UNK         0.0583 
    133 H133      -46.3345  -30.5945   13.9728 H         1 UNK         0.1020 
    134 H134      -48.0030  -30.7816   14.3830 H         1 UNK         0.1020 
    135 H135      -49.1377  -32.9317   12.1948 H         1 UNK         0.0694 
    136 H136      -49.6858  -31.5775   13.1490 H         1 UNK         0.0694 
    137 H137      -46.0037  -28.6890   12.1496 H         1 UNK         0.2989 
    138 H138      -44.4245  -25.7673   12.5185 H         1 UNK         0.1055 
    139 H139      -43.9980  -28.0393   11.5999 H         1 UNK         0.0806 
    140 H140      -43.7509  -26.8225   10.3666 H         1 UNK         0.0806 
    141 H141      -45.2143  -27.7940   10.3453 H         1 UNK         0.0806 
    142 H142      -45.2989  -24.2523   11.1481 H         1 UNK         0.3061 
    143 H143      -47.0780  -23.1079   10.1259 H         1 UNK         0.0734 
    144 H144      -46.5549  -22.9541    7.6473 H         1 UNK         0.0832 
    145 H145      -45.2293  -23.6166    8.5904 H         1 UNK         0.0832 
    146 H146      -46.2386  -24.6875    7.6330 H         1 UNK         0.0832 
    147 H147      -48.7350  -24.8232    8.3227 H         1 UNK         0.3156 
    148 H148      -51.3466  -24.5443    9.6720 H         1 UNK         0.0589 
    149 H149      -51.7513  -21.7514    8.5063 H         1 UNK         0.0808 
    150 H150      -53.0346  -22.9338    8.7573 H         1 UNK         0.0808 
    151 H151      -52.1469  -22.2909   10.1293 H         1 UNK         0.0808 
    152 H152      -51.3381  -25.3484    7.6088 H         1 UNK         0.3098 
    153 H153      -51.8577  -24.7426    4.9663 H         1 UNK         0.0720 
    154 H154      -50.1637  -24.6677    3.1260 H         1 UNK         0.0791 
    155 H155      -49.0023  -23.9200    4.2202 H         1 UNK         0.0791 
    156 H156      -50.4757  -23.0678    3.7757 H         1 UNK         0.0791 
    157 H157      -50.9366  -26.7737    5.0118 H         1 UNK         0.3028 
@<TRIPOS>BOND
     1    1    2 1    
     2    1   82 1    
     3    1   83 1    
     4    1   84 1    
     5    2    3 2    
     6    2    4 am   BACKBONE|DICT|INTERRES
     7    4    5 1    
     8    4   85 1    
     9    5    6 1    
    10    5   80 1    
    11    5   86 1    
    12    6    7 1    
    13    6   87 1    
    14    6   88 1    
    15    7    8 1    
    16    8    9 1    
    17    8   89 1    
    18    8   90 1    
    19    9   10 ar   
    20    9   14 ar   
    21   10   11 ar   
    22   10   91 1    
    23   11   12 ar   
    24   11   58 1    
    25   12   13 ar   
    26   12   92 1    
    27   13   14 ar   
    28   13   15 1    
    29   14   93 1    
    30   15   16 1    
    31   15   94 1    
    32   15   95 1    
    33   16   17 1    
    34   17   18 1    
    35   17   96 1    
    36   17   97 1    
    37   18   19 1    
    38   18   22 1    
    39   18   98 1    
    40   19   20 am   BACKBONE|DICT|INTERRES
    41   19   21 2    
    42   20   99 1    
    43   20  100 1    
    44   22   23 am   BACKBONE|DICT|INTERRES
    45   22  101 1    
    46   23   24 2    
    47   23   25 1    
    48   25   26 1    
    49   25   27 1    
    50   25  102 1    
    51   26  103 1    
    52   26  104 1    
    53   26  105 1    
    54   27   28 am   BACKBONE|DICT|INTERRES
    55   27  106 1    
    56   28   29 2    
    57   28   30 1    
    58   30   31 1    
    59   30   32 1    
    60   30  107 1    
    61   31  108 1    
    62   31  109 1    
    63   31  110 1    
    64   32   33 am   BACKBONE|DICT|INTERRES
    65   32  111 1    
    66   33   34 2    
    67   33   35 1    
    68   35   36 1    
    69   35   37 1    
    70   35  112 1    
    71   36  113 1    
    72   36  114 1    
    73   36  115 1    
    74   37   38 am   BACKBONE|DICT|INTERRES
    75   37  116 1    
    76   38   39 2    
    77   38   40 1    
    78   40   41 1    
    79   40   42 1    
    80   40  117 1    
    81   41  118 1    
    82   41  119 1    
    83   41  120 1    
    84   42   43 am   BACKBONE|DICT|INTERRES
    85   42  121 1    
    86   43   44 2    
    87   43   45 1    
    88   45   46 1    
    89   45   47 1    
    90   45  122 1    
    91   46  123 1    
    92   46  124 1    
    93   46  125 1    
    94   47   48 am   BACKBONE|DICT|INTERRES
    95   47  126 1    
    96   48   49 2    
    97   48   50 1    
    98   50   51 1    
    99   50   52 1    
   100   50  127 1    
   101   51  128 1    
   102   51  129 1    
   103   51  130 1    
   104   52   53 am   BACKBONE|DICT|INTERRES
   105   52  131 1    
   106   53   54 2    
   107   53   55 1    
   108   55   56 1    
   109   55   59 1    
   110   55  132 1    
   111   56   57 1    
   112   56  133 1    
   113   56  134 1    
   114   57   58 1    
   115   58  135 1    
   116   58  136 1    
   117   59   60 am   BACKBONE|DICT|INTERRES
   118   59  137 1    
   119   60   61 2    
   120   60   62 1    
   121   62   63 1    
   122   62   64 1    
   123   62  138 1    
   124   63  139 1    
   125   63  140 1    
   126   63  141 1    
   127   64   65 am   BACKBONE|DICT|INTERRES
   128   64  142 1    
   129   65   66 2    
   130   65   67 1    
   131   67   68 1    
   132   67   69 1    
   133   67  143 1    
   134   68  144 1    
   135   68  145 1    
   136   68  146 1    
   137   69   70 am   BACKBONE|DICT|INTERRES
   138   69  147 1    
   139   70   71 2    
   140   70   72 1    
   141   72   73 1    
   142   72   74 1    
   143   72  148 1    
   144   73  149 1    
   145   73  150 1    
   146   73  151 1    
   147   74   75 am   BACKBONE|DICT|INTERRES
   148   74  152 1    
   149   75   76 2    
   150   75   77 1    
   151   77   78 1    
   152   77   79 1    
   153   77  153 1    
   154   78  154 1    
   155   78  155 1    
   156   78  156 1    
   157   79   80 am   BACKBONE|DICT|INTERRES
   158   79  157 1    
   159   80   81 2    
@<TRIPOS>SUBSTRUCTURE
     1 UNK         1 GROUP             0       ****    0 ROOT    
