@<TRIPOS>MOLECULE
3R207
157   159    1
SMALL
USER_CHARGES


@<TRIPOS>ATOM
      1 CA        -46.2833  -27.1514   12.0662 C.3       0 UNK        -0.1975 
      2 C         -46.6317  -28.1362   10.9595 C.2       0 UNK         0.4852 
      3 O         -46.1669  -29.2771   10.9871 O.2       0 UNK        -0.5216 
      4 N         -47.4609  -27.7088    9.9997 N.am      1 UNK        -0.4461 
      5 CA        -47.8740  -28.4985    8.8371 C.3       1 UNK         0.0864 
      6 C6        -49.2332  -28.0039    8.2697 C.3       14 UNK        -0.0898 
      7 S7        -49.1568  -26.4282    7.3497 S.3       14 UNK        -0.2598 
      8 C8        -50.7268  -26.4602    6.4347 C.3       14 UNK         0.0286 
      9 C9        -51.8648  -25.9299    7.2906 C.ar      14 UNK        -0.0844 
     10 C10       -52.1343  -24.5591    7.3154 C.ar      14 UNK        -0.0881 
     11 C11       -53.1513  -24.0514    8.1287 C.ar      14 UNK        -0.0643 
     12 C12       -53.9279  -24.9304    8.8886 C.ar      14 UNK        -0.0930 
     13 C13       -53.6730  -26.3049    8.8674 C.ar      14 UNK        -0.0827 
     14 C14       -52.6366  -26.7986    8.0682 C.ar      14 UNK        -0.1249 
     15 C15       -54.5167  -27.2595    9.7006 C.3       14 UNK         0.0141 
     16 S16       -53.9536  -27.3216   11.4303 S.3       14 UNK        -0.2313 
     17 C17       -54.9511  -26.0034   12.2106 C.3       14 UNK        -0.0915 
     18 CA        -56.0347  -26.5251   13.1925 C.3       13 UNK         0.0968 
     19 C         -57.1118  -27.3863   12.4637 C.2       13 UNK         0.5732 
     20 N         -57.1911  -28.6932   12.6926 N.am      13 UNK        -0.7310 
     21 O         -57.8938  -26.8516   11.6810 O.2       13 UNK        -0.5035 
     22 N         -55.4528  -27.1507   14.3915 N.am      13 UNK        -0.4233 
     23 C         -56.1563  -27.4306   15.5004 C.2       13 UNK         0.4989 
     24 O         -57.2993  -27.0105   15.6927 O.2       13 UNK        -0.4996 
     25 CA        -55.5086  -28.3422   16.5679 C.3       12 UNK         0.0216 
     26 CB        -56.5448  -29.2674   17.2411 C.3       12 UNK        -0.1964 
     27 N         -54.3653  -29.1310   16.0933 N.am      12 UNK        -0.4276 
     28 C         -54.3358  -30.0028   15.0725 C.2       12 UNK         0.5020 
     29 O         -55.3182  -30.2728   14.3783 O.2       12 UNK        -0.5489 
     30 CA        -52.9816  -30.6559   14.7485 C.3       11 UNK         0.0294 
     31 CB        -52.7226  -30.6920   13.2325 C.3       11 UNK        -0.2019 
     32 N         -51.8792  -29.9489   15.4093 N.am      11 UNK        -0.4493 
     33 C         -50.9938  -30.5245   16.2320 C.2       11 UNK         0.4932 
     34 O         -50.9678  -31.7326   16.4703 O.2       11 UNK        -0.5029 
     35 CA        -49.9618  -29.6174   16.9281 C.3       10 UNK         0.0280 
     36 CB        -48.6663  -29.5321   16.1036 C.3       10 UNK        -0.1976 
     37 N         -50.4101  -28.2619   17.2705 N.am      10 UNK        -0.4242 
     38 C         -51.4614  -27.9503   18.0451 C.2       10 UNK         0.5072 
     39 O         -52.3160  -28.7575   18.4097 O.2       10 UNK        -0.5224 
     40 CA        -51.5812  -26.4804   18.4742 C.3       9 UNK         0.0343 
     41 CB        -50.3405  -26.0084   19.2542 C.3       9 UNK        -0.2003 
     42 N         -51.7797  -25.6370   17.2992 N.am      9 UNK        -0.4272 
     43 C         -52.9742  -25.2322   16.8512 C.2       9 UNK         0.4988 
     44 O         -54.0275  -25.3692   17.4724 O.2       9 UNK        -0.5108 
     45 CA        -53.0103  -24.5747   15.4617 C.3       8 UNK         0.0248 
     46 CB        -52.9788  -23.0435   15.5863 C.3       8 UNK        -0.2001 
     47 N         -51.9417  -25.0054   14.5531 N.am      8 UNK        -0.4140 
     48 C         -51.6942  -26.2574   14.1436 C.2       8 UNK         0.5028 
     49 O         -52.3165  -27.2440   14.5445 O.2       8 UNK        -0.5428 
     50 CA        -50.5540  -26.4195   13.1186 C.3       7 UNK         0.0264 
     51 CB        -50.3664  -27.8719   12.6435 C.3       7 UNK        -0.1988 
     52 N         -50.7334  -25.5691   11.9393 N.am      7 UNK        -0.4454 
     53 C         -50.4758  -24.2568   11.8707 C.2       7 UNK         0.5027 
     54 O         -50.1284  -23.5757   12.8389 O.2       7 UNK        -0.5083 
     55 CA        -50.6292  -23.5980   10.4858 C.3       6 UNK         0.0844 
     56 C56       -51.7145  -22.4892   10.5190 C.3       14 UNK        -0.0967 
     57 S57       -51.9458  -21.6689    8.9012 S.3       14 UNK        -0.2604 
     58 C58       -53.3873  -22.5504    8.2148 C.3       14 UNK         0.0134 
     59 N         -49.3509  -23.1126    9.9517 N.am      6 UNK        -0.4116 
     60 C         -48.2210  -23.8228    9.8338 C.2       5 UNK         0.5034 
     61 O         -48.0856  -24.9839   10.2197 O.2       5 UNK        -0.5045 
     62 CA        -47.0609  -23.1493    9.0885 C.3       5 UNK         0.0224 
     63 CB        -45.6913  -23.6474    9.5875 C.3       5 UNK        -0.1978 
     64 N         -47.1807  -23.4532    7.6644 N.am      5 UNK        -0.4737 
     65 C         -47.9506  -22.7815    6.7982 C.2       4 UNK         0.5027 
     66 O         -48.5776  -21.7664    7.1023 O.2       4 UNK        -0.5211 
     67 CA        -48.0249  -23.3248    5.3588 C.3       4 UNK         0.0297 
     68 CB        -48.1219  -22.1995    4.3118 C.3       4 UNK        -0.1993 
     69 N         -46.8737  -24.1793    5.0518 N.am      4 UNK        -0.4486 
     70 C         -46.9287  -25.3749    4.4521 C.2       3 UNK         0.4961 
     71 O         -47.9685  -25.8778    4.0240 O.2       3 UNK        -0.5105 
     72 CA        -45.6054  -26.1470    4.2985 C.3       3 UNK         0.0299 
     73 CB        -44.3547  -25.3619    4.7484 C.3       3 UNK        -0.1972 
     74 N         -45.6854  -27.3815    5.0747 N.am      3 UNK        -0.4305 
     75 C         -45.9768  -28.5974    4.6024 C.2       2 UNK         0.5006 
     76 O         -46.1612  -28.8466    3.4101 O.2       2 UNK        -0.5106 
     77 CA        -46.0693  -29.7452    5.6287 C.3       2 UNK         0.0296 
     78 CB        -44.6666  -30.2240    6.0539 C.3       2 UNK        -0.2002 
     79 N         -46.9239  -29.4713    6.7965 N.am      2 UNK        -0.4032 
     80 C         -46.7556  -28.5623    7.7700 C.2       1 UNK         0.5000 
     81 O         -45.8010  -27.7783    7.8184 O.2       1 UNK        -0.5238 
     82 H82       -45.3465  -26.6449   11.8364 H         1 UNK         0.0889 
     83 H83       -46.1689  -27.6719   13.0167 H         1 UNK         0.0889 
     84 H84       -47.0606  -26.3979   12.1912 H         1 UNK         0.0889 
     85 H85       -47.7625  -26.7341   10.0024 H         1 UNK         0.3028 
     86 H86       -48.0297  -29.5220    9.1857 H         1 UNK         0.0864 
     87 H87       -49.6499  -28.7663    7.6100 H         1 UNK         0.0720 
     88 H88       -49.9557  -27.8925    9.0800 H         1 UNK         0.0720 
     89 H89       -50.6205  -25.8467    5.5387 H         1 UNK         0.0814 
     90 H90       -50.9428  -27.4697    6.0827 H         1 UNK         0.0814 
     91 H91       -51.5268  -23.8795    6.7331 H         1 UNK         0.1469 
     92 H92       -54.7231  -24.5397    9.5061 H         1 UNK         0.1381 
     93 H93       -52.4269  -27.8594    8.0536 H         1 UNK         0.1206 
     94 H94       -55.5699  -26.9786    9.6530 H         1 UNK         0.0813 
     95 H95       -54.4582  -28.2665    9.2849 H         1 UNK         0.0813 
     96 H96       -54.2686  -25.3302   12.7279 H         1 UNK         0.0638 
     97 H97       -55.4238  -25.3928   11.4423 H         1 UNK         0.0638 
     98 H98       -56.5691  -25.6416   13.5468 H         1 UNK         0.0568 
     99 H99       -56.5332  -29.1548   13.3144 H         1 UNK         0.3450 
    100 H100      -57.8943  -29.2345   12.2172 H         1 UNK         0.3450 
    101 H101      -54.5070  -27.5027   14.3017 H         1 UNK         0.2987 
    102 H102      -55.1166  -27.6814   17.3400 H         1 UNK         0.0766 
    103 H103      -56.0810  -29.8930   18.0037 H         1 UNK         0.0798 
    104 H104      -57.3282  -28.6901   17.7335 H         1 UNK         0.0798 
    105 H105      -57.0299  -29.9235   16.5175 H         1 UNK         0.0798 
    106 H106      -53.5093  -29.0030   16.6214 H         1 UNK         0.3198 
    107 H107      -53.0487  -31.6851   15.1066 H         1 UNK         0.0843 
    108 H108      -53.4643  -31.3077   12.7225 H         1 UNK         0.0831 
    109 H109      -51.7415  -31.1076   13.0032 H         1 UNK         0.0831 
    110 H110      -52.7782  -29.6948   12.7989 H         1 UNK         0.0831 
    111 H111      -51.8447  -28.9439   15.2435 H         1 UNK         0.3133 
    112 H112      -49.7150  -30.1053   17.8734 H         1 UNK         0.0566 
    113 H113      -47.8632  -29.0667   16.6754 H         1 UNK         0.0814 
    114 H114      -48.8007  -28.9563   15.1888 H         1 UNK         0.0814 
    115 H115      -48.3180  -30.5251   15.8152 H         1 UNK         0.0814 
    116 H116      -49.7792  -27.5187   17.0136 H         1 UNK         0.3091 
    117 H117      -52.4393  -26.4007   19.1454 H         1 UNK         0.0702 
    118 H118      -50.4847  -24.9998   19.6421 H         1 UNK         0.0785 
    119 H119      -49.4392  -25.9995   18.6407 H         1 UNK         0.0785 
    120 H120      -50.1481  -26.6572   20.1100 H         1 UNK         0.0785 
    121 H121      -50.9761  -25.4583   16.7161 H         1 UNK         0.2998 
    122 H122      -53.9601  -24.8547   15.0056 H         1 UNK         0.0697 
    123 H123      -52.0358  -22.6921   16.0070 H         1 UNK         0.0825 
    124 H124      -53.7794  -22.6873   16.2363 H         1 UNK         0.0825 
    125 H125      -53.1137  -22.5634   14.6168 H         1 UNK         0.0825 
    126 H126      -51.3603  -24.2742   14.1523 H         1 UNK         0.3029 
    127 H127      -49.6344  -26.1204   13.6261 H         1 UNK         0.0897 
    128 H128      -49.4550  -27.9784   12.0575 H         1 UNK         0.0792 
    129 H129      -50.2914  -28.5652   13.4795 H         1 UNK         0.0792 
    130 H130      -51.1956  -28.2020   12.0199 H         1 UNK         0.0792 
    131 H131      -51.0542  -26.0376   11.1035 H         1 UNK         0.3086 
    132 H132      -50.9600  -24.3740    9.7956 H         1 UNK         0.0583 
    133 H133      -52.6705  -22.8965   10.8539 H         1 UNK         0.1020 
    134 H134      -51.4471  -21.7187   11.2451 H         1 UNK         0.1020 
    135 H135      -54.2639  -22.3254    8.8242 H         1 UNK         0.0694 
    136 H136      -53.5975  -22.1632    7.2169 H         1 UNK         0.0694 
    137 H137      -49.3808  -22.1913    9.5379 H         1 UNK         0.2989 
    138 H138      -47.1127  -22.0699    9.2499 H         1 UNK         0.1055 
    139 H139      -44.8749  -23.1261    9.0874 H         1 UNK         0.0806 
    140 H140      -45.5580  -24.7171    9.4172 H         1 UNK         0.0806 
    141 H141      -45.5805  -23.4723   10.6584 H         1 UNK         0.0806 
    142 H142      -46.7838  -24.3315    7.3630 H         1 UNK         0.3061 
    143 H143      -48.9438  -23.9125    5.3130 H         1 UNK         0.0734 
    144 H144      -49.0024  -21.5783    4.4815 H         1 UNK         0.0832 
    145 H145      -47.2492  -21.5464    4.3419 H         1 UNK         0.0832 
    146 H146      -48.2045  -22.6041    3.3030 H         1 UNK         0.0832 
    147 H147      -45.9728  -23.8328    5.3524 H         1 UNK         0.3156 
    148 H148      -45.4906  -26.3768    3.2373 H         1 UNK         0.0589 
    149 H149      -43.4500  -25.9430    4.5680 H         1 UNK         0.0808 
    150 H150      -44.2455  -24.4314    4.1893 H         1 UNK         0.0808 
    151 H151      -44.3767  -25.1206    5.8121 H         1 UNK         0.0808 
    152 H152      -45.6018  -27.2981    6.0871 H         1 UNK         0.3098 
    153 H153      -46.5482  -30.5789    5.1124 H         1 UNK         0.0720 
    154 H154      -44.7266  -31.0947    6.7069 H         1 UNK         0.0791 
    155 H155      -44.0744  -30.5117    5.1842 H         1 UNK         0.0791 
    156 H156      -44.1096  -29.4486    6.5808 H         1 UNK         0.0791 
    157 H157      -47.7632  -30.0331    6.8331 H         1 UNK         0.3028 
@<TRIPOS>BOND
     1    1    2 1    
     2    1   82 1    
     3    1   83 1    
     4    1   84 1    
     5    2    3 2    
     6    2    4 am   BACKBONE|DICT|INTERRES
     7    4    5 1    
     8    4   85 1    
     9    5    6 1    
    10    5   80 1    
    11    5   86 1    
    12    6    7 1    
    13    6   87 1    
    14    6   88 1    
    15    7    8 1    
    16    8    9 1    
    17    8   89 1    
    18    8   90 1    
    19    9   10 ar   
    20    9   14 ar   
    21   10   11 ar   
    22   10   91 1    
    23   11   12 ar   
    24   11   58 1    
    25   12   13 ar   
    26   12   92 1    
    27   13   14 ar   
    28   13   15 1    
    29   14   93 1    
    30   15   16 1    
    31   15   94 1    
    32   15   95 1    
    33   16   17 1    
    34   17   18 1    
    35   17   96 1    
    36   17   97 1    
    37   18   19 1    
    38   18   22 1    
    39   18   98 1    
    40   19   20 am   BACKBONE|DICT|INTERRES
    41   19   21 2    
    42   20   99 1    
    43   20  100 1    
    44   22   23 am   BACKBONE|DICT|INTERRES
    45   22  101 1    
    46   23   24 2    
    47   23   25 1    
    48   25   26 1    
    49   25   27 1    
    50   25  102 1    
    51   26  103 1    
    52   26  104 1    
    53   26  105 1    
    54   27   28 am   BACKBONE|DICT|INTERRES
    55   27  106 1    
    56   28   29 2    
    57   28   30 1    
    58   30   31 1    
    59   30   32 1    
    60   30  107 1    
    61   31  108 1    
    62   31  109 1    
    63   31  110 1    
    64   32   33 am   BACKBONE|DICT|INTERRES
    65   32  111 1    
    66   33   34 2    
    67   33   35 1    
    68   35   36 1    
    69   35   37 1    
    70   35  112 1    
    71   36  113 1    
    72   36  114 1    
    73   36  115 1    
    74   37   38 am   BACKBONE|DICT|INTERRES
    75   37  116 1    
    76   38   39 2    
    77   38   40 1    
    78   40   41 1    
    79   40   42 1    
    80   40  117 1    
    81   41  118 1    
    82   41  119 1    
    83   41  120 1    
    84   42   43 am   BACKBONE|DICT|INTERRES
    85   42  121 1    
    86   43   44 2    
    87   43   45 1    
    88   45   46 1    
    89   45   47 1    
    90   45  122 1    
    91   46  123 1    
    92   46  124 1    
    93   46  125 1    
    94   47   48 am   BACKBONE|DICT|INTERRES
    95   47  126 1    
    96   48   49 2    
    97   48   50 1    
    98   50   51 1    
    99   50   52 1    
   100   50  127 1    
   101   51  128 1    
   102   51  129 1    
   103   51  130 1    
   104   52   53 am   BACKBONE|DICT|INTERRES
   105   52  131 1    
   106   53   54 2    
   107   53   55 1    
   108   55   56 1    
   109   55   59 1    
   110   55  132 1    
   111   56   57 1    
   112   56  133 1    
   113   56  134 1    
   114   57   58 1    
   115   58  135 1    
   116   58  136 1    
   117   59   60 am   BACKBONE|DICT|INTERRES
   118   59  137 1    
   119   60   61 2    
   120   60   62 1    
   121   62   63 1    
   122   62   64 1    
   123   62  138 1    
   124   63  139 1    
   125   63  140 1    
   126   63  141 1    
   127   64   65 am   BACKBONE|DICT|INTERRES
   128   64  142 1    
   129   65   66 2    
   130   65   67 1    
   131   67   68 1    
   132   67   69 1    
   133   67  143 1    
   134   68  144 1    
   135   68  145 1    
   136   68  146 1    
   137   69   70 am   BACKBONE|DICT|INTERRES
   138   69  147 1    
   139   70   71 2    
   140   70   72 1    
   141   72   73 1    
   142   72   74 1    
   143   72  148 1    
   144   73  149 1    
   145   73  150 1    
   146   73  151 1    
   147   74   75 am   BACKBONE|DICT|INTERRES
   148   74  152 1    
   149   75   76 2    
   150   75   77 1    
   151   77   78 1    
   152   77   79 1    
   153   77  153 1    
   154   78  154 1    
   155   78  155 1    
   156   78  156 1    
   157   79   80 am   BACKBONE|DICT|INTERRES
   158   79  157 1    
   159   80   81 2    
@<TRIPOS>SUBSTRUCTURE
     1 UNK         1 GROUP             0       ****    0 ROOT    
