@<TRIPOS>MOLECULE
3R207
157   159    1
SMALL
USER_CHARGES


@<TRIPOS>ATOM
      1 CA        -46.1368  -28.8109    2.0738 C.3       0 UNK        -0.1975 
      2 C         -47.5245  -28.4865    2.6078 C.2       0 UNK         0.4852 
      3 O         -48.3939  -28.0715    1.8396 O.2       0 UNK        -0.5216 
      4 N         -47.7399  -28.6816    3.9151 N.am      1 UNK        -0.4461 
      5 CA        -48.9923  -28.3772    4.6172 C.3       1 UNK         0.0864 
      6 C6        -49.0412  -29.0296    6.0212 C.3       14 UNK        -0.0898 
      7 S7        -48.8038  -30.8387    5.9584 S.3       14 UNK        -0.2598 
      8 C8        -50.4483  -31.4612    6.4451 C.3       14 UNK         0.0286 
      9 C9        -50.8208  -31.1468    7.8917 C.ar      14 UNK        -0.0844 
     10 C10       -49.8925  -31.3032    8.9286 C.ar      14 UNK        -0.0881 
     11 C11       -50.2437  -31.0182   10.2513 C.ar      14 UNK        -0.0643 
     12 C12       -51.5472  -30.5998   10.5386 C.ar      14 UNK        -0.0930 
     13 C13       -52.4922  -30.4613    9.5170 C.ar      14 UNK        -0.0827 
     14 C14       -52.1209  -30.7302    8.1963 C.ar      14 UNK        -0.1249 
     15 C15       -53.9187  -30.0440    9.8441 C.3       14 UNK         0.0141 
     16 S16       -54.1220  -28.2421    9.7251 S.3       14 UNK        -0.2313 
     17 C17       -55.7848  -27.9988   10.4471 C.3       14 UNK        -0.0915 
     18 CA        -55.7845  -27.5824   11.9537 C.3       13 UNK         0.0968 
     19 C         -55.5398  -28.7766   12.9259 C.2       13 UNK         0.5732 
     20 N         -54.6974  -28.6507   13.9610 N.am      13 UNK        -0.7310 
     21 O         -56.1418  -29.8409   12.7539 O.2       13 UNK        -0.5035 
     22 N         -54.9381  -26.4081   12.2325 N.am      13 UNK        -0.4233 
     23 C         -55.2239  -25.1495   11.8824 C.2       13 UNK         0.4989 
     24 O         -56.2540  -24.8114   11.2928 O.2       13 UNK        -0.4996 
     25 CA        -54.1628  -24.1032   12.2670 C.3       12 UNK         0.0216 
     26 CB        -54.3465  -22.7455   11.5523 C.3       12 UNK        -0.1964 
     27 N         -54.0587  -23.9396   13.7232 N.am      12 UNK        -0.4276 
     28 C         -54.9749  -23.4324   14.5630 C.2       12 UNK         0.5020 
     29 O         -56.0904  -23.0401   14.2128 O.2       12 UNK        -0.5489 
     30 CA        -54.5519  -23.2930   16.0410 C.3       11 UNK         0.0294 
     31 CB        -55.7486  -23.0571   16.9895 C.3       11 UNK        -0.2019 
     32 N         -53.6982  -24.3792   16.5407 N.am      11 UNK        -0.4493 
     33 C         -54.0251  -25.6738   16.6888 C.2       11 UNK         0.4932 
     34 O         -55.0992  -26.1534   16.3241 O.2       11 UNK        -0.5029 
     35 CA        -52.9773  -26.5774   17.3724 C.3       10 UNK         0.0280 
     36 CB        -53.0861  -28.0617   16.9614 C.3       10 UNK        -0.1976 
     37 N         -51.6222  -26.1135   17.0787 N.am      10 UNK        -0.4242 
     38 C         -50.7088  -25.7184   17.9755 C.2       10 UNK         0.5072 
     39 O         -50.8921  -25.7390   19.1939 O.2       10 UNK        -0.5224 
     40 CA        -49.3596  -25.1970   17.4342 C.3       9 UNK         0.0343 
     41 CB        -48.2676  -26.2641   17.6163 C.3       9 UNK        -0.2003 
     42 N         -49.3863  -24.7834   16.0268 N.am      9 UNK        -0.4272 
     43 C         -50.1495  -23.8024   15.5205 C.2       9 UNK         0.4988 
     44 O         -50.8815  -23.0806   16.1990 O.2       9 UNK        -0.5108 
     45 CA        -50.1726  -23.6689   13.9897 C.3       8 UNK         0.0248 
     46 CB        -48.9981  -22.8104   13.4963 C.3       8 UNK        -0.2001 
     47 N         -50.1567  -24.9626   13.3005 N.am      8 UNK        -0.4140 
     48 C         -51.0689  -25.9349   13.4436 C.2       8 UNK         0.5028 
     49 O         -52.0472  -25.8577   14.1858 O.2       8 UNK        -0.5428 
     50 CA        -50.8600  -27.2069   12.6220 C.3       7 UNK         0.0264 
     51 CB        -51.2325  -26.9531   11.1545 C.3       7 UNK        -0.1988 
     52 N         -49.4750  -27.6527   12.7014 N.am      7 UNK        -0.4454 
     53 C         -48.9424  -28.3463   13.7168 C.2       7 UNK         0.5027 
     54 O         -49.5801  -28.7249   14.6998 O.2       7 UNK        -0.5083 
     55 CA        -47.4344  -28.6710   13.6103 C.3       6 UNK         0.0844 
     56 C56       -47.1849  -30.0363   12.9157 C.3       14 UNK        -0.0967 
     57 S57       -47.7731  -30.1157   11.1819 S.3       14 UNK        -0.2604 
     58 C58       -49.2306  -31.1967   11.3747 C.3       14 UNK         0.0134 
     59 N         -46.6639  -27.5931   12.9807 N.am      6 UNK        -0.4116 
     60 C         -46.5189  -26.3565   13.4786 C.2       5 UNK         0.5034 
     61 O         -47.0012  -25.9824   14.5484 O.2       5 UNK        -0.5045 
     62 CA        -45.7518  -25.3456   12.6044 C.3       5 UNK         0.0224 
     63 CB        -44.2387  -25.4680   12.8450 C.3       5 UNK        -0.1978 
     64 N         -46.0289  -25.4398   11.1621 N.am      5 UNK        -0.4737 
     65 C         -47.2491  -25.4089   10.6085 C.2       4 UNK         0.5027 
     66 O         -48.2849  -25.3740   11.2728 O.2       4 UNK        -0.5211 
     67 CA        -47.3216  -25.4703    9.0707 C.3       4 UNK         0.0297 
     68 CB        -46.8239  -26.8327    8.5572 C.3       4 UNK        -0.1993 
     69 N         -48.6842  -25.2552    8.5722 N.am      4 UNK        -0.4486 
     70 C         -49.3650  -24.1026    8.6403 C.2       3 UNK         0.4961 
     71 O         -48.8774  -23.0347    9.0177 O.2       3 UNK        -0.5105 
     72 CA        -50.8442  -24.1804    8.2102 C.3       3 UNK         0.0299 
     73 CB        -51.6007  -22.8450    8.3823 C.3       3 UNK        -0.1972 
     74 N         -51.0071  -24.7155    6.8516 N.am      3 UNK        -0.4305 
     75 C         -50.5421  -24.1830    5.7104 C.2       2 UNK         0.5006 
     76 O         -49.9105  -23.1265    5.6432 O.2       2 UNK        -0.5106 
     77 CA        -50.8509  -24.9813    4.4267 C.3       2 UNK         0.0296 
     78 CB        -50.2807  -24.3166    3.1542 C.3       2 UNK        -0.2002 
     79 N         -50.4305  -26.3890    4.4970 N.am      2 UNK        -0.4032 
     80 C         -49.1883  -26.8498    4.7173 C.2       1 UNK         0.5000 
     81 O         -48.2204  -26.1361    4.9938 O.2       1 UNK        -0.5238 
     82 H82       -45.4725  -29.1738    2.8584 H         1 UNK         0.0889 
     83 H83       -45.6870  -27.9212    1.6337 H         1 UNK         0.0889 
     84 H84       -46.2012  -29.5780    1.3025 H         1 UNK         0.0889 
     85 H85       -46.9888  -29.0188    4.4996 H         1 UNK         0.3028 
     86 H86       -49.8101  -28.7914    4.0230 H         1 UNK         0.0864 
     87 H87       -49.9878  -28.8042    6.5162 H         1 UNK         0.0720 
     88 H88       -48.2606  -28.6199    6.6628 H         1 UNK         0.0720 
     89 H89       -50.4648  -32.5436    6.3126 H         1 UNK         0.0814 
     90 H90       -51.1914  -31.0555    5.7566 H         1 UNK         0.0814 
     91 H91       -48.8883  -31.6396    8.7086 H         1 UNK         0.1469 
     92 H92       -51.8317  -30.3865   11.5600 H         1 UNK         0.1381 
     93 H93       -52.8520  -30.6224    7.4064 H         1 UNK         0.1206 
     94 H94       -54.1782  -30.3809   10.8480 H         1 UNK         0.0813 
     95 H95       -54.6208  -30.5317    9.1666 H         1 UNK         0.0813 
     96 H96       -56.3922  -28.8920   10.2819 H         1 UNK         0.0638 
     97 H97       -56.2714  -27.2171    9.8605 H         1 UNK         0.0638 
     98 H98       -56.8092  -27.2811   12.1913 H         1 UNK         0.0568 
     99 H99       -54.5782  -29.4454   14.5723 H         1 UNK         0.3450 
    100 H100      -54.2686  -27.7678   14.2116 H         1 UNK         0.3450 
    101 H101      -54.0698  -26.5989   12.7136 H         1 UNK         0.2987 
    102 H102      -53.2027  -24.4987   11.9318 H         1 UNK         0.0766 
    103 H103      -53.5432  -22.0517   11.8064 H         1 UNK         0.0798 
    104 H104      -55.2953  -22.2693   11.8071 H         1 UNK         0.0798 
    105 H105      -54.3315  -22.8759   10.4692 H         1 UNK         0.0798 
    106 H106      -53.2298  -24.3591   14.1383 H         1 UNK         0.3198 
    107 H107      -53.9315  -22.3959   16.0786 H         1 UNK         0.0843 
    108 H108      -56.4604  -23.8826   16.9553 H         1 UNK         0.0831 
    109 H109      -56.2918  -22.1509   16.7175 H         1 UNK         0.0831 
    110 H110      -55.4208  -22.9371   18.0223 H         1 UNK         0.0831 
    111 H111      -52.7645  -24.0959   16.8173 H         1 UNK         0.3133 
    112 H112      -53.1818  -26.5106   18.4455 H         1 UNK         0.0566 
    113 H113      -52.4299  -28.6890   17.5731 H         1 UNK         0.0814 
    114 H114      -54.1020  -28.4423   17.0902 H         1 UNK         0.0814 
    115 H115      -52.7934  -28.2067   15.9157 H         1 UNK         0.0814 
    116 H116      -51.4061  -26.0339   16.0894 H         1 UNK         0.3091 
    117 H117      -49.0896  -24.3220   18.0294 H         1 UNK         0.0702 
    118 H118      -47.2857  -25.8774   17.3413 H         1 UNK         0.0785 
    119 H119      -48.4627  -27.1471   17.0051 H         1 UNK         0.0785 
    120 H120      -48.2059  -26.5915   18.6551 H         1 UNK         0.0785 
    121 H121      -48.7806  -25.2992   15.3961 H         1 UNK         0.2998 
    122 H122      -51.1014  -23.1652   13.7145 H         1 UNK         0.0697 
    123 H123      -48.0383  -23.2599   13.7513 H         1 UNK         0.0825 
    124 H124      -49.0244  -21.8167   13.9458 H         1 UNK         0.0825 
    125 H125      -49.0286  -22.6793   12.4137 H         1 UNK         0.0825 
    126 H126      -49.4069  -25.1097   12.6235 H         1 UNK         0.3029 
    127 H127      -51.5150  -27.9861   13.0207 H         1 UNK         0.0897 
    128 H128      -50.5936  -26.2035   10.6931 H         1 UNK         0.0792 
    129 H129      -52.2554  -26.5896   11.0696 H         1 UNK         0.0792 
    130 H130      -51.1532  -27.8615   10.5586 H         1 UNK         0.0792 
    131 H131      -48.8591  -27.3266   11.9672 H         1 UNK         0.3086 
    132 H132      -47.0647  -28.7574   14.6346 H         1 UNK         0.0583 
    133 H133      -46.1157  -30.2543   12.9167 H         1 UNK         0.1020 
    134 H134      -47.6358  -30.8415   13.4993 H         1 UNK         0.1020 
    135 H135      -48.9030  -32.2367   11.4054 H         1 UNK         0.0694 
    136 H136      -49.7063  -30.9948   12.3357 H         1 UNK         0.0694 
    137 H137      -46.2548  -27.8011   12.0814 H         1 UNK         0.2989 
    138 H138      -46.0636  -24.3497   12.9245 H         1 UNK         0.1055 
    139 H139      -44.0040  -25.3888   13.9076 H         1 UNK         0.0806 
    140 H140      -43.6901  -24.6748   12.3364 H         1 UNK         0.0806 
    141 H141      -43.8483  -26.4247   12.4952 H         1 UNK         0.0806 
    142 H142      -45.2245  -25.4786   10.5521 H         1 UNK         0.3061 
    143 H143      -46.6811  -24.6821    8.6700 H         1 UNK         0.0734 
    144 H144      -47.4394  -27.6549    8.9261 H         1 UNK         0.0832 
    145 H145      -46.8311  -26.8655    7.4674 H         1 UNK         0.0832 
    146 H146      -45.7980  -27.0296    8.8705 H         1 UNK         0.0832 
    147 H147      -49.1732  -26.0749    8.2474 H         1 UNK         0.3156 
    148 H148      -51.3212  -24.9001    8.8758 H         1 UNK         0.0589 
    149 H149      -51.1720  -22.0509    7.7702 H         1 UNK         0.0808 
    150 H150      -52.6520  -22.9462    8.1132 H         1 UNK         0.0808 
    151 H151      -51.5633  -22.5094    9.4197 H         1 UNK         0.0808 
    152 H152      -51.5115  -25.5887    6.7851 H         1 UNK         0.3098 
    153 H153      -51.9377  -24.9879    4.3288 H         1 UNK         0.0720 
    154 H154      -50.5541  -24.8746    2.2584 H         1 UNK         0.0791 
    155 H155      -49.1924  -24.2484    3.1860 H         1 UNK         0.0791 
    156 H156      -50.6670  -23.3035    3.0349 H         1 UNK         0.0791 
    157 H157      -51.1570  -27.0638    4.2999 H         1 UNK         0.3028 
@<TRIPOS>BOND
     1    1    2 1    
     2    1   82 1    
     3    1   83 1    
     4    1   84 1    
     5    2    3 2    
     6    2    4 am   BACKBONE|DICT|INTERRES
     7    4    5 1    
     8    4   85 1    
     9    5    6 1    
    10    5   80 1    
    11    5   86 1    
    12    6    7 1    
    13    6   87 1    
    14    6   88 1    
    15    7    8 1    
    16    8    9 1    
    17    8   89 1    
    18    8   90 1    
    19    9   10 ar   
    20    9   14 ar   
    21   10   11 ar   
    22   10   91 1    
    23   11   12 ar   
    24   11   58 1    
    25   12   13 ar   
    26   12   92 1    
    27   13   14 ar   
    28   13   15 1    
    29   14   93 1    
    30   15   16 1    
    31   15   94 1    
    32   15   95 1    
    33   16   17 1    
    34   17   18 1    
    35   17   96 1    
    36   17   97 1    
    37   18   19 1    
    38   18   22 1    
    39   18   98 1    
    40   19   20 am   BACKBONE|DICT|INTERRES
    41   19   21 2    
    42   20   99 1    
    43   20  100 1    
    44   22   23 am   BACKBONE|DICT|INTERRES
    45   22  101 1    
    46   23   24 2    
    47   23   25 1    
    48   25   26 1    
    49   25   27 1    
    50   25  102 1    
    51   26  103 1    
    52   26  104 1    
    53   26  105 1    
    54   27   28 am   BACKBONE|DICT|INTERRES
    55   27  106 1    
    56   28   29 2    
    57   28   30 1    
    58   30   31 1    
    59   30   32 1    
    60   30  107 1    
    61   31  108 1    
    62   31  109 1    
    63   31  110 1    
    64   32   33 am   BACKBONE|DICT|INTERRES
    65   32  111 1    
    66   33   34 2    
    67   33   35 1    
    68   35   36 1    
    69   35   37 1    
    70   35  112 1    
    71   36  113 1    
    72   36  114 1    
    73   36  115 1    
    74   37   38 am   BACKBONE|DICT|INTERRES
    75   37  116 1    
    76   38   39 2    
    77   38   40 1    
    78   40   41 1    
    79   40   42 1    
    80   40  117 1    
    81   41  118 1    
    82   41  119 1    
    83   41  120 1    
    84   42   43 am   BACKBONE|DICT|INTERRES
    85   42  121 1    
    86   43   44 2    
    87   43   45 1    
    88   45   46 1    
    89   45   47 1    
    90   45  122 1    
    91   46  123 1    
    92   46  124 1    
    93   46  125 1    
    94   47   48 am   BACKBONE|DICT|INTERRES
    95   47  126 1    
    96   48   49 2    
    97   48   50 1    
    98   50   51 1    
    99   50   52 1    
   100   50  127 1    
   101   51  128 1    
   102   51  129 1    
   103   51  130 1    
   104   52   53 am   BACKBONE|DICT|INTERRES
   105   52  131 1    
   106   53   54 2    
   107   53   55 1    
   108   55   56 1    
   109   55   59 1    
   110   55  132 1    
   111   56   57 1    
   112   56  133 1    
   113   56  134 1    
   114   57   58 1    
   115   58  135 1    
   116   58  136 1    
   117   59   60 am   BACKBONE|DICT|INTERRES
   118   59  137 1    
   119   60   61 2    
   120   60   62 1    
   121   62   63 1    
   122   62   64 1    
   123   62  138 1    
   124   63  139 1    
   125   63  140 1    
   126   63  141 1    
   127   64   65 am   BACKBONE|DICT|INTERRES
   128   64  142 1    
   129   65   66 2    
   130   65   67 1    
   131   67   68 1    
   132   67   69 1    
   133   67  143 1    
   134   68  144 1    
   135   68  145 1    
   136   68  146 1    
   137   69   70 am   BACKBONE|DICT|INTERRES
   138   69  147 1    
   139   70   71 2    
   140   70   72 1    
   141   72   73 1    
   142   72   74 1    
   143   72  148 1    
   144   73  149 1    
   145   73  150 1    
   146   73  151 1    
   147   74   75 am   BACKBONE|DICT|INTERRES
   148   74  152 1    
   149   75   76 2    
   150   75   77 1    
   151   77   78 1    
   152   77   79 1    
   153   77  153 1    
   154   78  154 1    
   155   78  155 1    
   156   78  156 1    
   157   79   80 am   BACKBONE|DICT|INTERRES
   158   79  157 1    
   159   80   81 2    
@<TRIPOS>SUBSTRUCTURE
     1 UNK         1 GROUP             0       ****    0 ROOT    
