@<TRIPOS>MOLECULE
3R207
157   159    1
SMALL
USER_CHARGES


@<TRIPOS>ATOM
      1 CA        -47.2629  -29.7523    5.9440 C.3       0 UNK        -0.1975 
      2 C         -48.0045  -28.5061    6.4029 C.2       0 UNK         0.4852 
      3 O         -47.8235  -28.0846    7.5426 O.2       0 UNK        -0.5216 
      4 N         -48.8272  -27.9233    5.5169 N.am      1 UNK        -0.4461 
      5 CA        -49.6541  -26.7198    5.7231 C.3       1 UNK         0.0864 
      6 C6        -50.7081  -26.8653    6.8586 C.3       14 UNK        -0.0898 
      7 S7        -52.0006  -28.0764    6.4225 S.3       14 UNK        -0.2598 
      8 C8        -51.5739  -29.5040    7.4689 C.3       14 UNK         0.0286 
      9 C9        -51.9015  -29.2667    8.9362 C.ar      14 UNK        -0.0844 
     10 C10       -50.8819  -29.2340    9.8927 C.ar      14 UNK        -0.0881 
     11 C11       -51.1826  -29.0454   11.2460 C.ar      14 UNK        -0.0643 
     12 C12       -52.5159  -28.8936   11.6376 C.ar      14 UNK        -0.0930 
     13 C13       -53.5433  -28.9329   10.6910 C.ar      14 UNK        -0.0827 
     14 C14       -53.2310  -29.1193    9.3424 C.ar      14 UNK        -0.1249 
     15 C15       -54.9900  -28.7968   11.1308 C.3       14 UNK         0.0141 
     16 S16       -55.6550  -30.4268   11.5782 S.3       14 UNK        -0.2313 
     17 C17       -57.3309  -30.0187   12.1775 C.3       14 UNK        -0.0915 
     18 CA        -57.3975  -29.0753   13.4201 C.3       13 UNK         0.0968 
     19 C         -58.8510  -28.9131   13.9596 C.2       13 UNK         0.5732 
     20 N         -59.0583  -28.5964   15.2307 N.am      13 UNK        -0.7310 
     21 O         -59.8159  -29.0504   13.2103 O.2       13 UNK        -0.5035 
     22 N         -56.3797  -29.3791   14.4404 N.am      13 UNK        -0.4233 
     23 C         -56.2644  -30.5233   15.1297 C.2       13 UNK         0.4989 
     24 O         -57.0795  -31.4456   15.0889 O.2       13 UNK        -0.4996 
     25 CA        -55.0077  -30.6708   16.0010 C.3       12 UNK         0.0216 
     26 CB        -53.7776  -30.9737   15.1277 C.3       12 UNK        -0.1964 
     27 N         -54.7690  -29.4515   16.7714 N.am      12 UNK        -0.4276 
     28 C         -55.1148  -29.2830   18.0553 C.2       12 UNK         0.5020 
     29 O         -55.5446  -30.1830   18.7782 O.2       12 UNK        -0.5489 
     30 CA        -54.9850  -27.8586   18.6304 C.3       11 UNK         0.0294 
     31 CB        -53.6120  -27.6696   19.2955 C.3       11 UNK        -0.2019 
     32 N         -55.1867  -26.8080   17.6276 N.am      11 UNK        -0.4493 
     33 C         -56.3125  -26.6272   16.9210 C.2       11 UNK         0.4932 
     34 O         -57.3472  -27.2632   17.1154 O.2       11 UNK        -0.5029 
     35 CA        -56.2711  -25.6080   15.7684 C.3       10 UNK         0.0280 
     36 CB        -56.9524  -24.2962   16.1885 C.3       10 UNK        -0.1976 
     37 N         -54.9227  -25.3164   15.2686 N.am      10 UNK        -0.4242 
     38 C         -54.0925  -26.1996   14.6964 C.2       10 UNK         0.5072 
     39 O         -54.3516  -27.3980   14.5502 O.2       10 UNK        -0.5224 
     40 CA        -52.7118  -25.6580   14.2891 C.3       9 UNK         0.0343 
     41 CB        -51.6086  -26.3789   15.0807 C.3       9 UNK        -0.2003 
     42 N         -52.4263  -25.7575   12.8549 N.am      9 UNK        -0.4272 
     43 C         -53.1866  -25.2727   11.8609 C.2       9 UNK         0.4988 
     44 O         -54.2889  -24.7461   12.0270 O.2       9 UNK        -0.5108 
     45 CA        -52.5692  -25.3382   10.4480 C.3       8 UNK         0.0248 
     46 CB        -53.5161  -24.8062    9.3530 C.3       8 UNK        -0.2001 
     47 N         -51.2665  -24.6643   10.3675 N.am      8 UNK        -0.4140 
     48 C         -50.9505  -23.4137   10.7417 C.2       8 UNK         0.5028 
     49 O         -51.7611  -22.6066   11.1999 O.2       8 UNK        -0.5428 
     50 CA        -49.4691  -22.9990   10.5913 C.3       7 UNK         0.0264 
     51 CB        -49.1431  -21.6776   11.3141 C.3       7 UNK        -0.1988 
     52 N         -48.5395  -24.0346   11.0604 N.am      7 UNK        -0.4454 
     53 C         -48.1925  -25.1157   10.3524 C.2       7 UNK         0.5027 
     54 O         -48.6364  -25.3479    9.2294 O.2       7 UNK        -0.5083 
     55 CA        -47.2643  -26.1364   11.0237 C.3       6 UNK         0.0844 
     56 C56       -47.9856  -27.4906   11.2459 C.3       14 UNK        -0.0967 
     57 S57       -49.3251  -27.3956   12.4803 S.3       14 UNK        -0.2604 
     58 C58       -50.0797  -29.0401   12.2943 C.3       14 UNK         0.0134 
     59 N         -46.0814  -26.2693   10.1811 N.am      6 UNK        -0.4116 
     60 C         -44.9433  -26.8809   10.5294 C.2       5 UNK         0.5034 
     61 O         -44.7460  -27.3936   11.6317 O.2       5 UNK        -0.5045 
     62 CA        -43.8246  -26.9102    9.4796 C.3       5 UNK         0.0224 
     63 CB        -44.2096  -27.7945    8.2799 C.3       5 UNK        -0.1978 
     64 N         -43.5312  -25.5542    9.0190 N.am      5 UNK        -0.4737 
     65 C         -42.5391  -24.7842    9.4860 C.2       4 UNK         0.5027 
     66 O         -41.7031  -25.1683   10.3045 O.2       4 UNK        -0.5211 
     67 CA        -42.4517  -23.3400    8.9537 C.3       4 UNK         0.0297 
     68 CB        -41.4422  -23.2568    7.7972 C.3       4 UNK        -0.1993 
     69 N         -43.7397  -22.8052    8.5054 N.am      4 UNK        -0.4486 
     70 C         -44.7693  -22.5140    9.3125 C.2       3 UNK         0.4961 
     71 O         -44.7141  -22.5692   10.5410 O.2       3 UNK        -0.5105 
     72 CA        -46.0986  -22.1219    8.6400 C.3       3 UNK         0.0299 
     73 CB        -46.2635  -20.5942    8.6197 C.3       3 UNK        -0.1972 
     74 N         -46.3036  -22.6531    7.2847 N.am      3 UNK        -0.4305 
     75 C         -46.2919  -23.9512    6.9508 C.2       2 UNK         0.5006 
     76 O         -45.9704  -24.8564    7.7210 O.2       2 UNK        -0.5106 
     77 CA        -46.6372  -24.3020    5.4984 C.3       2 UNK         0.0296 
     78 CB        -45.3598  -24.6425    4.7132 C.3       2 UNK        -0.2002 
     79 N         -47.5508  -25.4438    5.4524 N.am      2 UNK        -0.4032 
     80 C         -48.8430  -25.4032    5.8111 C.2       1 UNK         0.5000 
     81 O         -49.4158  -24.3567    6.1254 O.2       1 UNK        -0.5238 
     82 H82       -47.4957  -30.0116    4.9114 H         1 UNK         0.0889 
     83 H83       -47.5306  -30.5991    6.5754 H         1 UNK         0.0889 
     84 H84       -46.1870  -29.5970    6.0216 H         1 UNK         0.0889 
     85 H85       -48.9193  -28.3388    4.5999 H         1 UNK         0.3028 
     86 H86       -50.2122  -26.6050    4.7924 H         1 UNK         0.0864 
     87 H87       -50.2400  -27.1275    7.8080 H         1 UNK         0.0720 
     88 H88       -51.2234  -25.9207    7.0381 H         1 UNK         0.0720 
     89 H89       -50.5206  -29.7516    7.3354 H         1 UNK         0.0814 
     90 H90       -52.1356  -30.3717    7.1206 H         1 UNK         0.0814 
     91 H91       -49.8558  -29.3697    9.5816 H         1 UNK         0.1469 
     92 H92       -52.7584  -28.7525   12.6821 H         1 UNK         0.1381 
     93 H93       -54.0229  -29.1585    8.6068 H         1 UNK         0.1206 
     94 H94       -55.0499  -28.1184   11.9823 H         1 UNK         0.0813 
     95 H95       -55.5944  -28.3575   10.3358 H         1 UNK         0.0813 
     96 H96       -57.8882  -29.5846   11.3456 H         1 UNK         0.0638 
     97 H97       -57.8225  -30.9663   12.4045 H         1 UNK         0.0638 
     98 H98       -57.1409  -28.0760   13.0693 H         1 UNK         0.0568 
     99 H99       -58.2905  -28.3909   15.8608 H         1 UNK         0.3450 
    100 H100      -60.0056  -28.4926   15.5560 H         1 UNK         0.3450 
    101 H101      -55.6427  -28.6837   14.5242 H         1 UNK         0.2987 
    102 H102      -55.1609  -31.5196   16.6709 H         1 UNK         0.0766 
    103 H103      -53.9359  -31.8719   14.5292 H         1 UNK         0.0798 
    104 H104      -52.8907  -31.1419   15.7386 H         1 UNK         0.0798 
    105 H105      -53.5583  -30.1589   14.4374 H         1 UNK         0.0798 
    106 H106      -54.4469  -28.6451   16.2486 H         1 UNK         0.3198 
    107 H107      -55.7579  -27.7416   19.3933 H         1 UNK         0.0843 
    108 H108      -52.7973  -27.7537   18.5749 H         1 UNK         0.0831 
    109 H109      -53.4451  -28.4257   20.0642 H         1 UNK         0.0831 
    110 H110      -53.5349  -26.6963   19.7804 H         1 UNK         0.0831 
    111 H111      -54.3937  -26.2207   17.4160 H         1 UNK         0.3133 
    112 H112      -56.8394  -26.0366   14.9402 H         1 UNK         0.0566 
    113 H113      -57.0189  -23.5976   15.3541 H         1 UNK         0.0814 
    114 H114      -57.9706  -24.4790   16.5355 H         1 UNK         0.0814 
    115 H115      -56.4157  -23.8030   17.0000 H         1 UNK         0.0814 
    116 H116      -54.6200  -24.3554   15.3415 H         1 UNK         0.3091 
    117 H117      -52.6652  -24.5973   14.5434 H         1 UNK         0.0702 
    118 H118      -50.6305  -25.9358   14.8929 H         1 UNK         0.0785 
    119 H119      -51.5534  -27.4373   14.8220 H         1 UNK         0.0785 
    120 H120      -51.7880  -26.3156   16.1548 H         1 UNK         0.0785 
    121 H121      -51.5434  -26.1847   12.6093 H         1 UNK         0.2998 
    122 H122      -52.3790  -26.3889   10.2324 H         1 UNK         0.0697 
    123 H123      -53.7468  -23.7500    9.4965 H         1 UNK         0.0825 
    124 H124      -54.4605  -25.3519    9.3574 H         1 UNK         0.0825 
    125 H125      -53.0807  -24.9234    8.3610 H         1 UNK         0.0825 
    126 H126      -50.5094  -25.2152    9.9749 H         1 UNK         0.3029 
    127 H127      -49.3037  -22.8371    9.5234 H         1 UNK         0.0897 
    128 H128      -48.1008  -21.3913   11.1727 H         1 UNK         0.0792 
    129 H129      -49.3292  -21.7488   12.3864 H         1 UNK         0.0792 
    130 H130      -49.7543  -20.8598   10.9300 H         1 UNK         0.0792 
    131 H131      -48.1824  -23.9290   11.9996 H         1 UNK         0.3086 
    132 H132      -46.9409  -25.7409   11.9890 H         1 UNK         0.0583 
    133 H133      -48.3747  -27.8643   10.2983 H         1 UNK         0.1020 
    134 H134      -47.2788  -28.2440   11.5953 H         1 UNK         0.1020 
    135 H135      -49.3159  -29.7781   12.0447 H         1 UNK         0.0694 
    136 H136      -50.4859  -29.3448   13.2602 H         1 UNK         0.0694 
    137 H137      -46.1675  -25.8623    9.2494 H         1 UNK         0.2989 
    138 H138      -42.9394  -27.3482    9.9467 H         1 UNK         0.1055 
    139 H139      -45.0800  -27.4095    7.7474 H         1 UNK         0.0806 
    140 H140      -44.4509  -28.8077    8.6039 H         1 UNK         0.0806 
    141 H141      -43.3894  -27.8686    7.5658 H         1 UNK         0.0806 
    142 H142      -44.2231  -25.1404    8.3999 H         1 UNK         0.3061 
    143 H143      -42.0900  -22.7108    9.7699 H         1 UNK         0.0734 
    144 H144      -41.3097  -22.2296    7.4572 H         1 UNK         0.0832 
    145 H145      -40.4624  -23.6214    8.1091 H         1 UNK         0.0832 
    146 H146      -41.7555  -23.8580    6.9426 H         1 UNK         0.0832 
    147 H147      -43.8792  -22.7215    7.5092 H         1 UNK         0.3156 
    148 H148      -46.8922  -22.5364    9.2609 H         1 UNK         0.0589 
    149 H149      -47.2558  -20.3058    8.2724 H         1 UNK         0.0808 
    150 H150      -46.1399  -20.1741    9.6191 H         1 UNK         0.0808 
    151 H151      -45.5264  -20.1171    7.9726 H         1 UNK         0.0808 
    152 H152      -46.5528  -21.9785    6.5751 H         1 UNK         0.3098 
    153 H153      -47.1244  -23.4477    5.0238 H         1 UNK         0.0720 
    154 H154      -45.5849  -24.8820    3.6737 H         1 UNK         0.0791 
    155 H155      -44.8327  -25.4936    5.1473 H         1 UNK         0.0791 
    156 H156      -44.6677  -23.7993    4.7073 H         1 UNK         0.0791 
    157 H157      -47.1479  -26.3438    5.2411 H         1 UNK         0.3028 
@<TRIPOS>BOND
     1    1    2 1    
     2    1   82 1    
     3    1   83 1    
     4    1   84 1    
     5    2    3 2    
     6    2    4 am   BACKBONE|DICT|INTERRES
     7    4    5 1    
     8    4   85 1    
     9    5    6 1    
    10    5   80 1    
    11    5   86 1    
    12    6    7 1    
    13    6   87 1    
    14    6   88 1    
    15    7    8 1    
    16    8    9 1    
    17    8   89 1    
    18    8   90 1    
    19    9   10 ar   
    20    9   14 ar   
    21   10   11 ar   
    22   10   91 1    
    23   11   12 ar   
    24   11   58 1    
    25   12   13 ar   
    26   12   92 1    
    27   13   14 ar   
    28   13   15 1    
    29   14   93 1    
    30   15   16 1    
    31   15   94 1    
    32   15   95 1    
    33   16   17 1    
    34   17   18 1    
    35   17   96 1    
    36   17   97 1    
    37   18   19 1    
    38   18   22 1    
    39   18   98 1    
    40   19   20 am   BACKBONE|DICT|INTERRES
    41   19   21 2    
    42   20   99 1    
    43   20  100 1    
    44   22   23 am   BACKBONE|DICT|INTERRES
    45   22  101 1    
    46   23   24 2    
    47   23   25 1    
    48   25   26 1    
    49   25   27 1    
    50   25  102 1    
    51   26  103 1    
    52   26  104 1    
    53   26  105 1    
    54   27   28 am   BACKBONE|DICT|INTERRES
    55   27  106 1    
    56   28   29 2    
    57   28   30 1    
    58   30   31 1    
    59   30   32 1    
    60   30  107 1    
    61   31  108 1    
    62   31  109 1    
    63   31  110 1    
    64   32   33 am   BACKBONE|DICT|INTERRES
    65   32  111 1    
    66   33   34 2    
    67   33   35 1    
    68   35   36 1    
    69   35   37 1    
    70   35  112 1    
    71   36  113 1    
    72   36  114 1    
    73   36  115 1    
    74   37   38 am   BACKBONE|DICT|INTERRES
    75   37  116 1    
    76   38   39 2    
    77   38   40 1    
    78   40   41 1    
    79   40   42 1    
    80   40  117 1    
    81   41  118 1    
    82   41  119 1    
    83   41  120 1    
    84   42   43 am   BACKBONE|DICT|INTERRES
    85   42  121 1    
    86   43   44 2    
    87   43   45 1    
    88   45   46 1    
    89   45   47 1    
    90   45  122 1    
    91   46  123 1    
    92   46  124 1    
    93   46  125 1    
    94   47   48 am   BACKBONE|DICT|INTERRES
    95   47  126 1    
    96   48   49 2    
    97   48   50 1    
    98   50   51 1    
    99   50   52 1    
   100   50  127 1    
   101   51  128 1    
   102   51  129 1    
   103   51  130 1    
   104   52   53 am   BACKBONE|DICT|INTERRES
   105   52  131 1    
   106   53   54 2    
   107   53   55 1    
   108   55   56 1    
   109   55   59 1    
   110   55  132 1    
   111   56   57 1    
   112   56  133 1    
   113   56  134 1    
   114   57   58 1    
   115   58  135 1    
   116   58  136 1    
   117   59   60 am   BACKBONE|DICT|INTERRES
   118   59  137 1    
   119   60   61 2    
   120   60   62 1    
   121   62   63 1    
   122   62   64 1    
   123   62  138 1    
   124   63  139 1    
   125   63  140 1    
   126   63  141 1    
   127   64   65 am   BACKBONE|DICT|INTERRES
   128   64  142 1    
   129   65   66 2    
   130   65   67 1    
   131   67   68 1    
   132   67   69 1    
   133   67  143 1    
   134   68  144 1    
   135   68  145 1    
   136   68  146 1    
   137   69   70 am   BACKBONE|DICT|INTERRES
   138   69  147 1    
   139   70   71 2    
   140   70   72 1    
   141   72   73 1    
   142   72   74 1    
   143   72  148 1    
   144   73  149 1    
   145   73  150 1    
   146   73  151 1    
   147   74   75 am   BACKBONE|DICT|INTERRES
   148   74  152 1    
   149   75   76 2    
   150   75   77 1    
   151   77   78 1    
   152   77   79 1    
   153   77  153 1    
   154   78  154 1    
   155   78  155 1    
   156   78  156 1    
   157   79   80 am   BACKBONE|DICT|INTERRES
   158   79  157 1    
   159   80   81 2    
@<TRIPOS>SUBSTRUCTURE
     1 UNK         1 GROUP             0       ****    0 ROOT    
