@<TRIPOS>MOLECULE
3R207
157   159    1
SMALL
USER_CHARGES


@<TRIPOS>ATOM
      1 CA        -52.7951  -29.6302    6.7631 C.3       0 UNK        -0.1975 
      2 C         -52.8214  -28.1580    6.3866 C.2       0 UNK         0.4852 
      3 O         -53.0506  -27.8285    5.2225 O.2       0 UNK        -0.5216 
      4 N         -52.5926  -27.2722    7.3655 N.am      1 UNK        -0.4461 
      5 CA        -52.6039  -25.8109    7.2062 C.3       1 UNK         0.0864 
      6 C6        -52.5795  -25.0607    8.5645 C.3       14 UNK        -0.0898 
      7 S7        -53.8175  -25.6681    9.7608 S.3       14 UNK        -0.2598 
      8 C8        -52.7696  -26.3669   11.0778 C.3       14 UNK         0.0286 
      9 C9        -52.1377  -27.6913   10.6772 C.ar      14 UNK        -0.0844 
     10 C10       -50.8891  -27.7253   10.0505 C.ar      14 UNK        -0.0881 
     11 C11       -50.3000  -28.9455    9.6989 C.ar      14 UNK        -0.0643 
     12 C12       -50.9809  -30.1374    9.9688 C.ar      14 UNK        -0.0930 
     13 C13       -52.2255  -30.1158   10.6040 C.ar      14 UNK        -0.0827 
     14 C14       -52.7905  -28.8914   10.9656 C.ar      14 UNK        -0.1249 
     15 C15       -52.9577  -31.4090   10.9230 C.3       14 UNK         0.0141 
     16 S16       -54.1308  -31.8528    9.5988 S.3       14 UNK        -0.2313 
     17 C17       -55.4945  -32.5801   10.5740 C.3       14 UNK        -0.0915 
     18 CA        -56.7519  -31.6705   10.6966 C.3       13 UNK         0.0968 
     19 C         -57.7340  -32.2815   11.7375 C.2       13 UNK         0.5732 
     20 N         -57.7496  -31.8050   12.9773 N.am      13 UNK        -0.7310 
     21 O         -58.4826  -33.2008   11.4140 O.2       13 UNK        -0.5035 
     22 N         -56.3955  -30.2657   10.9466 N.am      13 UNK        -0.4233 
     23 C         -57.2395  -29.2297   11.0183 C.2       13 UNK         0.4989 
     24 O         -58.4545  -29.3079   10.8251 O.2       13 UNK        -0.4996 
     25 CA        -56.5993  -27.8723   11.3717 C.3       12 UNK         0.0216 
     26 CB        -57.3629  -26.7048   10.7195 C.3       12 UNK        -0.1964 
     27 N         -56.4643  -27.5938   12.8105 N.am      12 UNK        -0.4276 
     28 C         -56.1201  -28.4174   13.8149 C.2       12 UNK         0.5020 
     29 O         -55.8999  -29.6242   13.6975 O.2       12 UNK        -0.5489 
     30 CA        -55.9699  -27.7425   15.1925 C.3       11 UNK         0.0294 
     31 CB        -55.7069  -28.7503   16.3327 C.3       11 UNK        -0.2019 
     32 N         -54.9455  -26.6873   15.1800 N.am      11 UNK        -0.4493 
     33 C         -53.6386  -26.8215   14.8982 C.2       11 UNK         0.4932 
     34 O         -53.0996  -27.8929   14.6174 O.2       11 UNK        -0.5029 
     35 CA        -52.7906  -25.5323   14.8805 C.3       10 UNK         0.0280 
     36 CB        -53.4368  -24.3274   15.6030 C.3       10 UNK        -0.1976 
     37 N         -51.4260  -25.7594   15.3630 N.am      10 UNK        -0.4242 
     38 C         -51.0463  -26.1187   16.5989 C.2       10 UNK         0.5072 
     39 O         -51.8209  -26.3431   17.5304 O.2       10 UNK        -0.5224 
     40 CA        -49.5293  -26.1946   16.8508 C.3       9 UNK         0.0343 
     41 CB        -48.9677  -27.5665   16.4423 C.3       9 UNK        -0.2003 
     42 N         -48.8053  -25.1295   16.1502 N.am      9 UNK        -0.4272 
     43 C         -48.8445  -23.8337   16.4986 C.2       9 UNK         0.4988 
     44 O         -49.3966  -23.4144   17.5164 O.2       9 UNK        -0.5108 
     45 CA        -48.1680  -22.8298   15.5501 C.3       8 UNK         0.0248 
     46 CB        -46.7083  -22.5855   15.9663 C.3       8 UNK        -0.2001 
     47 N         -48.2242  -23.2657   14.1520 N.am      8 UNK        -0.4140 
     48 C         -49.3162  -23.1572   13.3778 C.2       8 UNK         0.5028 
     49 O         -50.3601  -22.6171   13.7441 O.2       8 UNK        -0.5428 
     50 CA        -49.2516  -23.7608   11.9616 C.3       7 UNK         0.0264 
     51 CB        -48.8235  -22.6866   10.9510 C.3       7 UNK        -0.1988 
     52 N         -48.3609  -24.9202   11.8510 N.am      7 UNK        -0.4454 
     53 C         -48.5279  -26.0749   12.5178 C.2       7 UNK         0.5027 
     54 O         -49.5076  -26.2985   13.2295 O.2       7 UNK        -0.5083 
     55 CA        -47.3863  -27.1220   12.4601 C.3       6 UNK         0.0844 
     56 C56       -47.7023  -28.2954   11.5015 C.3       14 UNK        -0.0967 
     57 S57       -47.7200  -27.8175    9.7341 S.3       14 UNK        -0.2604 
     58 C58       -48.9261  -28.9978    9.0368 C.3       14 UNK         0.0134 
     59 N         -46.0713  -26.5389   12.1812 N.am      6 UNK        -0.4116 
     60 C         -45.4652  -25.5917   12.9087 C.2       5 UNK         0.5034 
     61 O         -45.9065  -25.1754   13.9798 O.2       5 UNK        -0.5045 
     62 CA        -44.1924  -24.9506   12.3220 C.3       5 UNK         0.0224 
     63 CB        -42.9453  -25.5001   13.0326 C.3       5 UNK        -0.1978 
     64 N         -44.0195  -25.0916   10.8667 N.am      5 UNK        -0.4737 
     65 C         -44.8955  -24.7130    9.9238 C.2       4 UNK         0.5027 
     66 O         -46.0121  -24.2578   10.1800 O.2       4 UNK        -0.5211 
     67 CA        -44.4513  -24.9337    8.4643 C.3       4 UNK         0.0297 
     68 CB        -44.3107  -26.4343    8.1504 C.3       4 UNK        -0.1993 
     69 N         -45.3815  -24.3490    7.4977 N.am      4 UNK        -0.4486 
     70 C         -45.5621  -23.0410    7.2724 C.2       3 UNK         0.4961 
     71 O         -44.8858  -22.1594    7.8053 O.2       3 UNK        -0.5105 
     72 CA        -46.6575  -22.6378    6.2603 C.3       3 UNK         0.0299 
     73 CB        -46.0449  -21.8764    5.0716 C.3       3 UNK        -0.1972 
     74 N         -47.4470  -23.7629    5.7405 N.am      3 UNK        -0.4305 
     75 C         -48.4024  -24.4106    6.4200 C.2       2 UNK         0.5006 
     76 O         -48.7263  -24.1351    7.5756 O.2       2 UNK        -0.5106 
     77 CA        -49.0606  -25.5988    5.6959 C.3       2 UNK         0.0296 
     78 CB        -48.1088  -26.8081    5.6759 C.3       2 UNK        -0.2002 
     79 N         -50.3118  -25.9979    6.3412 N.am      2 UNK        -0.4032 
     80 C         -51.4542  -25.2956    6.3136 C.2       1 UNK         0.5000 
     81 O         -51.6206  -24.2803    5.6339 O.2       1 UNK        -0.5238 
     82 H82       -52.8750  -29.7659    7.8398 H         1 UNK         0.0889 
     83 H83       -51.8670  -30.0910    6.4263 H         1 UNK         0.0889 
     84 H84       -53.6288  -30.1563    6.2990 H         1 UNK         0.0889 
     85 H85       -52.4473  -27.6022    8.3116 H         1 UNK         0.3028 
     86 H86       -53.5382  -25.5548    6.7018 H         1 UNK         0.0864 
     87 H87       -51.5877  -25.0958    9.0167 H         1 UNK         0.0720 
     88 H88       -52.7824  -24.0007    8.4006 H         1 UNK         0.0720 
     89 H89       -52.0032  -25.6495   11.3717 H         1 UNK         0.0814 
     90 H90       -53.3955  -26.5196   11.9566 H         1 UNK         0.0814 
     91 H91       -50.3624  -26.8020    9.8542 H         1 UNK         0.1469 
     92 H92       -50.5386  -31.0856    9.6950 H         1 UNK         0.1381 
     93 H93       -53.7326  -28.8760   11.4914 H         1 UNK         0.1206 
     94 H94       -53.4788  -31.2923   11.8748 H         1 UNK         0.0813 
     95 H95       -52.2497  -32.2270   11.0637 H         1 UNK         0.0813 
     96 H96       -55.7710  -33.5235   10.1000 H         1 UNK         0.0638 
     97 H97       -55.1153  -32.8518   11.5611 H         1 UNK         0.0638 
     98 H98       -57.2665  -31.6852    9.7343 H         1 UNK         0.0568 
     99 H99       -57.1142  -31.0562   13.2417 H         1 UNK         0.3450 
    100 H100      -58.3825  -32.1976   13.6550 H         1 UNK         0.3450 
    101 H101      -55.4257  -30.1096   11.1718 H         1 UNK         0.2987 
    102 H102      -55.5982  -27.8639   10.9436 H         1 UNK         0.0766 
    103 H103      -56.8314  -25.7611   10.8440 H         1 UNK         0.0798 
    104 H104      -58.3614  -26.5870   11.1426 H         1 UNK         0.0798 
    105 H105      -57.4796  -26.8653    9.6466 H         1 UNK         0.0798 
    106 H106      -56.6201  -26.6293   13.0642 H         1 UNK         0.3198 
    107 H107      -56.9228  -27.2550   15.4054 H         1 UNK         0.0843 
    108 H108      -55.6460  -28.2498   17.2989 H         1 UNK         0.0831 
    109 H109      -54.7786  -29.3026   16.1828 H         1 UNK         0.0831 
    110 H110      -56.5117  -29.4837   16.3962 H         1 UNK         0.0831 
    111 H111      -55.2773  -25.7570   15.3944 H         1 UNK         0.3133 
    112 H112      -52.6804  -25.2535   13.8329 H         1 UNK         0.0566 
    113 H113      -52.7678  -23.4662   15.5948 H         1 UNK         0.0814 
    114 H114      -54.3576  -24.0120   15.1115 H         1 UNK         0.0814 
    115 H115      -53.6714  -24.5512   16.6445 H         1 UNK         0.0814 
    116 H116      -50.7048  -25.7290   14.6472 H         1 UNK         0.3091 
    117 H117      -49.3621  -26.0691   17.9228 H         1 UNK         0.0702 
    118 H118      -49.4478  -28.3639   17.0111 H         1 UNK         0.0785 
    119 H119      -47.8965  -27.6314   16.6339 H         1 UNK         0.0785 
    120 H120      -49.1350  -27.7796   15.3866 H         1 UNK         0.0785 
    121 H121      -48.3252  -25.3848   15.2994 H         1 UNK         0.2998 
    122 H122      -48.7014  -21.8805   15.6370 H         1 UNK         0.0697 
    123 H123      -46.1251  -23.5065   15.9728 H         1 UNK         0.0825 
    124 H124      -46.6588  -22.1670   16.9725 H         1 UNK         0.0825 
    125 H125      -46.2156  -21.8794   15.2977 H         1 UNK         0.0825 
    126 H126      -47.4101  -23.7549   13.7972 H         1 UNK         0.3029 
    127 H127      -50.2584  -24.0907   11.7012 H         1 UNK         0.0897 
    128 H128      -48.8432  -23.0723    9.9329 H         1 UNK         0.0792 
    129 H129      -49.4936  -21.8265   10.9843 H         1 UNK         0.0792 
    130 H130      -47.8138  -22.3247   11.1495 H         1 UNK         0.0792 
    131 H131      -47.5355  -24.8010   11.2663 H         1 UNK         0.3086 
    132 H132      -47.3207  -27.5429   13.4656 H         1 UNK         0.0583 
    133 H133      -46.9581  -29.0831   11.6284 H         1 UNK         0.1020 
    134 H134      -48.6526  -28.7517   11.7833 H         1 UNK         0.1020 
    135 H135      -49.0440  -28.7979    7.9718 H         1 UNK         0.0694 
    136 H136      -48.5024  -30.0002    9.1172 H         1 UNK         0.0694 
    137 H137      -45.6572  -26.7926   11.2965 H         1 UNK         0.2989 
    138 H138      -44.2619  -23.8812   12.5326 H         1 UNK         0.1055 
    139 H139      -43.0286  -25.3854   14.1147 H         1 UNK         0.0806 
    140 H140      -42.0443  -24.9697   12.7237 H         1 UNK         0.0806 
    141 H141      -42.7990  -26.5615   12.8283 H         1 UNK         0.0806 
    142 H142      -43.1327  -25.4696   10.5638 H         1 UNK         0.3061 
    143 H143      -43.4788  -24.4542    8.3346 H         1 UNK         0.0734 
    144 H144      -43.9616  -26.5932    7.1298 H         1 UNK         0.0832 
    145 H145      -43.5894  -26.9181    8.8097 H         1 UNK         0.0832 
    146 H146      -45.2586  -26.9611    8.2627 H         1 UNK         0.0832 
    147 H147      -46.0190  -24.9866    7.0475 H         1 UNK         0.3156 
    148 H148      -47.3357  -21.9591    6.7821 H         1 UNK         0.0589 
    149 H149      -45.3478  -22.4991    4.5094 H         1 UNK         0.0808 
    150 H150      -46.8149  -21.5263    4.3838 H         1 UNK         0.0808 
    151 H151      -45.4949  -20.9970    5.4098 H         1 UNK         0.0808 
    152 H152      -47.2321  -24.0633    4.7998 H         1 UNK         0.3098 
    153 H153      -49.2831  -25.3027    4.6685 H         1 UNK         0.0720 
    154 H154      -48.5750  -27.6736    5.2044 H         1 UNK         0.0791 
    155 H155      -47.8023  -27.0979    6.6816 H         1 UNK         0.0791 
    156 H156      -47.2017  -26.5882    5.1117 H         1 UNK         0.0791 
    157 H157      -50.2715  -26.8038    6.9454 H         1 UNK         0.3028 
@<TRIPOS>BOND
     1    1    2 1    
     2    1   82 1    
     3    1   83 1    
     4    1   84 1    
     5    2    3 2    
     6    2    4 am   BACKBONE|DICT|INTERRES
     7    4    5 1    
     8    4   85 1    
     9    5    6 1    
    10    5   80 1    
    11    5   86 1    
    12    6    7 1    
    13    6   87 1    
    14    6   88 1    
    15    7    8 1    
    16    8    9 1    
    17    8   89 1    
    18    8   90 1    
    19    9   10 ar   
    20    9   14 ar   
    21   10   11 ar   
    22   10   91 1    
    23   11   12 ar   
    24   11   58 1    
    25   12   13 ar   
    26   12   92 1    
    27   13   14 ar   
    28   13   15 1    
    29   14   93 1    
    30   15   16 1    
    31   15   94 1    
    32   15   95 1    
    33   16   17 1    
    34   17   18 1    
    35   17   96 1    
    36   17   97 1    
    37   18   19 1    
    38   18   22 1    
    39   18   98 1    
    40   19   20 am   BACKBONE|DICT|INTERRES
    41   19   21 2    
    42   20   99 1    
    43   20  100 1    
    44   22   23 am   BACKBONE|DICT|INTERRES
    45   22  101 1    
    46   23   24 2    
    47   23   25 1    
    48   25   26 1    
    49   25   27 1    
    50   25  102 1    
    51   26  103 1    
    52   26  104 1    
    53   26  105 1    
    54   27   28 am   BACKBONE|DICT|INTERRES
    55   27  106 1    
    56   28   29 2    
    57   28   30 1    
    58   30   31 1    
    59   30   32 1    
    60   30  107 1    
    61   31  108 1    
    62   31  109 1    
    63   31  110 1    
    64   32   33 am   BACKBONE|DICT|INTERRES
    65   32  111 1    
    66   33   34 2    
    67   33   35 1    
    68   35   36 1    
    69   35   37 1    
    70   35  112 1    
    71   36  113 1    
    72   36  114 1    
    73   36  115 1    
    74   37   38 am   BACKBONE|DICT|INTERRES
    75   37  116 1    
    76   38   39 2    
    77   38   40 1    
    78   40   41 1    
    79   40   42 1    
    80   40  117 1    
    81   41  118 1    
    82   41  119 1    
    83   41  120 1    
    84   42   43 am   BACKBONE|DICT|INTERRES
    85   42  121 1    
    86   43   44 2    
    87   43   45 1    
    88   45   46 1    
    89   45   47 1    
    90   45  122 1    
    91   46  123 1    
    92   46  124 1    
    93   46  125 1    
    94   47   48 am   BACKBONE|DICT|INTERRES
    95   47  126 1    
    96   48   49 2    
    97   48   50 1    
    98   50   51 1    
    99   50   52 1    
   100   50  127 1    
   101   51  128 1    
   102   51  129 1    
   103   51  130 1    
   104   52   53 am   BACKBONE|DICT|INTERRES
   105   52  131 1    
   106   53   54 2    
   107   53   55 1    
   108   55   56 1    
   109   55   59 1    
   110   55  132 1    
   111   56   57 1    
   112   56  133 1    
   113   56  134 1    
   114   57   58 1    
   115   58  135 1    
   116   58  136 1    
   117   59   60 am   BACKBONE|DICT|INTERRES
   118   59  137 1    
   119   60   61 2    
   120   60   62 1    
   121   62   63 1    
   122   62   64 1    
   123   62  138 1    
   124   63  139 1    
   125   63  140 1    
   126   63  141 1    
   127   64   65 am   BACKBONE|DICT|INTERRES
   128   64  142 1    
   129   65   66 2    
   130   65   67 1    
   131   67   68 1    
   132   67   69 1    
   133   67  143 1    
   134   68  144 1    
   135   68  145 1    
   136   68  146 1    
   137   69   70 am   BACKBONE|DICT|INTERRES
   138   69  147 1    
   139   70   71 2    
   140   70   72 1    
   141   72   73 1    
   142   72   74 1    
   143   72  148 1    
   144   73  149 1    
   145   73  150 1    
   146   73  151 1    
   147   74   75 am   BACKBONE|DICT|INTERRES
   148   74  152 1    
   149   75   76 2    
   150   75   77 1    
   151   77   78 1    
   152   77   79 1    
   153   77  153 1    
   154   78  154 1    
   155   78  155 1    
   156   78  156 1    
   157   79   80 am   BACKBONE|DICT|INTERRES
   158   79  157 1    
   159   80   81 2    
@<TRIPOS>SUBSTRUCTURE
     1 UNK         1 GROUP             0       ****    0 ROOT    
