@<TRIPOS>MOLECULE
3R207
157   159    1
SMALL
USER_CHARGES


@<TRIPOS>ATOM
      1 CA        -47.2795  -27.1673    2.8777 C.3       0 UNK        -0.1975 
      2 C         -48.6637  -27.3159    3.4921 C.2       0 UNK         0.4852 
      3 O         -49.5880  -27.7714    2.8174 O.2       0 UNK        -0.5216 
      4 N         -48.8115  -26.9341    4.7639 N.am      1 UNK        -0.4461 
      5 CA        -50.0561  -26.9688    5.5260 C.3       1 UNK         0.0864 
      6 C6        -50.2817  -28.3542    6.1811 C.3       14 UNK        -0.0898 
      7 S7        -52.0197  -28.6289    6.6431 S.3       14 UNK        -0.2598 
      8 C8        -51.9405  -30.3560    7.2111 C.3       14 UNK         0.0286 
      9 C9        -51.4363  -30.4626    8.6431 C.ar      14 UNK        -0.0844 
     10 C10       -50.1105  -30.8159    8.9183 C.ar      14 UNK        -0.0881 
     11 C11       -49.6711  -30.9547   10.2410 C.ar      14 UNK        -0.0643 
     12 C12       -50.5727  -30.7421   11.2891 C.ar      14 UNK        -0.0930 
     13 C13       -51.8941  -30.3706   11.0248 C.ar      14 UNK        -0.0827 
     14 C14       -52.3167  -30.2281    9.7010 C.ar      14 UNK        -0.1249 
     15 C15       -52.8591  -30.0817   12.1631 C.3       14 UNK         0.0141 
     16 S16       -54.3164  -31.1701   12.1192 S.3       14 UNK        -0.2313 
     17 C17       -55.3626  -30.4107   13.4048 C.3       14 UNK        -0.0915 
     18 CA        -56.3880  -29.3997   12.8214 C.3       13 UNK         0.0968 
     19 C         -57.5116  -29.0692   13.8480 C.2       13 UNK         0.5732 
     20 N         -57.7610  -27.8153   14.2081 N.am      13 UNK        -0.7310 
     21 O         -58.1916  -29.9770   14.3211 O.2       13 UNK        -0.5035 
     22 N         -55.7168  -28.2102   12.2769 N.am      13 UNK        -0.4233 
     23 C         -56.1592  -27.4762   11.2492 C.2       13 UNK         0.4989 
     24 O         -57.1485  -27.7748   10.5772 O.2       13 UNK        -0.4996 
     25 CA        -55.3655  -26.1915   10.9169 C.3       12 UNK         0.0216 
     26 CB        -56.1974  -25.1690   10.1152 C.3       12 UNK        -0.1964 
     27 N         -54.7563  -25.5397   12.0844 N.am      12 UNK        -0.4276 
     28 C         -55.3611  -25.1477   13.2148 C.2       12 UNK         0.5020 
     29 O         -56.5645  -25.2869   13.4446 O.2       12 UNK        -0.5489 
     30 CA        -54.4429  -24.5330   14.2875 C.3       11 UNK         0.0294 
     31 CB        -55.1695  -23.4317   15.0803 C.3       11 UNK        -0.2019 
     32 N         -53.8579  -25.4849   15.2434 N.am      11 UNK        -0.4493 
     33 C         -53.4606  -26.7547   15.0616 C.2       11 UNK         0.4932 
     34 O         -53.6415  -27.4225   14.0445 O.2       11 UNK        -0.5029 
     35 CA        -52.6479  -27.3508   16.2182 C.3       10 UNK         0.0280 
     36 CB        -52.4513  -28.8729   16.1002 C.3       10 UNK        -0.1976 
     37 N         -51.3416  -26.6975   16.2210 N.am      10 UNK        -0.4242 
     38 C         -51.0414  -25.6124   16.9456 C.2       10 UNK         0.5072 
     39 O         -51.8026  -25.1086   17.7732 O.2       10 UNK        -0.5224 
     40 CA        -49.6833  -24.9532   16.6689 C.3       9 UNK         0.0343 
     41 CB        -48.5314  -25.8371   17.1750 C.3       9 UNK        -0.2003 
     42 N         -49.4946  -24.6386   15.2496 N.am      9 UNK        -0.4272 
     43 C         -50.1980  -23.7160   14.5723 C.2       9 UNK         0.4988 
     44 O         -51.0790  -23.0185   15.0758 O.2       9 UNK        -0.5108 
     45 CA        -49.8624  -23.5301   13.0829 C.3       8 UNK         0.0248 
     46 CB        -48.5588  -22.7350   12.9051 C.3       8 UNK        -0.2001 
     47 N         -49.7584  -24.8085   12.3842 N.am      8 UNK        -0.4140 
     48 C         -50.8025  -25.5800   12.0552 C.2       8 UNK         0.5028 
     49 O         -51.9767  -25.2325   12.1732 O.2       8 UNK        -0.5428 
     50 CA        -50.4969  -26.9737   11.4915 C.3       7 UNK         0.0264 
     51 CB        -50.5199  -26.9591    9.9596 C.3       7 UNK        -0.1988 
     52 N         -49.2122  -27.5078   11.9356 N.am      7 UNK        -0.4454 
     53 C         -48.9534  -27.9624   13.1671 C.2       7 UNK         0.5027 
     54 O         -49.7612  -27.9389   14.0971 O.2       7 UNK        -0.5083 
     55 CA        -47.5260  -28.4951   13.4044 C.3       6 UNK         0.0844 
     56 C56       -47.3102  -29.9072   12.7991 C.3       14 UNK        -0.0967 
     57 S57       -47.1714  -29.9506   10.9708 S.3       14 UNK        -0.2604 
     58 C58       -48.2332  -31.3673   10.5316 C.3       14 UNK         0.0134 
     59 N         -46.4989  -27.5419   12.9747 N.am      6 UNK        -0.4116 
     60 C         -46.3315  -26.3136   13.4826 C.2       5 UNK         0.5034 
     61 O         -47.0190  -25.8418   14.3862 O.2       5 UNK        -0.5045 
     62 CA        -45.2370  -25.4407   12.8492 C.3       5 UNK         0.0224 
     63 CB        -43.8668  -25.7622   13.4670 C.3       5 UNK        -0.1978 
     64 N         -45.1511  -25.5305   11.3868 N.am      5 UNK        -0.4737 
     65 C         -46.1618  -25.2996   10.5390 C.2       4 UNK         0.5027 
     66 O         -47.3304  -25.1173   10.8885 O.2       4 UNK        -0.5211 
     67 CA        -45.8111  -25.2992    9.0444 C.3       4 UNK         0.0297 
     68 CB        -45.9896  -26.7107    8.4609 C.3       4 UNK        -0.1993 
     69 N         -46.6723  -24.3660    8.3186 N.am      4 UNK        -0.4486 
     70 C         -46.6231  -23.0271    8.4247 C.2       3 UNK         0.4961 
     71 O         -45.7348  -22.4163    9.0195 O.2       3 UNK        -0.5105 
     72 CA        -47.7825  -22.2419    7.7917 C.3       3 UNK         0.0299 
     73 CB        -47.4898  -22.0323    6.2900 C.3       3 UNK        -0.1972 
     74 N         -49.0130  -22.9981    8.0283 N.am      3 UNK        -0.4305 
     75 C         -50.2197  -22.8740    7.4685 C.2       2 UNK         0.5006 
     76 O         -50.5609  -21.9592    6.7170 O.2       2 UNK        -0.5106 
     77 CA        -51.1951  -24.0264    7.7801 C.3       2 UNK         0.0296 
     78 CB        -52.6606  -23.5566    7.8085 C.3       2 UNK        -0.2002 
     79 N         -51.0668  -25.1431    6.8320 N.am      2 UNK        -0.4032 
     80 C         -49.9562  -25.8534    6.5751 C.2       1 UNK         0.5000 
     81 O         -48.8710  -25.6782    7.1366 O.2       1 UNK        -0.5238 
     82 H82       -47.3213  -26.5039    2.0144 H         1 UNK         0.0889 
     83 H83       -46.9108  -28.1372    2.5452 H         1 UNK         0.0889 
     84 H84       -46.5608  -26.7566    3.5866 H         1 UNK         0.0889 
     85 H85       -48.0375  -26.5335    5.2799 H         1 UNK         0.3028 
     86 H86       -50.8818  -26.7386    4.8487 H         1 UNK         0.0864 
     87 H87       -49.6403  -28.4948    7.0538 H         1 UNK         0.0720 
     88 H88       -50.0096  -29.1432    5.4782 H         1 UNK         0.0720 
     89 H89       -51.3187  -30.9448    6.5350 H         1 UNK         0.0814 
     90 H90       -52.9406  -30.7880    7.1502 H         1 UNK         0.0814 
     91 H91       -49.4228  -30.9922    8.1026 H         1 UNK         0.1469 
     92 H92       -50.2439  -30.8532   12.3121 H         1 UNK         0.1381 
     93 H93       -53.3384  -29.9398    9.4939 H         1 UNK         0.1206 
     94 H94       -53.1766  -29.0444   12.0776 H         1 UNK         0.0813 
     95 H95       -52.3660  -30.1806   13.1303 H         1 UNK         0.0813 
     96 H96       -54.7369  -29.9373   14.1619 H         1 UNK         0.0638 
     97 H97       -55.8740  -31.2326   13.9090 H         1 UNK         0.0638 
     98 H98       -56.9007  -29.9031   11.9998 H         1 UNK         0.0568 
     99 H99       -57.2384  -27.0330   13.8231 H         1 UNK         0.3450 
    100 H100      -58.5005  -27.6379   14.8681 H         1 UNK         0.3450 
    101 H101      -54.9235  -27.8701   12.8178 H         1 UNK         0.2987 
    102 H102      -54.5347  -26.5105   10.2856 H         1 UNK         0.0766 
    103 H103      -57.0716  -24.8358   10.6757 H         1 UNK         0.0798 
    104 H104      -56.5535  -25.5981    9.1778 H         1 UNK         0.0798 
    105 H105      -55.6060  -24.2892    9.8613 H         1 UNK         0.0798 
    106 H106      -53.7382  -25.4421   12.0559 H         1 UNK         0.3198 
    107 H107      -53.6093  -24.0526   13.7733 H         1 UNK         0.0843 
    108 H108      -55.9648  -23.8424   15.7038 H         1 UNK         0.0831 
    109 H109      -55.6253  -22.7025   14.4091 H         1 UNK         0.0831 
    110 H110      -54.4809  -22.8872   15.7270 H         1 UNK         0.0831 
    111 H111      -53.6038  -25.0771   16.1333 H         1 UNK         0.3133 
    112 H112      -53.1827  -27.1560   17.1502 H         1 UNK         0.0566 
    113 H113      -53.4108  -29.3901   16.0894 H         1 UNK         0.0814 
    114 H114      -51.8824  -29.2629   16.9441 H         1 UNK         0.0814 
    115 H115      -51.9188  -29.1437   15.1889 H         1 UNK         0.0814 
    116 H116      -50.6827  -27.0248   15.5171 H         1 UNK         0.3091 
    117 H117      -49.6523  -24.0135   17.2244 H         1 UNK         0.0702 
    118 H118      -47.5726  -25.3270   17.0805 H         1 UNK         0.0785 
    119 H119      -48.4653  -26.7747   16.6211 H         1 UNK         0.0785 
    120 H120      -48.6626  -26.0868   18.2287 H         1 UNK         0.0785 
    121 H121      -48.7480  -25.1399   14.7750 H         1 UNK         0.2998 
    122 H122      -50.6713  -22.9559   12.6257 H         1 UNK         0.0697 
    123 H123      -47.7037  -23.2581   13.3337 H         1 UNK         0.0825 
    124 H124      -48.6256  -21.7619   13.3933 H         1 UNK         0.0825 
    125 H125      -48.3446  -22.5566   11.8510 H         1 UNK         0.0825 
    126 H126      -48.8256  -25.1229   12.1307 H         1 UNK         0.3029 
    127 H127      -51.2829  -27.6419   11.8451 H         1 UNK         0.0897 
    128 H128      -49.7473  -26.3012    9.5628 H         1 UNK         0.0792 
    129 H129      -51.4853  -26.6193    9.5830 H         1 UNK         0.0792 
    130 H130      -50.3481  -27.9535    9.5505 H         1 UNK         0.0792 
    131 H131      -48.4738  -27.5475   11.2473 H         1 UNK         0.3086 
    132 H132      -47.4168  -28.5959   14.4867 H         1 UNK         0.0583 
    133 H133      -46.3866  -30.3267   13.2011 H         1 UNK         0.1020 
    134 H134      -48.0950  -30.5846   13.1380 H         1 UNK         0.1020 
    135 H135      -47.8048  -31.8521    9.6531 H         1 UNK         0.0694 
    136 H136      -48.2091  -32.1178   11.3231 H         1 UNK         0.0694 
    137 H137      -45.9074  -27.8339   12.2106 H         1 UNK         0.2989 
    138 H138      -45.4804  -24.4038   13.0903 H         1 UNK         0.1055 
    139 H139      -43.9018  -25.6871   14.5551 H         1 UNK         0.0806 
    140 H140      -43.1021  -25.0657   13.1227 H         1 UNK         0.0806 
    141 H141      -43.5374  -26.7724   13.2207 H         1 UNK         0.0806 
    142 H142      -44.2309  -25.6916   11.0021 H         1 UNK         0.3061 
    143 H143      -44.7733  -24.9853    8.9151 H         1 UNK         0.0734 
    144 H144      -45.7633  -26.7321    7.3949 H         1 UNK         0.0832 
    145 H145      -45.3242  -27.4243    8.9483 H         1 UNK         0.0832 
    146 H146      -47.0092  -27.0766    8.5935 H         1 UNK         0.0832 
    147 H147      -47.4442  -24.7921    7.8068 H         1 UNK         0.3156 
    148 H148      -47.8668  -21.2747    8.2900 H         1 UNK         0.0589 
    149 H149      -47.5239  -22.9719    5.7369 H         1 UNK         0.0808 
    150 H150      -48.2002  -21.3456    5.8309 H         1 UNK         0.0808 
    151 H151      -46.4986  -21.6013    6.1414 H         1 UNK         0.0808 
    152 H152      -48.8763  -23.8015    8.6293 H         1 UNK         0.3098 
    153 H153      -50.9588  -24.3982    8.7777 H         1 UNK         0.0720 
    154 H154      -53.3263  -24.3541    8.1399 H         1 UNK         0.0791 
    155 H155      -52.9986  -23.2213    6.8271 H         1 UNK         0.0791 
    156 H156      -52.7887  -22.7227    8.5001 H         1 UNK         0.0791 
    157 H157      -51.9030  -25.3749    6.3160 H         1 UNK         0.3028 
@<TRIPOS>BOND
     1    1    2 1    
     2    1   82 1    
     3    1   83 1    
     4    1   84 1    
     5    2    3 2    
     6    2    4 am   BACKBONE|DICT|INTERRES
     7    4    5 1    
     8    4   85 1    
     9    5    6 1    
    10    5   80 1    
    11    5   86 1    
    12    6    7 1    
    13    6   87 1    
    14    6   88 1    
    15    7    8 1    
    16    8    9 1    
    17    8   89 1    
    18    8   90 1    
    19    9   10 ar   
    20    9   14 ar   
    21   10   11 ar   
    22   10   91 1    
    23   11   12 ar   
    24   11   58 1    
    25   12   13 ar   
    26   12   92 1    
    27   13   14 ar   
    28   13   15 1    
    29   14   93 1    
    30   15   16 1    
    31   15   94 1    
    32   15   95 1    
    33   16   17 1    
    34   17   18 1    
    35   17   96 1    
    36   17   97 1    
    37   18   19 1    
    38   18   22 1    
    39   18   98 1    
    40   19   20 am   BACKBONE|DICT|INTERRES
    41   19   21 2    
    42   20   99 1    
    43   20  100 1    
    44   22   23 am   BACKBONE|DICT|INTERRES
    45   22  101 1    
    46   23   24 2    
    47   23   25 1    
    48   25   26 1    
    49   25   27 1    
    50   25  102 1    
    51   26  103 1    
    52   26  104 1    
    53   26  105 1    
    54   27   28 am   BACKBONE|DICT|INTERRES
    55   27  106 1    
    56   28   29 2    
    57   28   30 1    
    58   30   31 1    
    59   30   32 1    
    60   30  107 1    
    61   31  108 1    
    62   31  109 1    
    63   31  110 1    
    64   32   33 am   BACKBONE|DICT|INTERRES
    65   32  111 1    
    66   33   34 2    
    67   33   35 1    
    68   35   36 1    
    69   35   37 1    
    70   35  112 1    
    71   36  113 1    
    72   36  114 1    
    73   36  115 1    
    74   37   38 am   BACKBONE|DICT|INTERRES
    75   37  116 1    
    76   38   39 2    
    77   38   40 1    
    78   40   41 1    
    79   40   42 1    
    80   40  117 1    
    81   41  118 1    
    82   41  119 1    
    83   41  120 1    
    84   42   43 am   BACKBONE|DICT|INTERRES
    85   42  121 1    
    86   43   44 2    
    87   43   45 1    
    88   45   46 1    
    89   45   47 1    
    90   45  122 1    
    91   46  123 1    
    92   46  124 1    
    93   46  125 1    
    94   47   48 am   BACKBONE|DICT|INTERRES
    95   47  126 1    
    96   48   49 2    
    97   48   50 1    
    98   50   51 1    
    99   50   52 1    
   100   50  127 1    
   101   51  128 1    
   102   51  129 1    
   103   51  130 1    
   104   52   53 am   BACKBONE|DICT|INTERRES
   105   52  131 1    
   106   53   54 2    
   107   53   55 1    
   108   55   56 1    
   109   55   59 1    
   110   55  132 1    
   111   56   57 1    
   112   56  133 1    
   113   56  134 1    
   114   57   58 1    
   115   58  135 1    
   116   58  136 1    
   117   59   60 am   BACKBONE|DICT|INTERRES
   118   59  137 1    
   119   60   61 2    
   120   60   62 1    
   121   62   63 1    
   122   62   64 1    
   123   62  138 1    
   124   63  139 1    
   125   63  140 1    
   126   63  141 1    
   127   64   65 am   BACKBONE|DICT|INTERRES
   128   64  142 1    
   129   65   66 2    
   130   65   67 1    
   131   67   68 1    
   132   67   69 1    
   133   67  143 1    
   134   68  144 1    
   135   68  145 1    
   136   68  146 1    
   137   69   70 am   BACKBONE|DICT|INTERRES
   138   69  147 1    
   139   70   71 2    
   140   70   72 1    
   141   72   73 1    
   142   72   74 1    
   143   72  148 1    
   144   73  149 1    
   145   73  150 1    
   146   73  151 1    
   147   74   75 am   BACKBONE|DICT|INTERRES
   148   74  152 1    
   149   75   76 2    
   150   75   77 1    
   151   77   78 1    
   152   77   79 1    
   153   77  153 1    
   154   78  154 1    
   155   78  155 1    
   156   78  156 1    
   157   79   80 am   BACKBONE|DICT|INTERRES
   158   79  157 1    
   159   80   81 2    
@<TRIPOS>SUBSTRUCTURE
     1 UNK         1 GROUP             0       ****    0 ROOT    
