@<TRIPOS>MOLECULE
3R207
157   159    1
SMALL
USER_CHARGES


@<TRIPOS>ATOM
      1 CA        -53.0408  -23.6977    9.4772 C.3       0 UNK        -0.1975 
      2 C         -52.0694  -24.1641    8.4036 C.2       0 UNK         0.4852 
      3 O         -51.8704  -23.4655    7.4084 O.2       0 UNK        -0.5216 
      4 N         -51.4484  -25.3322    8.6106 N.am      1 UNK        -0.4461 
      5 CA        -50.4541  -25.9922    7.7534 C.3       1 UNK         0.0864 
      6 C6        -50.9787  -26.3423    6.3329 C.3       14 UNK        -0.0898 
      7 S7        -50.0229  -27.6901    5.5489 S.3       14 UNK        -0.2598 
      8 C8        -51.0087  -29.1666    5.9719 C.3       14 UNK         0.0286 
      9 C9        -51.1634  -29.3277    7.4773 C.ar      14 UNK        -0.0844 
     10 C10       -50.1113  -29.8313    8.2488 C.ar      14 UNK        -0.0881 
     11 C11       -50.2211  -29.8939    9.6418 C.ar      14 UNK        -0.0643 
     12 C12       -51.4055  -29.4786   10.2582 C.ar      14 UNK        -0.0930 
     13 C13       -52.4678  -28.9871    9.4948 C.ar      14 UNK        -0.0827 
     14 C14       -52.3443  -28.9218    8.1053 C.ar      14 UNK        -0.1249 
     15 C15       -53.7505  -28.5300   10.1681 C.3       14 UNK         0.0141 
     16 S16       -53.4989  -27.0191   11.1516 S.3       14 UNK        -0.2313 
     17 C17       -55.2179  -26.6317   11.6286 C.3       14 UNK        -0.0915 
     18 CA        -55.5240  -26.9193   13.1259 C.3       13 UNK         0.0968 
     19 C         -56.9251  -26.3976   13.5391 C.2       13 UNK         0.5732 
     20 N         -56.9835  -25.4013   14.4112 N.am      13 UNK        -0.7310 
     21 O         -57.9570  -26.8531   13.0511 O.2       13 UNK        -0.5035 
     22 N         -55.3184  -28.3152   13.5400 N.am      13 UNK        -0.4233 
     23 C         -55.8529  -29.4306   13.0216 C.2       13 UNK         0.4989 
     24 O         -56.6051  -29.4576   12.0476 O.2       13 UNK        -0.4996 
     25 CA        -55.4447  -30.7698   13.6679 C.3       12 UNK         0.0216 
     26 CB        -54.3582  -31.4610   12.8259 C.3       12 UNK        -0.1964 
     27 N         -54.9593  -30.6292   15.0428 N.am      12 UNK        -0.4276 
     28 C         -55.7455  -30.4421   16.1110 C.2       12 UNK         0.5020 
     29 O         -56.9762  -30.4536   16.0667 O.2       12 UNK        -0.5489 
     30 CA        -55.0408  -30.1759   17.4556 C.3       11 UNK         0.0294 
     31 CB        -54.8610  -31.4888   18.2353 C.3       11 UNK        -0.2019 
     32 N         -53.7429  -29.4928   17.3462 N.am      11 UNK        -0.4493 
     33 C         -53.5544  -28.2877   16.7909 C.2       11 UNK         0.4932 
     34 O         -54.4424  -27.6538   16.2193 O.2       11 UNK        -0.5029 
     35 CA        -52.1242  -27.7237   16.8327 C.3       10 UNK         0.0280 
     36 CB        -51.3116  -28.2611   15.6427 C.3       10 UNK        -0.1976 
     37 N         -52.1227  -26.2579   16.7941 N.am      10 UNK        -0.4242 
     38 C         -52.6186  -25.4719   17.7653 C.2       10 UNK         0.5072 
     39 O         -53.0072  -25.9031   18.8528 O.2       10 UNK        -0.5224 
     40 CA        -52.6921  -23.9516   17.5118 C.3       9 UNK         0.0343 
     41 CB        -51.6316  -23.2149   18.3477 C.3       9 UNK        -0.2003 
     42 N         -52.5259  -23.5761   16.1081 N.am      9 UNK        -0.4272 
     43 C         -53.4147  -23.7917   15.1279 C.2       9 UNK         0.4988 
     44 O         -54.5513  -24.2228   15.3186 O.2       9 UNK        -0.5108 
     45 CA        -52.9546  -23.4951   13.6849 C.3       8 UNK         0.0248 
     46 CB        -53.6595  -22.2423   13.1408 C.3       8 UNK        -0.2001 
     47 N         -51.4997  -23.3373   13.5401 N.am      8 UNK        -0.4140 
     48 C         -50.6062  -24.3131   13.7530 C.2       8 UNK         0.5028 
     49 O         -50.9134  -25.4595   14.0855 O.2       8 UNK        -0.5428 
     50 CA        -49.1241  -23.9199   13.6868 C.3       7 UNK         0.0264 
     51 CB        -48.6028  -23.5809   15.0936 C.3       7 UNK        -0.1988 
     52 N         -48.3314  -25.0175   13.1348 N.am      7 UNK        -0.4454 
     53 C         -48.2424  -25.2780   11.8264 C.2       7 UNK         0.5027 
     54 O         -48.7535  -24.5707   10.9544 O.2       7 UNK        -0.5083 
     55 CA        -47.4803  -26.5510   11.4219 C.3       6 UNK         0.0844 
     56 C56       -48.4792  -27.6652   11.0272 C.3       14 UNK        -0.0967 
     57 S57       -47.6604  -29.2056   10.4925 S.3       14 UNK        -0.2604 
     58 C58       -49.0523  -30.3835   10.4862 C.3       14 UNK         0.0134 
     59 N         -46.5594  -26.2114   10.3376 N.am      6 UNK        -0.4116 
     60 C         -45.3197  -25.7345   10.5097 C.2       5 UNK         0.5034 
     61 O         -44.7995  -25.5847   11.6173 O.2       5 UNK        -0.5045 
     62 CA        -44.5327  -25.3347    9.2432 C.3       5 UNK         0.0224 
     63 CB        -43.0030  -25.4270    9.4306 C.3       5 UNK        -0.1978 
     64 N         -44.9622  -26.0453    8.0326 N.am      5 UNK        -0.4737 
     65 C         -44.8915  -27.3613    7.7748 C.2       4 UNK         0.5027 
     66 O         -44.3344  -28.1743    8.5124 O.2       4 UNK        -0.5211 
     67 CA        -45.5746  -27.8655    6.4877 C.3       4 UNK         0.0297 
     68 CB        -46.6234  -28.9410    6.8184 C.3       4 UNK        -0.1993 
     69 N         -46.2437  -26.7824    5.7636 N.am      4 UNK        -0.4486 
     70 C         -45.7551  -26.1455    4.6913 C.2       3 UNK         0.4961 
     71 O         -44.7007  -26.4513    4.1339 O.2       3 UNK        -0.5105 
     72 CA        -46.5672  -24.9503    4.1528 C.3       3 UNK         0.0299 
     73 CB        -47.4828  -25.4023    3.0038 C.3       3 UNK        -0.1972 
     74 N         -47.3760  -24.2757    5.1732 N.am      3 UNK        -0.4305 
     75 C         -46.8890  -23.6176    6.2362 C.2       2 UNK         0.5006 
     76 O         -45.6879  -23.4548    6.4482 O.2       2 UNK        -0.5106 
     77 CA        -47.9076  -23.1167    7.2768 C.3       2 UNK         0.0296 
     78 CB        -48.3405  -21.6766    6.9625 C.3       2 UNK        -0.2002 
     79 N         -49.0960  -23.9668    7.3991 N.am      2 UNK        -0.4032 
     80 C         -49.0940  -25.2710    7.7051 C.2       1 UNK         0.5000 
     81 O         -48.0654  -25.9146    7.9190 O.2       1 UNK        -0.5238 
     82 H82       -54.0554  -24.0063    9.2273 H         1 UNK         0.0889 
     83 H83       -53.0232  -22.6112    9.5582 H         1 UNK         0.0889 
     84 H84       -52.7848  -24.1096   10.4532 H         1 UNK         0.0889 
     85 H85       -51.6645  -25.8398    9.4584 H         1 UNK         0.3028 
     86 H86       -50.2595  -26.9302    8.2694 H         1 UNK         0.0864 
     87 H87       -50.9571  -25.4694    5.6783 H         1 UNK         0.0720 
     88 H88       -52.0259  -26.6426    6.3793 H         1 UNK         0.0720 
     89 H89       -50.5215  -30.0500    5.5570 H         1 UNK         0.0814 
     90 H90       -51.9843  -29.0999    5.4880 H         1 UNK         0.0814 
     91 H91       -49.1920  -30.1382    7.7699 H         1 UNK         0.1469 
     92 H92       -51.4981  -29.5193   11.3349 H         1 UNK         0.1381 
     93 H93       -53.1592  -28.5295    7.5123 H         1 UNK         0.1206 
     94 H94       -54.1142  -29.3309   10.8079 H         1 UNK         0.0813 
     95 H95       -54.5293  -28.3507    9.4253 H         1 UNK         0.0813 
     96 H96       -55.3675  -25.5705   11.4218 H         1 UNK         0.0638 
     97 H97       -55.9163  -27.1579   10.9766 H         1 UNK         0.0638 
     98 H98       -54.7871  -26.3608   13.7037 H         1 UNK         0.0568 
     99 H99       -56.1321  -25.0070   14.8076 H         1 UNK         0.3450 
    100 H100      -57.8810  -25.0361   14.6852 H         1 UNK         0.3450 
    101 H101      -54.7993  -28.3981   14.4062 H         1 UNK         0.2987 
    102 H102      -56.3283  -31.4120   13.6753 H         1 UNK         0.0766 
    103 H103      -54.1039  -32.4402   13.2320 H         1 UNK         0.0798 
    104 H104      -53.4436  -30.8684   12.7781 H         1 UNK         0.0798 
    105 H105      -54.6991  -31.6179   11.8014 H         1 UNK         0.0798 
    106 H106      -53.9591  -30.6230   15.1809 H         1 UNK         0.3198 
    107 H107      -55.6987  -29.5242   18.0348 H         1 UNK         0.0843 
    108 H108      -54.1809  -32.1725   17.7256 H         1 UNK         0.0831 
    109 H109      -55.8144  -32.0062   18.3529 H         1 UNK         0.0831 
    110 H110      -54.4697  -31.3073   19.2365 H         1 UNK         0.0831 
    111 H111      -52.9544  -29.9522   17.7804 H         1 UNK         0.3133 
    112 H112      -51.6451  -28.0402   17.7615 H         1 UNK         0.0566 
    113 H113      -50.2960  -27.8646   15.6440 H         1 UNK         0.0814 
    114 H114      -51.2337  -29.3484   15.6753 H         1 UNK         0.0814 
    115 H115      -51.7701  -27.9946   14.6887 H         1 UNK         0.0814 
    116 H116      -51.8314  -25.8368   15.9181 H         1 UNK         0.3091 
    117 H117      -53.6796  -23.6171   17.8366 H         1 UNK         0.0702 
    118 H118      -51.7468  -23.4378   19.4094 H         1 UNK         0.0785 
    119 H119      -50.6194  -23.5046   18.0623 H         1 UNK         0.0785 
    120 H120      -51.7174  -22.1339   18.2357 H         1 UNK         0.0785 
    121 H121      -51.6270  -23.1991   15.8498 H         1 UNK         0.2998 
    122 H122      -53.2559  -24.3485   13.0735 H         1 UNK         0.0697 
    123 H123      -53.3990  -21.3514   13.7136 H         1 UNK         0.0825 
    124 H124      -54.7438  -22.3539   13.1880 H         1 UNK         0.0825 
    125 H125      -53.4014  -22.0591   12.0980 H         1 UNK         0.0825 
    126 H126      -51.1683  -22.4159   13.2908 H         1 UNK         0.3029 
    127 H127      -49.0112  -23.0394   13.0498 H         1 UNK         0.0897 
    128 H128      -47.5468  -23.3107   15.0699 H         1 UNK         0.0792 
    129 H129      -48.7183  -24.4194   15.7824 H         1 UNK         0.0792 
    130 H130      -49.1410  -22.7328   15.5188 H         1 UNK         0.0792 
    131 H131      -47.9321  -25.6666   13.7974 H         1 UNK         0.3086 
    132 H132      -46.9044  -26.9075   12.2788 H         1 UNK         0.0583 
    133 H133      -49.1370  -27.8974   11.8676 H         1 UNK         0.1020 
    134 H134      -49.1269  -27.3273   10.2184 H         1 UNK         0.1020 
    135 H135      -48.7032  -31.3416   10.0987 H         1 UNK         0.0694 
    136 H136      -49.3669  -30.5653   11.5150 H         1 UNK         0.0694 
    137 H137      -46.9535  -26.2368    9.4005 H         1 UNK         0.2989 
    138 H138      -44.7750  -24.2848    9.0707 H         1 UNK         0.1055 
    139 H139      -42.6659  -24.7662   10.2302 H         1 UNK         0.0806 
    140 H140      -42.4738  -25.1313    8.5248 H         1 UNK         0.0806 
    141 H141      -42.6859  -26.4370    9.6913 H         1 UNK         0.0806 
    142 H142      -45.4220  -25.4647    7.3422 H         1 UNK         0.3061 
    143 H143      -44.8022  -28.3193    5.8637 H         1 UNK         0.0734 
    144 H144      -47.0986  -29.3252    5.9158 H         1 UNK         0.0832 
    145 H145      -46.1721  -29.7889    7.3352 H         1 UNK         0.0832 
    146 H146      -47.4063  -28.5448    7.4660 H         1 UNK         0.0832 
    147 H147      -47.1013  -26.4462    6.1897 H         1 UNK         0.3156 
    148 H148      -45.8560  -24.2218    3.7578 H         1 UNK         0.0589 
    149 H149      -46.9066  -25.8841    2.2125 H         1 UNK         0.0808 
    150 H150      -48.2323  -26.1191    3.3424 H         1 UNK         0.0808 
    151 H151      -48.0036  -24.5572    2.5533 H         1 UNK         0.0808 
    152 H152      -48.3782  -24.3575    5.0833 H         1 UNK         0.3098 
    153 H153      -47.4091  -23.1214    8.2485 H         1 UNK         0.0720 
    154 H154      -47.4758  -21.0153    6.8899 H         1 UNK         0.0791 
    155 H155      -48.9870  -21.2780    7.7447 H         1 UNK         0.0791 
    156 H156      -48.8807  -21.6143    6.0169 H         1 UNK         0.0791 
    157 H157      -50.0052  -23.5297    7.2633 H         1 UNK         0.3028 
@<TRIPOS>BOND
     1    1    2 1    
     2    1   82 1    
     3    1   83 1    
     4    1   84 1    
     5    2    3 2    
     6    2    4 am   BACKBONE|DICT|INTERRES
     7    4    5 1    
     8    4   85 1    
     9    5    6 1    
    10    5   80 1    
    11    5   86 1    
    12    6    7 1    
    13    6   87 1    
    14    6   88 1    
    15    7    8 1    
    16    8    9 1    
    17    8   89 1    
    18    8   90 1    
    19    9   10 ar   
    20    9   14 ar   
    21   10   11 ar   
    22   10   91 1    
    23   11   12 ar   
    24   11   58 1    
    25   12   13 ar   
    26   12   92 1    
    27   13   14 ar   
    28   13   15 1    
    29   14   93 1    
    30   15   16 1    
    31   15   94 1    
    32   15   95 1    
    33   16   17 1    
    34   17   18 1    
    35   17   96 1    
    36   17   97 1    
    37   18   19 1    
    38   18   22 1    
    39   18   98 1    
    40   19   20 am   BACKBONE|DICT|INTERRES
    41   19   21 2    
    42   20   99 1    
    43   20  100 1    
    44   22   23 am   BACKBONE|DICT|INTERRES
    45   22  101 1    
    46   23   24 2    
    47   23   25 1    
    48   25   26 1    
    49   25   27 1    
    50   25  102 1    
    51   26  103 1    
    52   26  104 1    
    53   26  105 1    
    54   27   28 am   BACKBONE|DICT|INTERRES
    55   27  106 1    
    56   28   29 2    
    57   28   30 1    
    58   30   31 1    
    59   30   32 1    
    60   30  107 1    
    61   31  108 1    
    62   31  109 1    
    63   31  110 1    
    64   32   33 am   BACKBONE|DICT|INTERRES
    65   32  111 1    
    66   33   34 2    
    67   33   35 1    
    68   35   36 1    
    69   35   37 1    
    70   35  112 1    
    71   36  113 1    
    72   36  114 1    
    73   36  115 1    
    74   37   38 am   BACKBONE|DICT|INTERRES
    75   37  116 1    
    76   38   39 2    
    77   38   40 1    
    78   40   41 1    
    79   40   42 1    
    80   40  117 1    
    81   41  118 1    
    82   41  119 1    
    83   41  120 1    
    84   42   43 am   BACKBONE|DICT|INTERRES
    85   42  121 1    
    86   43   44 2    
    87   43   45 1    
    88   45   46 1    
    89   45   47 1    
    90   45  122 1    
    91   46  123 1    
    92   46  124 1    
    93   46  125 1    
    94   47   48 am   BACKBONE|DICT|INTERRES
    95   47  126 1    
    96   48   49 2    
    97   48   50 1    
    98   50   51 1    
    99   50   52 1    
   100   50  127 1    
   101   51  128 1    
   102   51  129 1    
   103   51  130 1    
   104   52   53 am   BACKBONE|DICT|INTERRES
   105   52  131 1    
   106   53   54 2    
   107   53   55 1    
   108   55   56 1    
   109   55   59 1    
   110   55  132 1    
   111   56   57 1    
   112   56  133 1    
   113   56  134 1    
   114   57   58 1    
   115   58  135 1    
   116   58  136 1    
   117   59   60 am   BACKBONE|DICT|INTERRES
   118   59  137 1    
   119   60   61 2    
   120   60   62 1    
   121   62   63 1    
   122   62   64 1    
   123   62  138 1    
   124   63  139 1    
   125   63  140 1    
   126   63  141 1    
   127   64   65 am   BACKBONE|DICT|INTERRES
   128   64  142 1    
   129   65   66 2    
   130   65   67 1    
   131   67   68 1    
   132   67   69 1    
   133   67  143 1    
   134   68  144 1    
   135   68  145 1    
   136   68  146 1    
   137   69   70 am   BACKBONE|DICT|INTERRES
   138   69  147 1    
   139   70   71 2    
   140   70   72 1    
   141   72   73 1    
   142   72   74 1    
   143   72  148 1    
   144   73  149 1    
   145   73  150 1    
   146   73  151 1    
   147   74   75 am   BACKBONE|DICT|INTERRES
   148   74  152 1    
   149   75   76 2    
   150   75   77 1    
   151   77   78 1    
   152   77   79 1    
   153   77  153 1    
   154   78  154 1    
   155   78  155 1    
   156   78  156 1    
   157   79   80 am   BACKBONE|DICT|INTERRES
   158   79  157 1    
   159   80   81 2    
@<TRIPOS>SUBSTRUCTURE
     1 UNK         1 GROUP             0       ****    0 ROOT    
