@<TRIPOS>MOLECULE
3R207
157   159    1
SMALL
USER_CHARGES


@<TRIPOS>ATOM
      1 CA        -52.4970  -30.3816    3.9554 C.3       0 UNK        -0.1975 
      2 C         -51.7363  -29.6072    5.0218 C.2       0 UNK         0.4852 
      3 O         -51.8490  -28.3823    5.0821 O.2       0 UNK        -0.5216 
      4 N         -50.9701  -30.3147    5.8624 N.am      1 UNK        -0.4461 
      5 CA        -50.1484  -29.7398    6.9310 C.3       1 UNK         0.0864 
      6 C6        -49.7269  -30.8310    7.9495 C.3       14 UNK        -0.0898 
      7 S7        -49.2731  -30.1375    9.5750 S.3       14 UNK        -0.2598 
      8 C8        -50.8080  -30.3631   10.5328 C.3       14 UNK         0.0286 
      9 C9        -51.9877  -29.6319    9.9105 C.ar      14 UNK        -0.0844 
     10 C10       -52.0054  -28.2358    9.8577 C.ar      14 UNK        -0.0881 
     11 C11       -53.0598  -27.5611    9.2316 C.ar      14 UNK        -0.0643 
     12 C12       -54.1206  -28.2951    8.6926 C.ar      14 UNK        -0.0930 
     13 C13       -54.1441  -29.6884    8.8015 C.ar      14 UNK        -0.0827 
     14 C14       -53.0655  -30.3522    9.3910 C.ar      14 UNK        -0.1249 
     15 C15       -55.3442  -30.4831    8.3133 C.3       14 UNK         0.0141 
     16 S16       -56.4468  -30.9190    9.6990 S.3       14 UNK        -0.2313 
     17 C17       -57.3185  -29.3460   10.0121 C.3       14 UNK        -0.0915 
     18 CA        -56.6852  -28.4925   11.1440 C.3       13 UNK         0.0968 
     19 C         -57.4431  -27.1460   11.2798 C.2       13 UNK         0.5732 
     20 N         -57.0493  -26.1322   10.5215 N.am      13 UNK        -0.7310 
     21 O         -58.3997  -27.0192   12.0425 O.2       13 UNK        -0.5035 
     22 N         -56.6739  -29.2007   12.4328 N.am      13 UNK        -0.4233 
     23 C         -55.6853  -29.2793   13.3346 C.2       13 UNK         0.4989 
     24 O         -55.8934  -29.7547   14.4526 O.2       13 UNK        -0.4996 
     25 CA        -54.2675  -28.7566   12.9991 C.3       12 UNK         0.0216 
     26 CB        -54.1650  -27.2272   13.1571 C.3       12 UNK        -0.1964 
     27 N         -53.2581  -29.3573   13.8720 N.am      12 UNK        -0.4276 
     28 C         -52.7966  -30.6113   13.7832 C.2       12 UNK         0.5020 
     29 O         -53.1623  -31.4139   12.9229 O.2       12 UNK        -0.5489 
     30 CA        -51.7624  -31.0515   14.8438 C.3       11 UNK         0.0294 
     31 CB        -50.7457  -32.0705   14.2838 C.3       11 UNK        -0.2019 
     32 N         -51.0706  -29.9405   15.5194 N.am      11 UNK        -0.4493 
     33 C         -50.2640  -29.0286   14.9571 C.2       11 UNK         0.4932 
     34 O         -49.9881  -28.9858   13.7593 O.2       11 UNK        -0.5029 
     35 CA        -49.6850  -27.9622   15.8911 C.3       10 UNK         0.0280 
     36 CB        -48.1544  -27.8765   15.7610 C.3       10 UNK        -0.1976 
     37 N         -50.2625  -26.6674   15.5522 N.am      10 UNK        -0.4242 
     38 C         -51.4278  -26.1919   16.0075 C.2       10 UNK         0.5072 
     39 O         -52.1728  -26.8250   16.7582 O.2       10 UNK        -0.5224 
     40 CA        -51.8166  -24.7713   15.5427 C.3       9 UNK         0.0343 
     41 CB        -52.8522  -24.0938   16.4638 C.3       9 UNK        -0.2003 
     42 N         -50.6477  -23.9068   15.3288 N.am      9 UNK        -0.4272 
     43 C         -49.7226  -23.5315   16.2267 C.2       9 UNK         0.4988 
     44 O         -49.8092  -23.7474   17.4361 O.2       9 UNK        -0.5108 
     45 CA        -48.4534  -22.8406   15.6878 C.3       8 UNK         0.0248 
     46 CB        -47.2655  -23.8168   15.7316 C.3       8 UNK        -0.2001 
     47 N         -48.5912  -22.3292   14.3208 N.am      8 UNK        -0.4140 
     48 C         -49.2818  -21.2302   13.9872 C.2       8 UNK         0.5028 
     49 O         -49.8185  -20.4828   14.8059 O.2       8 UNK        -0.5428 
     50 CA        -49.4282  -20.9318   12.4845 C.3       7 UNK         0.0264 
     51 CB        -48.1946  -20.1827   11.9560 C.3       7 UNK        -0.1988 
     52 N         -49.6627  -22.1340   11.6767 N.am      7 UNK        -0.4454 
     53 C         -50.7377  -22.9299   11.7911 C.2       7 UNK         0.5027 
     54 O         -51.6658  -22.7142   12.5704 O.2       7 UNK        -0.5083 
     55 CA        -50.7718  -24.2064   10.9288 C.3       6 UNK         0.0844 
     56 C56       -51.2942  -23.8881    9.5048 C.3       14 UNK        -0.0967 
     57 S57       -51.5236  -25.3771    8.4806 S.3       14 UNK        -0.2604 
     58 C58       -53.0727  -26.0408    9.1707 C.3       14 UNK         0.0134 
     59 N         -49.4863  -24.9105   10.9382 N.am      6 UNK        -0.4116 
     60 C         -48.9125  -25.4351   12.0314 C.2       5 UNK         0.5034 
     61 O         -49.4277  -25.4316   13.1477 O.2       5 UNK        -0.5045 
     62 CA        -47.4936  -25.9970   11.8759 C.3       5 UNK         0.0224 
     63 CB        -47.5183  -27.4305   11.3254 C.3       5 UNK        -0.1978 
     64 N         -46.6632  -25.1411   11.0280 N.am      5 UNK        -0.4737 
     65 C         -46.2383  -23.9204   11.3830 C.2       4 UNK         0.5027 
     66 O         -46.4639  -23.4106   12.4806 O.2       4 UNK        -0.5211 
     67 CA        -45.4662  -23.1212   10.3200 C.3       4 UNK         0.0297 
     68 CB        -43.9810  -23.5155   10.3206 C.3       4 UNK        -0.1993 
     69 N         -46.0201  -23.2854    8.9728 N.am      4 UNK        -0.4486 
     70 C         -47.2293  -22.8458    8.5974 C.2       3 UNK         0.4961 
     71 O         -47.9972  -22.2331    9.3387 O.2       3 UNK        -0.5105 
     72 CA        -47.6794  -23.1865    7.1661 C.3       3 UNK         0.0299 
     73 CB        -47.1015  -22.1744    6.1642 C.3       3 UNK        -0.1972 
     74 N         -47.3603  -24.5531    6.7300 N.am      3 UNK        -0.4305 
     75 C         -47.7297  -25.6681    7.3747 C.2       2 UNK         0.5006 
     76 O         -48.2624  -25.6764    8.4854 O.2       2 UNK        -0.5106 
     77 CA        -47.4430  -27.0042    6.6880 C.3       2 UNK         0.0296 
     78 CB        -46.0907  -27.5785    7.1460 C.3       2 UNK        -0.2002 
     79 N         -48.5247  -27.9121    7.0528 N.am      2 UNK        -0.4032 
     80 C         -48.9325  -28.9783    6.3582 C.2       1 UNK         0.5000 
     81 O         -48.3856  -29.3755    5.3244 O.2       1 UNK        -0.5238 
     82 H82       -52.1993  -30.0443    2.9629 H         1 UNK         0.0889 
     83 H83       -53.5685  -30.2158    4.0652 H         1 UNK         0.0889 
     84 H84       -52.3120  -31.4538    4.0189 H         1 UNK         0.0889 
     85 H85       -50.8901  -31.3133    5.7379 H         1 UNK         0.3028 
     86 H86       -50.7817  -29.0123    7.4427 H         1 UNK         0.0864 
     87 H87       -48.8913  -31.4226    7.5703 H         1 UNK         0.0720 
     88 H88       -50.5421  -31.5397    8.1047 H         1 UNK         0.0720 
     89 H89       -51.0174  -31.4288   10.6367 H         1 UNK         0.0814 
     90 H90       -50.6534  -29.9851   11.5414 H         1 UNK         0.0814 
     91 H91       -51.1822  -27.6757   10.2809 H         1 UNK         0.1469 
     92 H92       -54.9472  -27.7822    8.2211 H         1 UNK         0.1381 
     93 H93       -53.0765  -31.4311    9.4626 H         1 UNK         0.1206 
     94 H94       -55.8969  -29.9333    7.5501 H         1 UNK         0.0813 
     95 H95       -54.9999  -31.4015    7.8354 H         1 UNK         0.0813 
     96 H96       -57.3576  -28.7796    9.0798 H         1 UNK         0.0638 
     97 H97       -58.3544  -29.5882   10.2567 H         1 UNK         0.0638 
     98 H98       -55.6702  -28.2534   10.8434 H         1 UNK         0.0568 
     99 H99       -57.5423  -25.2557   10.5910 H         1 UNK         0.3450 
    100 H100      -56.2850  -26.2235    9.8734 H         1 UNK         0.3450 
    101 H101      -57.5830  -29.5338   12.7167 H         1 UNK         0.2987 
    102 H102      -54.0124  -29.0390   11.9769 H         1 UNK         0.0766 
    103 H103      -54.8350  -26.7010   12.4798 H         1 UNK         0.0798 
    104 H104      -53.1563  -26.8771   12.9346 H         1 UNK         0.0798 
    105 H105      -54.4139  -26.9098   14.1707 H         1 UNK         0.0798 
    106 H106      -52.9310  -28.7926   14.6418 H         1 UNK         0.3198 
    107 H107      -52.3388  -31.5600   15.6183 H         1 UNK         0.0843 
    108 H108      -50.1718  -31.6567   13.4543 H         1 UNK         0.0831 
    109 H109      -51.2492  -32.9643   13.9133 H         1 UNK         0.0831 
    110 H110      -50.0421  -32.3929   15.0511 H         1 UNK         0.0831 
    111 H111      -51.2524  -29.8579   16.5113 H         1 UNK         0.3133 
    112 H112      -49.9248  -28.2089   16.9277 H         1 UNK         0.0566 
    113 H113      -47.8477  -27.6133   14.7478 H         1 UNK         0.0814 
    114 H114      -47.6888  -28.8320   16.0050 H         1 UNK         0.0814 
    115 H115      -47.7411  -27.1298   16.4393 H         1 UNK         0.0814 
    116 H116      -49.7954  -26.1423   14.8154 H         1 UNK         0.3091 
    117 H117      -52.2786  -24.8930   14.5620 H         1 UNK         0.0702 
    118 H118      -53.1086  -23.0973   16.1041 H         1 UNK         0.0785 
    119 H119      -52.4854  -23.9988   17.4862 H         1 UNK         0.0785 
    120 H120      -53.7764  -24.6715   16.5030 H         1 UNK         0.0785 
    121 H121      -50.4574  -23.6912   14.3584 H         1 UNK         0.2998 
    122 H122      -48.2309  -22.0011   16.3498 H         1 UNK         0.0697 
    123 H123      -46.3413  -23.3317   15.4168 H         1 UNK         0.0825 
    124 H124      -47.4283  -24.6774   15.0816 H         1 UNK         0.0825 
    125 H125      -47.1050  -24.1963   16.7416 H         1 UNK         0.0825 
    126 H126      -48.1139  -22.8471   13.5889 H         1 UNK         0.3029 
    127 H127      -50.2972  -20.2812   12.3640 H         1 UNK         0.0897 
    128 H128      -48.0138  -19.2729   12.5301 H         1 UNK         0.0792 
    129 H129      -48.3262  -19.8879   10.9147 H         1 UNK         0.0792 
    130 H130      -47.2935  -20.7934   12.0185 H         1 UNK         0.0792 
    131 H131      -48.9700  -22.3428   10.9602 H         1 UNK         0.3086 
    132 H132      -51.4872  -24.8773   11.4076 H         1 UNK         0.0583 
    133 H133      -52.2452  -23.3531    9.5496 H         1 UNK         0.1020 
    134 H134      -50.5999  -23.2261    8.9841 H         1 UNK         0.1020 
    135 H135      -53.2436  -25.6618   10.1780 H         1 UNK         0.0694 
    136 H136      -53.9020  -25.6790    8.5612 H         1 UNK         0.0694 
    137 H137      -49.0136  -25.0138   10.0425 H         1 UNK         0.2989 
    138 H138      -47.0418  -26.0259   12.8699 H         1 UNK         0.1055 
    139 H139      -48.1124  -28.0824   11.9675 H         1 UNK         0.0806 
    140 H140      -46.5158  -27.8548   11.2732 H         1 UNK         0.0806 
    141 H141      -47.9549  -27.4787   10.3286 H         1 UNK         0.0806 
    142 H142      -46.5110  -25.4506   10.0785 H         1 UNK         0.3061 
    143 H143      -45.5378  -22.0642   10.5858 H         1 UNK         0.0734 
    144 H144      -43.8372  -24.5594   10.0391 H         1 UNK         0.0832 
    145 H145      -43.4056  -22.8980    9.6306 H         1 UNK         0.0832 
    146 H146      -43.5445  -23.3828   11.3117 H         1 UNK         0.0832 
    147 H147      -45.4598  -23.7859    8.2983 H         1 UNK         0.3156 
    148 H148      -48.7673  -23.0953    7.1441 H         1 UNK         0.0589 
    149 H149      -47.5140  -22.3230    5.1661 H         1 UNK         0.0808 
    150 H150      -46.0156  -22.2475    6.0940 H         1 UNK         0.0808 
    151 H151      -47.3406  -21.1519    6.4608 H         1 UNK         0.0808 
    152 H152      -46.9056  -24.6433    5.8325 H         1 UNK         0.3098 
    153 H153      -47.4407  -26.8580    5.6058 H         1 UNK         0.0720 
    154 H154      -45.2724  -26.9005    6.9007 H         1 UNK         0.0791 
    155 H155      -45.8791  -28.5305    6.6589 H         1 UNK         0.0791 
    156 H156      -46.0692  -27.7442    8.2242 H         1 UNK         0.0791 
    157 H157      -49.0309  -27.6278    7.8836 H         1 UNK         0.3028 
@<TRIPOS>BOND
     1    1    2 1    
     2    1   82 1    
     3    1   83 1    
     4    1   84 1    
     5    2    3 2    
     6    2    4 am   BACKBONE|DICT|INTERRES
     7    4    5 1    
     8    4   85 1    
     9    5    6 1    
    10    5   80 1    
    11    5   86 1    
    12    6    7 1    
    13    6   87 1    
    14    6   88 1    
    15    7    8 1    
    16    8    9 1    
    17    8   89 1    
    18    8   90 1    
    19    9   10 ar   
    20    9   14 ar   
    21   10   11 ar   
    22   10   91 1    
    23   11   12 ar   
    24   11   58 1    
    25   12   13 ar   
    26   12   92 1    
    27   13   14 ar   
    28   13   15 1    
    29   14   93 1    
    30   15   16 1    
    31   15   94 1    
    32   15   95 1    
    33   16   17 1    
    34   17   18 1    
    35   17   96 1    
    36   17   97 1    
    37   18   19 1    
    38   18   22 1    
    39   18   98 1    
    40   19   20 am   BACKBONE|DICT|INTERRES
    41   19   21 2    
    42   20   99 1    
    43   20  100 1    
    44   22   23 am   BACKBONE|DICT|INTERRES
    45   22  101 1    
    46   23   24 2    
    47   23   25 1    
    48   25   26 1    
    49   25   27 1    
    50   25  102 1    
    51   26  103 1    
    52   26  104 1    
    53   26  105 1    
    54   27   28 am   BACKBONE|DICT|INTERRES
    55   27  106 1    
    56   28   29 2    
    57   28   30 1    
    58   30   31 1    
    59   30   32 1    
    60   30  107 1    
    61   31  108 1    
    62   31  109 1    
    63   31  110 1    
    64   32   33 am   BACKBONE|DICT|INTERRES
    65   32  111 1    
    66   33   34 2    
    67   33   35 1    
    68   35   36 1    
    69   35   37 1    
    70   35  112 1    
    71   36  113 1    
    72   36  114 1    
    73   36  115 1    
    74   37   38 am   BACKBONE|DICT|INTERRES
    75   37  116 1    
    76   38   39 2    
    77   38   40 1    
    78   40   41 1    
    79   40   42 1    
    80   40  117 1    
    81   41  118 1    
    82   41  119 1    
    83   41  120 1    
    84   42   43 am   BACKBONE|DICT|INTERRES
    85   42  121 1    
    86   43   44 2    
    87   43   45 1    
    88   45   46 1    
    89   45   47 1    
    90   45  122 1    
    91   46  123 1    
    92   46  124 1    
    93   46  125 1    
    94   47   48 am   BACKBONE|DICT|INTERRES
    95   47  126 1    
    96   48   49 2    
    97   48   50 1    
    98   50   51 1    
    99   50   52 1    
   100   50  127 1    
   101   51  128 1    
   102   51  129 1    
   103   51  130 1    
   104   52   53 am   BACKBONE|DICT|INTERRES
   105   52  131 1    
   106   53   54 2    
   107   53   55 1    
   108   55   56 1    
   109   55   59 1    
   110   55  132 1    
   111   56   57 1    
   112   56  133 1    
   113   56  134 1    
   114   57   58 1    
   115   58  135 1    
   116   58  136 1    
   117   59   60 am   BACKBONE|DICT|INTERRES
   118   59  137 1    
   119   60   61 2    
   120   60   62 1    
   121   62   63 1    
   122   62   64 1    
   123   62  138 1    
   124   63  139 1    
   125   63  140 1    
   126   63  141 1    
   127   64   65 am   BACKBONE|DICT|INTERRES
   128   64  142 1    
   129   65   66 2    
   130   65   67 1    
   131   67   68 1    
   132   67   69 1    
   133   67  143 1    
   134   68  144 1    
   135   68  145 1    
   136   68  146 1    
   137   69   70 am   BACKBONE|DICT|INTERRES
   138   69  147 1    
   139   70   71 2    
   140   70   72 1    
   141   72   73 1    
   142   72   74 1    
   143   72  148 1    
   144   73  149 1    
   145   73  150 1    
   146   73  151 1    
   147   74   75 am   BACKBONE|DICT|INTERRES
   148   74  152 1    
   149   75   76 2    
   150   75   77 1    
   151   77   78 1    
   152   77   79 1    
   153   77  153 1    
   154   78  154 1    
   155   78  155 1    
   156   78  156 1    
   157   79   80 am   BACKBONE|DICT|INTERRES
   158   79  157 1    
   159   80   81 2    
@<TRIPOS>SUBSTRUCTURE
     1 UNK         1 GROUP             0       ****    0 ROOT    
