@<TRIPOS>MOLECULE
3R207
157   159    1
SMALL
USER_CHARGES


@<TRIPOS>ATOM
      1 CA        -52.4723  -27.3284    3.8241 C.3       0 UNK        -0.1975 
      2 C         -51.9391  -28.6512    3.2776 C.2       0 UNK         0.4852 
      3 O         -52.3936  -29.0947    2.2241 O.2       0 UNK        -0.5216 
      4 N         -50.9984  -29.3243    3.9544 N.am      1 UNK        -0.4461 
      5 CA        -50.3110  -28.8939    5.1783 C.3       1 UNK         0.0864 
      6 C6        -49.6722  -30.0881    5.9338 C.3       14 UNK        -0.0898 
      7 S7        -50.7921  -31.4888    6.2866 S.3       14 UNK        -0.2598 
      8 C8        -52.3066  -30.6971    6.9310 C.3       14 UNK         0.0286 
      9 C9        -52.0782  -29.8734    8.1941 C.ar      14 UNK        -0.0844 
     10 C10       -52.5727  -28.5671    8.2803 C.ar      14 UNK        -0.0881 
     11 C11       -52.4219  -27.8227    9.4546 C.ar      14 UNK        -0.0643 
     12 C12       -51.7731  -28.3986   10.5507 C.ar      14 UNK        -0.0930 
     13 C13       -51.2697  -29.7002   10.4771 C.ar      14 UNK        -0.0827 
     14 C14       -51.4218  -30.4303    9.2961 C.ar      14 UNK        -0.1249 
     15 C15       -50.5857  -30.3284   11.6832 C.3       14 UNK         0.0141 
     16 S16       -51.6222  -31.6025   12.4770 S.3       14 UNK        -0.2313 
     17 C17       -53.1277  -30.6601   12.8946 C.3       14 UNK        -0.0915 
     18 CA        -54.2432  -30.8088   11.8117 C.3       13 UNK         0.0968 
     19 C         -55.2147  -32.0033   12.0631 C.2       13 UNK         0.5732 
     20 N         -56.4791  -31.9154   11.6665 N.am      13 UNK        -0.7310 
     21 O         -54.8188  -33.0380   12.5945 O.2       13 UNK        -0.5035 
     22 N         -54.8910  -29.5213   11.5093 N.am      13 UNK        -0.4233 
     23 C         -55.6158  -28.7964   12.3688 C.2       13 UNK         0.4989 
     24 O         -55.9128  -29.1636   13.5084 O.2       13 UNK        -0.4996 
     25 CA        -56.1130  -27.4328   11.8556 C.3       12 UNK         0.0216 
     26 CB        -57.5119  -27.5659   11.2321 C.3       12 UNK        -0.1964 
     27 N         -56.1562  -26.4466   12.9376 N.am      12 UNK        -0.4276 
     28 C         -55.0718  -25.9704   13.5623 C.2       12 UNK         0.5020 
     29 O         -53.9149  -26.1790   13.1832 O.2       12 UNK        -0.5489 
     30 CA        -55.3209  -25.1512   14.8376 C.3       11 UNK         0.0294 
     31 CB        -56.0244  -26.0159   15.9086 C.3       11 UNK        -0.2019 
     32 N         -54.0226  -24.6950   15.3225 N.am      11 UNK        -0.4493 
     33 C         -53.7644  -23.9012   16.3677 C.2       11 UNK         0.4932 
     34 O         -54.6361  -23.3350   17.0295 O.2       11 UNK        -0.5029 
     35 CA        -52.2769  -23.7124   16.7313 C.3       10 UNK         0.0280 
     36 CB        -52.0564  -23.3382   18.2120 C.3       10 UNK        -0.1976 
     37 N         -51.4480  -24.8608   16.3432 N.am      10 UNK        -0.4242 
     38 C         -51.5172  -26.1223   16.7967 C.2       10 UNK         0.5072 
     39 O         -52.2627  -26.4948   17.7035 O.2       10 UNK        -0.5224 
     40 CA        -50.6117  -27.1564   16.1032 C.3       9 UNK         0.0343 
     41 CB        -51.3593  -27.8321   14.9427 C.3       9 UNK        -0.2003 
     42 N         -49.3575  -26.5861   15.6044 N.am      9 UNK        -0.4272 
     43 C         -48.3524  -26.1741   16.3907 C.2       9 UNK         0.4988 
     44 O         -48.3440  -26.2982   17.6161 O.2       9 UNK        -0.5108 
     45 CA        -47.1606  -25.4935   15.6974 C.3       8 UNK         0.0248 
     46 CB        -46.2175  -26.5406   15.0834 C.3       8 UNK        -0.2001 
     47 N         -47.5719  -24.5262   14.6752 N.am      8 UNK        -0.4140 
     48 C         -48.2423  -23.3919   14.9308 C.2       8 UNK         0.5028 
     49 O         -48.5440  -23.0132   16.0627 O.2       8 UNK        -0.5428 
     50 CA        -48.6718  -22.5404   13.7243 C.3       7 UNK         0.0264 
     51 CB        -47.5104  -21.6564   13.2431 C.3       7 UNK        -0.1988 
     52 N         -49.1854  -23.3413   12.6100 N.am      7 UNK        -0.4454 
     53 C         -50.3041  -24.0801   12.6587 C.2       7 UNK         0.5027 
     54 O         -51.0492  -24.1154   13.6370 O.2       7 UNK        -0.5083 
     55 CA        -50.6250  -24.9696   11.4417 C.3       6 UNK         0.0844 
     56 C56       -51.4030  -24.1896   10.3551 C.3       14 UNK        -0.0967 
     57 S57       -51.8199  -25.1835    8.8784 S.3       14 UNK        -0.2604 
     58 C58       -52.9884  -26.4114    9.5406 C.3       14 UNK         0.0134 
     59 N         -49.4306  -25.6420   10.9260 N.am      6 UNK        -0.4116 
     60 C         -48.7124  -26.5416   11.6126 C.2       5 UNK         0.5034 
     61 O         -49.0013  -26.9403   12.7410 O.2       5 UNK        -0.5045 
     62 CA        -47.4197  -27.0350   10.9496 C.3       5 UNK         0.0224 
     63 CB        -47.7127  -28.1395    9.9200 C.3       5 UNK        -0.1978 
     64 N         -46.6874  -25.9330   10.3194 N.am      5 UNK        -0.4737 
     65 C         -46.0618  -24.9629   11.0025 C.2       4 UNK         0.5027 
     66 O         -46.0064  -24.9224   12.2305 O.2       4 UNK        -0.5211 
     67 CA        -45.4214  -23.8279   10.1853 C.3       4 UNK         0.0297 
     68 CB        -44.0112  -24.2268    9.7234 C.3       4 UNK        -0.1993 
     69 N         -46.2245  -23.4329    9.0265 N.am      4 UNK        -0.4486 
     70 C         -47.4433  -22.8788    9.0983 C.2       3 UNK         0.4961 
     71 O         -48.0078  -22.5954   10.1529 O.2       3 UNK        -0.5105 
     72 CA        -48.1836  -22.6546    7.7692 C.3       3 UNK         0.0299 
     73 CB        -47.8196  -21.2859    7.1731 C.3       3 UNK        -0.1972 
     74 N         -47.9462  -23.7077    6.7747 N.am      3 UNK        -0.4305 
     75 C         -48.2083  -25.0069    6.9685 C.2       2 UNK         0.5006 
     76 O         -48.6221  -25.4779    8.0304 O.2       2 UNK        -0.5106 
     77 CA        -47.9142  -25.9518    5.8050 C.3       2 UNK         0.0296 
     78 CB        -46.4754  -26.4939    5.8952 C.3       2 UNK        -0.2002 
     79 N         -48.8731  -27.0470    5.8822 N.am      2 UNK        -0.4032 
     80 C         -49.2389  -27.8309    4.8646 C.2       1 UNK         0.5000 
     81 O         -48.7606  -27.7471    3.7295 O.2       1 UNK        -0.5238 
     82 H82       -53.2561  -26.9377    3.1753 H         1 UNK         0.0889 
     83 H83       -51.6846  -26.5778    3.8751 H         1 UNK         0.0889 
     84 H84       -52.9036  -27.4591    4.8159 H         1 UNK         0.0889 
     85 H85       -50.6588  -30.1917    3.5649 H         1 UNK         0.3028 
     86 H86       -51.0386  -28.4264    5.8413 H         1 UNK         0.0864 
     87 H87       -49.2610  -29.7540    6.8888 H         1 UNK         0.0720 
     88 H88       -48.8281  -30.4880    5.3680 H         1 UNK         0.0720 
     89 H89       -53.0290  -31.4809    7.1622 H         1 UNK         0.0814 
     90 H90       -52.7632  -30.0962    6.1438 H         1 UNK         0.0814 
     91 H91       -53.0907  -28.1284    7.4386 H         1 UNK         0.1469 
     92 H92       -51.6757  -27.8466   11.4734 H         1 UNK         0.1381 
     93 H93       -51.0489  -31.4442    9.2443 H         1 UNK         0.1206 
     94 H94       -50.3174  -29.5666   12.4159 H         1 UNK         0.0813 
     95 H95       -49.6485  -30.7877   11.3668 H         1 UNK         0.0813 
     96 H96       -53.4840  -30.9730   13.8775 H         1 UNK         0.0638 
     97 H97       -52.8401  -29.6151   13.0176 H         1 UNK         0.0638 
     98 H98       -53.7629  -31.0709   10.8694 H         1 UNK         0.0568 
     99 H99       -56.8198  -31.0779   11.2238 H         1 UNK         0.3450 
    100 H100      -57.0994  -32.6940   11.8228 H         1 UNK         0.3450 
    101 H101      -54.7125  -29.1575   10.5848 H         1 UNK         0.2987 
    102 H102      -55.4247  -27.0688   11.0914 H         1 UNK         0.0766 
    103 H103      -57.8675  -26.6102   10.8465 H         1 UNK         0.0798 
    104 H104      -58.2436  -27.9305   11.9545 H         1 UNK         0.0798 
    105 H105      -57.5029  -28.2664   10.3960 H         1 UNK         0.0798 
    106 H106      -57.0654  -26.2503   13.3300 H         1 UNK         0.3198 
    107 H107      -55.9331  -24.2829   14.5871 H         1 UNK         0.0843 
    108 H108      -56.2194  -25.4542   16.8216 H         1 UNK         0.0831 
    109 H109      -55.4218  -26.8853   16.1759 H         1 UNK         0.0831 
    110 H110      -56.9891  -26.3845   15.5590 H         1 UNK         0.0831 
    111 H111      -53.2491  -25.0696   14.7809 H         1 UNK         0.3133 
    112 H112      -51.9234  -22.8763   16.1264 H         1 UNK         0.0566 
    113 H113      -50.9962  -23.2134   18.4334 H         1 UNK         0.0814 
    114 H114      -52.5506  -22.3969   18.4549 H         1 UNK         0.0814 
    115 H115      -52.4546  -24.0967   18.8863 H         1 UNK         0.0814 
    116 H116      -50.8604  -24.6902   15.5330 H         1 UNK         0.3091 
    117 H117      -50.3679  -27.9239   16.8408 H         1 UNK         0.0702 
    118 H118      -50.7884  -28.6709   14.5466 H         1 UNK         0.0785 
    119 H119      -51.5457  -27.1368   14.1233 H         1 UNK         0.0785 
    120 H120      -52.3257  -28.2216   15.2665 H         1 UNK         0.0785 
    121 H121      -49.2546  -26.5151   14.5947 H         1 UNK         0.2998 
    122 H122      -46.6034  -24.9471   16.4612 H         1 UNK         0.0697 
    123 H123      -45.3213  -26.0743   14.6738 H         1 UNK         0.0825 
    124 H124      -45.8925  -27.2621   15.8341 H         1 UNK         0.0825 
    125 H125      -46.6998  -27.0990   14.2808 H         1 UNK         0.0825 
    126 H126      -47.2926  -24.7277   13.7190 H         1 UNK         0.3029 
    127 H127      -49.4794  -21.8848   14.0575 H         1 UNK         0.0897 
    128 H128      -47.8287  -20.9827   12.4474 H         1 UNK         0.0792 
    129 H129      -47.1262  -21.0389   14.0561 H         1 UNK         0.0792 
    130 H130      -46.6796  -22.2522   12.8642 H         1 UNK         0.0792 
    131 H131      -48.6610  -23.2958   11.7380 H         1 UNK         0.3086 
    132 H132      -51.2888  -25.7448   11.8214 H         1 UNK         0.0583 
    133 H133      -52.3290  -23.7849   10.7688 H         1 UNK         0.1020 
    134 H134      -50.8211  -23.3294   10.0187 H         1 UNK         0.1020 
    135 H135      -53.2511  -26.1682   10.5701 H         1 UNK         0.0694 
    136 H136      -53.9175  -26.3512    8.9721 H         1 UNK         0.0694 
    137 H137      -49.1491  -25.4122    9.9777 H         1 UNK         0.2989 
    138 H138      -46.7857  -27.4594   11.7313 H         1 UNK         0.1055 
    139 H139      -48.1579  -29.0083   10.4050 H         1 UNK         0.0806 
    140 H140      -46.8015  -28.4773    9.4263 H         1 UNK         0.0806 
    141 H141      -48.4116  -27.8123    9.1504 H         1 UNK         0.0806 
    142 H142      -46.7711  -25.8467    9.3158 H         1 UNK         0.3061 
    143 H143      -45.3320  -22.9589   10.8407 H         1 UNK         0.0734 
    144 H144      -43.5105  -23.4018    9.2165 H         1 UNK         0.0832 
    145 H145      -43.3885  -24.5068   10.5745 H         1 UNK         0.0832 
    146 H146      -44.0324  -25.0784    9.0421 H         1 UNK         0.0832 
    147 H147      -45.8426  -23.6291    8.1131 H         1 UNK         0.3156 
    148 H148      -49.2530  -22.6552    7.9905 H         1 UNK         0.0589 
    149 H149      -46.7668  -21.2321    6.8929 H         1 UNK         0.0808 
    150 H150      -48.4157  -21.0668    6.2871 H         1 UNK         0.0808 
    151 H151      -48.0065  -20.4863    7.8916 H         1 UNK         0.0808 
    152 H152      -47.5928  -23.4107    5.8761 H         1 UNK         0.3098 
    153 H153      -48.0522  -25.4130    4.8651 H         1 UNK         0.0720 
    154 H154      -45.7464  -25.6835    5.8618 H         1 UNK         0.0791 
    155 H155      -46.2503  -27.1630    5.0645 H         1 UNK         0.0791 
    156 H156      -46.3108  -27.0464    6.8215 H         1 UNK         0.0791 
    157 H157      -49.3178  -27.1325    6.7891 H         1 UNK         0.3028 
@<TRIPOS>BOND
     1    1    2 1    
     2    1   82 1    
     3    1   83 1    
     4    1   84 1    
     5    2    3 2    
     6    2    4 am   BACKBONE|DICT|INTERRES
     7    4    5 1    
     8    4   85 1    
     9    5    6 1    
    10    5   80 1    
    11    5   86 1    
    12    6    7 1    
    13    6   87 1    
    14    6   88 1    
    15    7    8 1    
    16    8    9 1    
    17    8   89 1    
    18    8   90 1    
    19    9   10 ar   
    20    9   14 ar   
    21   10   11 ar   
    22   10   91 1    
    23   11   12 ar   
    24   11   58 1    
    25   12   13 ar   
    26   12   92 1    
    27   13   14 ar   
    28   13   15 1    
    29   14   93 1    
    30   15   16 1    
    31   15   94 1    
    32   15   95 1    
    33   16   17 1    
    34   17   18 1    
    35   17   96 1    
    36   17   97 1    
    37   18   19 1    
    38   18   22 1    
    39   18   98 1    
    40   19   20 am   BACKBONE|DICT|INTERRES
    41   19   21 2    
    42   20   99 1    
    43   20  100 1    
    44   22   23 am   BACKBONE|DICT|INTERRES
    45   22  101 1    
    46   23   24 2    
    47   23   25 1    
    48   25   26 1    
    49   25   27 1    
    50   25  102 1    
    51   26  103 1    
    52   26  104 1    
    53   26  105 1    
    54   27   28 am   BACKBONE|DICT|INTERRES
    55   27  106 1    
    56   28   29 2    
    57   28   30 1    
    58   30   31 1    
    59   30   32 1    
    60   30  107 1    
    61   31  108 1    
    62   31  109 1    
    63   31  110 1    
    64   32   33 am   BACKBONE|DICT|INTERRES
    65   32  111 1    
    66   33   34 2    
    67   33   35 1    
    68   35   36 1    
    69   35   37 1    
    70   35  112 1    
    71   36  113 1    
    72   36  114 1    
    73   36  115 1    
    74   37   38 am   BACKBONE|DICT|INTERRES
    75   37  116 1    
    76   38   39 2    
    77   38   40 1    
    78   40   41 1    
    79   40   42 1    
    80   40  117 1    
    81   41  118 1    
    82   41  119 1    
    83   41  120 1    
    84   42   43 am   BACKBONE|DICT|INTERRES
    85   42  121 1    
    86   43   44 2    
    87   43   45 1    
    88   45   46 1    
    89   45   47 1    
    90   45  122 1    
    91   46  123 1    
    92   46  124 1    
    93   46  125 1    
    94   47   48 am   BACKBONE|DICT|INTERRES
    95   47  126 1    
    96   48   49 2    
    97   48   50 1    
    98   50   51 1    
    99   50   52 1    
   100   50  127 1    
   101   51  128 1    
   102   51  129 1    
   103   51  130 1    
   104   52   53 am   BACKBONE|DICT|INTERRES
   105   52  131 1    
   106   53   54 2    
   107   53   55 1    
   108   55   56 1    
   109   55   59 1    
   110   55  132 1    
   111   56   57 1    
   112   56  133 1    
   113   56  134 1    
   114   57   58 1    
   115   58  135 1    
   116   58  136 1    
   117   59   60 am   BACKBONE|DICT|INTERRES
   118   59  137 1    
   119   60   61 2    
   120   60   62 1    
   121   62   63 1    
   122   62   64 1    
   123   62  138 1    
   124   63  139 1    
   125   63  140 1    
   126   63  141 1    
   127   64   65 am   BACKBONE|DICT|INTERRES
   128   64  142 1    
   129   65   66 2    
   130   65   67 1    
   131   67   68 1    
   132   67   69 1    
   133   67  143 1    
   134   68  144 1    
   135   68  145 1    
   136   68  146 1    
   137   69   70 am   BACKBONE|DICT|INTERRES
   138   69  147 1    
   139   70   71 2    
   140   70   72 1    
   141   72   73 1    
   142   72   74 1    
   143   72  148 1    
   144   73  149 1    
   145   73  150 1    
   146   73  151 1    
   147   74   75 am   BACKBONE|DICT|INTERRES
   148   74  152 1    
   149   75   76 2    
   150   75   77 1    
   151   77   78 1    
   152   77   79 1    
   153   77  153 1    
   154   78  154 1    
   155   78  155 1    
   156   78  156 1    
   157   79   80 am   BACKBONE|DICT|INTERRES
   158   79  157 1    
   159   80   81 2    
@<TRIPOS>SUBSTRUCTURE
     1 UNK         1 GROUP             0       ****    0 ROOT    
