@<TRIPOS>MOLECULE
3R207
157   159    1
SMALL
USER_CHARGES


@<TRIPOS>ATOM
      1 CA        -46.0721  -29.7359    0.7577 C.3       0 UNK        -0.1975 
      2 C         -46.8205  -29.0990    1.9196 C.2       0 UNK         0.4852 
      3 O         -46.4524  -28.0088    2.3602 O.2       0 UNK        -0.5216 
      4 N         -47.8727  -29.7653    2.4128 N.am      1 UNK        -0.4461 
      5 CA        -48.6624  -29.3366    3.5705 C.3       1 UNK         0.0864 
      6 C6        -50.0346  -30.0613    3.6030 C.3       14 UNK        -0.0898 
      7 S7        -51.2116  -29.3450    4.8067 S.3       14 UNK        -0.2598 
      8 C8        -51.4480  -30.7542    5.9402 C.3       14 UNK         0.0286 
      9 C9        -52.1519  -30.3544    7.2321 C.ar      14 UNK        -0.0844 
     10 C10       -51.5396  -30.5811    8.4685 C.ar      14 UNK        -0.0881 
     11 C11       -52.1851  -30.2425    9.6615 C.ar      14 UNK        -0.0643 
     12 C12       -53.4557  -29.6590    9.6146 C.ar      14 UNK        -0.0930 
     13 C13       -54.0923  -29.4539    8.3858 C.ar      14 UNK        -0.0827 
     14 C14       -53.4364  -29.8043    7.2012 C.ar      14 UNK        -0.1249 
     15 C15       -55.5108  -28.9086    8.3267 C.3       14 UNK         0.0141 
     16 S16       -55.5412  -27.1383    7.9025 S.3       14 UNK        -0.2313 
     17 C17       -56.0252  -26.3377    9.4709 C.3       14 UNK        -0.0915 
     18 CA        -54.9249  -25.4265   10.0868 C.3       13 UNK         0.0968 
     19 C         -54.7949  -24.0427    9.3764 C.2       13 UNK         0.5732 
     20 N         -54.7221  -22.9252   10.0914 N.am      13 UNK        -0.7310 
     21 O         -54.7541  -23.9651    8.1527 O.2       13 UNK        -0.5035 
     22 N         -55.1191  -25.2977   11.5388 N.am      13 UNK        -0.4233 
     23 C         -54.6356  -26.1268   12.4684 C.2       13 UNK         0.4989 
     24 O         -53.9527  -27.1196   12.2177 O.2       13 UNK        -0.4996 
     25 CA        -54.9856  -25.7516   13.9194 C.3       12 UNK         0.0216 
     26 CB        -56.4926  -25.9213   14.2100 C.3       12 UNK        -0.1964 
     27 N         -54.1564  -26.4384   14.9183 N.am      12 UNK        -0.4276 
     28 C         -54.2059  -27.7103   15.3475 C.2       12 UNK         0.5020 
     29 O         -55.0213  -28.5484   14.9604 O.2       12 UNK        -0.5489 
     30 CA        -53.1775  -28.1174   16.4238 C.3       11 UNK         0.0294 
     31 CB        -52.1814  -29.1528   15.8734 C.3       11 UNK        -0.2019 
     32 N         -52.4310  -26.9648   16.9382 N.am      11 UNK        -0.4493 
     33 C         -52.8069  -26.1974   17.9704 C.2       11 UNK         0.4932 
     34 O         -53.7739  -26.4540   18.6890 O.2       11 UNK        -0.5029 
     35 CA        -52.0049  -24.8998   18.2043 C.3       10 UNK         0.0280 
     36 CB        -52.0332  -24.4290   19.6744 C.3       10 UNK        -0.1976 
     37 N         -50.6348  -24.9453   17.6774 N.am      10 UNK        -0.4242 
     38 C         -49.6180  -25.7088   18.1093 C.2       10 UNK         0.5072 
     39 O         -49.7008  -26.4727   19.0723 O.2       10 UNK        -0.5224 
     40 CA        -48.2828  -25.6419   17.3387 C.3       9 UNK         0.0343 
     41 CB        -47.9358  -27.0200   16.7485 C.3       9 UNK        -0.2003 
     42 N         -48.2610  -24.6513   16.2589 N.am      9 UNK        -0.4272 
     43 C         -48.1312  -23.3274   16.4189 C.2       9 UNK         0.4988 
     44 O         -47.9551  -22.7840   17.5096 O.2       9 UNK        -0.5108 
     45 CA        -48.2595  -22.4581   15.1526 C.3       8 UNK         0.0248 
     46 CB        -46.9020  -22.3270   14.4444 C.3       8 UNK        -0.2001 
     47 N         -49.2690  -22.9463   14.2039 N.am      8 UNK        -0.4140 
     48 C         -50.5763  -23.0674   14.4828 C.2       8 UNK         0.5028 
     49 O         -51.0777  -22.7649   15.5658 O.2       8 UNK        -0.5428 
     50 CA        -51.4702  -23.6926   13.4000 C.3       7 UNK         0.0264 
     51 CB        -51.7517  -22.6935   12.2683 C.3       7 UNK        -0.1988 
     52 N         -50.9102  -24.9278   12.8486 N.am      7 UNK        -0.4454 
     53 C         -50.6404  -26.0291   13.5649 C.2       7 UNK         0.5027 
     54 O         -50.9011  -26.1379   14.7630 O.2       7 UNK        -0.5083 
     55 CA        -49.9023  -27.1771   12.8482 C.3       6 UNK         0.0844 
     56 C56       -50.8879  -28.0487   12.0376 C.3       14 UNK        -0.0967 
     57 S57       -50.0852  -29.5262   11.3410 S.3       14 UNK        -0.2604 
     58 C58       -51.5287  -30.5773   10.9941 C.3       14 UNK         0.0134 
     59 N         -48.7825  -26.6763   12.0445 N.am      6 UNK        -0.4116 
     60 C         -47.7303  -26.0054   12.5361 C.2       5 UNK         0.5034 
     61 O         -47.5413  -25.8067   13.7345 O.2       5 UNK        -0.5045 
     62 CA        -46.7568  -25.3938   11.5199 C.3       5 UNK         0.0224 
     63 CB        -45.6891  -26.4129   11.0906 C.3       5 UNK        -0.1978 
     64 N         -47.4690  -24.8789   10.3496 N.am      5 UNK        -0.4737 
     65 C         -48.2110  -23.7632   10.3576 C.2       4 UNK         0.5027 
     66 O         -48.3035  -23.0165   11.3325 O.2       4 UNK        -0.5211 
     67 CA        -49.0103  -23.4485    9.0803 C.3       4 UNK         0.0297 
     68 CB        -48.1369  -22.6844    8.0732 C.3       4 UNK        -0.1993 
     69 N         -49.5676  -24.6452    8.4401 N.am      4 UNK        -0.4486 
     70 C         -50.5402  -25.3984    8.9728 C.2       3 UNK         0.4961 
     71 O         -51.0910  -25.1380   10.0410 O.2       3 UNK        -0.5105 
     72 CA        -50.9577  -26.6684    8.2074 C.3       3 UNK         0.0299 
     73 CB        -51.9984  -26.3062    7.1377 C.3       3 UNK        -0.1972 
     74 N         -49.8781  -27.4388    7.5743 N.am      3 UNK        -0.4305 
     75 C         -48.6842  -27.7643    8.1020 C.2       2 UNK         0.5006 
     76 O         -48.3019  -27.3825    9.2057 O.2       2 UNK        -0.5106 
     77 CA        -47.7373  -28.6430    7.2634 C.3       2 UNK         0.0296 
     78 CB        -47.6562  -30.0483    7.9013 C.3       2 UNK        -0.2002 
     79 N         -48.1703  -28.6691    5.8594 N.am      2 UNK        -0.4032 
     80 C         -47.8737  -29.5380    4.8844 C.2       1 UNK         0.5000 
     81 O         -47.0758  -30.4740    4.9864 O.2       1 UNK        -0.5238 
     82 H82       -45.0331  -29.9138    1.0339 H         1 UNK         0.0889 
     83 H83       -46.0867  -29.0729   -0.1069 H         1 UNK         0.0889 
     84 H84       -46.5119  -30.6882    0.4620 H         1 UNK         0.0889 
     85 H85       -48.1068  -30.6713    2.0327 H         1 UNK         0.3028 
     86 H86       -48.8524  -28.2675    3.4478 H         1 UNK         0.0864 
     87 H87       -49.9042  -31.1292    3.7893 H         1 UNK         0.0720 
     88 H88       -50.5078  -29.9895    2.6223 H         1 UNK         0.0720 
     89 H89       -50.4770  -31.1998    6.1612 H         1 UNK         0.0814 
     90 H90       -52.0340  -31.5242    5.4367 H         1 UNK         0.0814 
     91 H91       -50.5646  -31.0429    8.5151 H         1 UNK         0.1469 
     92 H92       -53.9618  -29.3956   10.5339 H         1 UNK         0.1381 
     93 H93       -53.9280  -29.6488    6.2503 H         1 UNK         0.1206 
     94 H94       -56.0357  -29.1028    9.2623 H         1 UNK         0.0813 
     95 H95       -56.0687  -29.4514    7.5623 H         1 UNK         0.0813 
     96 H96       -56.3022  -27.1154   10.1828 H         1 UNK         0.0638 
     97 H97       -56.9409  -25.7692    9.3002 H         1 UNK         0.0638 
     98 H98       -53.9570  -25.9075    9.9306 H         1 UNK         0.0568 
     99 H99       -54.6409  -22.0485    9.6013 H         1 UNK         0.3450 
    100 H100      -54.7041  -22.9359   11.0956 H         1 UNK         0.3450 
    101 H101      -55.6974  -24.5217   11.8254 H         1 UNK         0.2987 
    102 H102      -54.7496  -24.6929   14.0351 H         1 UNK         0.0766 
    103 H103      -56.8363  -26.9348   14.0011 H         1 UNK         0.0798 
    104 H104      -56.7242  -25.6970   15.2513 H         1 UNK         0.0798 
    105 H105      -57.0928  -25.2488   13.5965 H         1 UNK         0.0798 
    106 H106      -53.3941  -25.8887   15.2872 H         1 UNK         0.3198 
    107 H107      -53.7323  -28.5843   17.2405 H         1 UNK         0.0843 
    108 H108      -51.5858  -28.7496   15.0557 H         1 UNK         0.0831 
    109 H109      -52.7019  -30.0331   15.4938 H         1 UNK         0.0831 
    110 H110      -51.4955  -29.4919   16.6498 H         1 UNK         0.0831 
    111 H111      -51.6490  -26.6553   16.3626 H         1 UNK         0.3133 
    112 H112      -52.5128  -24.1352   17.6151 H         1 UNK         0.0566 
    113 H113      -51.4635  -23.5094   19.8074 H         1 UNK         0.0814 
    114 H114      -53.0541  -24.2253   19.9997 H         1 UNK         0.0814 
    115 H115      -51.6238  -25.1798   20.3506 H         1 UNK         0.0814 
    116 H116      -50.4715  -24.3532   16.8700 H         1 UNK         0.3091 
    117 H117      -47.5083  -25.3777   18.0615 H         1 UNK         0.0702 
    118 H118      -46.9680  -27.0044   16.2471 H         1 UNK         0.0785 
    119 H119      -48.6828  -27.3453   16.0237 H         1 UNK         0.0785 
    120 H120      -47.8831  -27.7817   17.5275 H         1 UNK         0.0785 
    121 H121      -48.3180  -25.0193   15.3128 H         1 UNK         0.2998 
    122 H122      -48.5718  -21.4615   15.4711 H         1 UNK         0.0697 
    123 H123      -46.5272  -23.2934   14.1078 H         1 UNK         0.0825 
    124 H124      -46.1527  -21.9030   15.1141 H         1 UNK         0.0825 
    125 H125      -46.9682  -21.6723   13.5750 H         1 UNK         0.0825 
    126 H126      -48.9450  -23.1856   13.2713 H         1 UNK         0.3029 
    127 H127      -52.4216  -23.9485   13.8680 H         1 UNK         0.0897 
    128 H128      -52.3804  -23.1384   11.4988 H         1 UNK         0.0792 
    129 H129      -52.2682  -21.8103   12.6462 H         1 UNK         0.0792 
    130 H130      -50.8355  -22.3538   11.7861 H         1 UNK         0.0792 
    131 H131      -50.7464  -24.9464   11.8432 H         1 UNK         0.3086 
    132 H132      -49.4707  -27.8073   13.6287 H         1 UNK         0.0583 
    133 H133      -51.7053  -28.3790   12.6805 H         1 UNK         0.1020 
    134 H134      -51.3528  -27.4806   11.2322 H         1 UNK         0.1020 
    135 H135      -51.1990  -31.6169   10.9703 H         1 UNK         0.0694 
    136 H136      -52.2463  -30.5098   11.8133 H         1 UNK         0.0694 
    137 H137      -48.8213  -26.8480   11.0443 H         1 UNK         0.2989 
    138 H138      -46.2482  -24.5587   12.0065 H         1 UNK         0.1055 
    139 H139      -45.1084  -26.7482   11.9510 H         1 UNK         0.0806 
    140 H140      -44.9890  -25.9775   10.3776 H         1 UNK         0.0806 
    141 H141      -46.1271  -27.2998   10.6325 H         1 UNK         0.0806 
    142 H142      -47.5371  -25.5042    9.5550 H         1 UNK         0.3061 
    143 H143      -49.8434  -22.8023    9.3657 H         1 UNK         0.0734 
    144 H144      -48.7125  -22.3791    7.1992 H         1 UNK         0.0832 
    145 H145      -47.7288  -21.7778    8.5226 H         1 UNK         0.0832 
    146 H146      -47.2937  -23.2847    7.7293 H         1 UNK         0.0832 
    147 H147      -49.1665  -24.9282    7.5583 H         1 UNK         0.3156 
    148 H148      -51.4369  -27.3372    8.9235 H         1 UNK         0.0589 
    149 H149      -51.5657  -25.7100    6.3338 H         1 UNK         0.0808 
    150 H150      -52.8149  -25.7271    7.5679 H         1 UNK         0.0808 
    151 H151      -52.4429  -27.1964    6.6945 H         1 UNK         0.0808 
    152 H152      -50.1487  -27.8964    6.7166 H         1 UNK         0.3098 
    153 H153      -46.7501  -28.1798    7.3021 H         1 UNK         0.0720 
    154 H154      -47.5830  -29.9942    8.9890 H         1 UNK         0.0791 
    155 H155      -46.7736  -30.5883    7.5596 H         1 UNK         0.0791 
    156 H156      -48.5284  -30.6528    7.6611 H         1 UNK         0.0791 
    157 H157      -48.7734  -27.9014    5.6017 H         1 UNK         0.3028 
@<TRIPOS>BOND
     1    1    2 1    
     2    1   82 1    
     3    1   83 1    
     4    1   84 1    
     5    2    3 2    
     6    2    4 am   BACKBONE|DICT|INTERRES
     7    4    5 1    
     8    4   85 1    
     9    5    6 1    
    10    5   80 1    
    11    5   86 1    
    12    6    7 1    
    13    6   87 1    
    14    6   88 1    
    15    7    8 1    
    16    8    9 1    
    17    8   89 1    
    18    8   90 1    
    19    9   10 ar   
    20    9   14 ar   
    21   10   11 ar   
    22   10   91 1    
    23   11   12 ar   
    24   11   58 1    
    25   12   13 ar   
    26   12   92 1    
    27   13   14 ar   
    28   13   15 1    
    29   14   93 1    
    30   15   16 1    
    31   15   94 1    
    32   15   95 1    
    33   16   17 1    
    34   17   18 1    
    35   17   96 1    
    36   17   97 1    
    37   18   19 1    
    38   18   22 1    
    39   18   98 1    
    40   19   20 am   BACKBONE|DICT|INTERRES
    41   19   21 2    
    42   20   99 1    
    43   20  100 1    
    44   22   23 am   BACKBONE|DICT|INTERRES
    45   22  101 1    
    46   23   24 2    
    47   23   25 1    
    48   25   26 1    
    49   25   27 1    
    50   25  102 1    
    51   26  103 1    
    52   26  104 1    
    53   26  105 1    
    54   27   28 am   BACKBONE|DICT|INTERRES
    55   27  106 1    
    56   28   29 2    
    57   28   30 1    
    58   30   31 1    
    59   30   32 1    
    60   30  107 1    
    61   31  108 1    
    62   31  109 1    
    63   31  110 1    
    64   32   33 am   BACKBONE|DICT|INTERRES
    65   32  111 1    
    66   33   34 2    
    67   33   35 1    
    68   35   36 1    
    69   35   37 1    
    70   35  112 1    
    71   36  113 1    
    72   36  114 1    
    73   36  115 1    
    74   37   38 am   BACKBONE|DICT|INTERRES
    75   37  116 1    
    76   38   39 2    
    77   38   40 1    
    78   40   41 1    
    79   40   42 1    
    80   40  117 1    
    81   41  118 1    
    82   41  119 1    
    83   41  120 1    
    84   42   43 am   BACKBONE|DICT|INTERRES
    85   42  121 1    
    86   43   44 2    
    87   43   45 1    
    88   45   46 1    
    89   45   47 1    
    90   45  122 1    
    91   46  123 1    
    92   46  124 1    
    93   46  125 1    
    94   47   48 am   BACKBONE|DICT|INTERRES
    95   47  126 1    
    96   48   49 2    
    97   48   50 1    
    98   50   51 1    
    99   50   52 1    
   100   50  127 1    
   101   51  128 1    
   102   51  129 1    
   103   51  130 1    
   104   52   53 am   BACKBONE|DICT|INTERRES
   105   52  131 1    
   106   53   54 2    
   107   53   55 1    
   108   55   56 1    
   109   55   59 1    
   110   55  132 1    
   111   56   57 1    
   112   56  133 1    
   113   56  134 1    
   114   57   58 1    
   115   58  135 1    
   116   58  136 1    
   117   59   60 am   BACKBONE|DICT|INTERRES
   118   59  137 1    
   119   60   61 2    
   120   60   62 1    
   121   62   63 1    
   122   62   64 1    
   123   62  138 1    
   124   63  139 1    
   125   63  140 1    
   126   63  141 1    
   127   64   65 am   BACKBONE|DICT|INTERRES
   128   64  142 1    
   129   65   66 2    
   130   65   67 1    
   131   67   68 1    
   132   67   69 1    
   133   67  143 1    
   134   68  144 1    
   135   68  145 1    
   136   68  146 1    
   137   69   70 am   BACKBONE|DICT|INTERRES
   138   69  147 1    
   139   70   71 2    
   140   70   72 1    
   141   72   73 1    
   142   72   74 1    
   143   72  148 1    
   144   73  149 1    
   145   73  150 1    
   146   73  151 1    
   147   74   75 am   BACKBONE|DICT|INTERRES
   148   74  152 1    
   149   75   76 2    
   150   75   77 1    
   151   77   78 1    
   152   77   79 1    
   153   77  153 1    
   154   78  154 1    
   155   78  155 1    
   156   78  156 1    
   157   79   80 am   BACKBONE|DICT|INTERRES
   158   79  157 1    
   159   80   81 2    
@<TRIPOS>SUBSTRUCTURE
     1 UNK         1 GROUP             0       ****    0 ROOT    
