@<TRIPOS>MOLECULE
3R207
157   159    1
SMALL
USER_CHARGES


@<TRIPOS>ATOM
      1 CA        -46.3048  -32.8129    4.7718 C.3       0 UNK        -0.1975 
      2 C         -46.6077  -31.5933    5.6305 C.2       0 UNK         0.4852 
      3 O         -45.7631  -31.1902    6.4315 O.2       0 UNK        -0.5216 
      4 N         -47.8067  -31.0147    5.4686 N.am      1 UNK        -0.4461 
      5 CA        -48.2899  -29.8061    6.1497 C.3       1 UNK         0.0864 
      6 C6        -48.3812  -29.9897    7.6961 C.3       14 UNK        -0.0898 
      7 S7        -49.5812  -28.8857    8.5132 S.3       14 UNK        -0.2598 
      8 C8        -51.1651  -29.7113    8.1329 C.3       14 UNK         0.0286 
      9 C9        -52.3927  -28.8834    8.5088 C.ar      14 UNK        -0.0844 
     10 C10       -52.3922  -27.4866    8.4098 C.ar      14 UNK        -0.0881 
     11 C11       -53.5216  -26.7427    8.7580 C.ar      14 UNK        -0.0643 
     12 C12       -54.6743  -27.4077    9.1904 C.ar      14 UNK        -0.0930 
     13 C13       -54.7060  -28.8054    9.2608 C.ar      14 UNK        -0.0827 
     14 C14       -53.5611  -29.5338    8.9192 C.ar      14 UNK        -0.1249 
     15 C15       -55.9791  -29.5303    9.6870 C.3       14 UNK         0.0141 
     16 S16       -55.7574  -30.3941   11.2724 S.3       14 UNK        -0.2313 
     17 C17       -57.4663  -30.8390   11.7258 C.3       14 UNK        -0.0915 
     18 CA        -58.2739  -29.6881   12.4014 C.3       13 UNK         0.0968 
     19 C         -59.7019  -30.1409   12.8311 C.2       13 UNK         0.5732 
     20 N         -60.2546  -29.6401   13.9297 N.am      13 UNK        -0.7310 
     21 O         -60.3383  -30.9348   12.1414 O.2       13 UNK        -0.5035 
     22 N         -57.5281  -28.9440   13.4330 N.am      13 UNK        -0.4233 
     23 C         -56.9899  -29.4162   14.5630 C.2       13 UNK         0.4989 
     24 O         -57.0607  -30.5956   14.9137 O.2       13 UNK        -0.4996 
     25 CA        -56.2592  -28.3845   15.4576 C.3       12 UNK         0.0216 
     26 CB        -55.5932  -29.0339   16.6856 C.3       12 UNK        -0.1964 
     27 N         -55.2487  -27.5890   14.7471 N.am      12 UNK        -0.4276 
     28 C         -55.4813  -26.6412   13.8278 C.2       12 UNK         0.5020 
     29 O         -56.6168  -26.3050   13.4838 O.2       12 UNK        -0.5489 
     30 CA        -54.2736  -25.9353   13.1780 C.3       11 UNK         0.0294 
     31 CB        -54.2221  -24.4682   13.6399 C.3       11 UNK        -0.2019 
     32 N         -52.9642  -26.5649   13.4057 N.am      11 UNK        -0.4493 
     33 C         -52.6174  -27.7997   13.0105 C.2       11 UNK         0.4932 
     34 O         -53.3721  -28.5375   12.3884 O.2       11 UNK        -0.5029 
     35 CA        -51.2332  -28.3510   13.4021 C.3       10 UNK         0.0280 
     36 CB        -50.4115  -28.7708   12.1692 C.3       10 UNK        -0.1976 
     37 N         -50.4348  -27.4892   14.2827 N.am      10 UNK        -0.4242 
     38 C         -50.7136  -27.3028   15.5817 C.2       10 UNK         0.5072 
     39 O         -51.7537  -27.7020   16.1092 O.2       10 UNK        -0.5224 
     40 CA        -49.6681  -26.6139   16.4698 C.3       9 UNK         0.0343 
     41 CB        -48.7992  -27.6863   17.1611 C.3       9 UNK        -0.2003 
     42 N         -48.8193  -25.6364   15.7781 N.am      9 UNK        -0.4272 
     43 C         -48.0927  -24.7130   16.4264 C.2       9 UNK         0.4988 
     44 O         -48.1059  -24.5635   17.6498 O.2       9 UNK        -0.5108 
     45 CA        -47.1793  -23.8075   15.5864 C.3       8 UNK         0.0248 
     46 CB        -45.9301  -24.5770   15.1268 C.3       8 UNK        -0.2001 
     47 N         -47.8573  -23.2058   14.4381 N.am      8 UNK        -0.4140 
     48 C         -48.8421  -22.2998   14.5291 C.2       8 UNK         0.5028 
     49 O         -49.2628  -21.8472   15.5950 O.2       8 UNK        -0.5428 
     50 CA        -49.4697  -21.8059   13.2133 C.3       7 UNK         0.0264 
     51 CB        -48.6489  -20.6470   12.6252 C.3       7 UNK        -0.1988 
     52 N         -49.6299  -22.8511   12.2000 N.am      7 UNK        -0.4454 
     53 C         -50.3713  -23.9591   12.3519 C.2       7 UNK         0.5027 
     54 O         -50.9854  -24.2434   13.3814 O.2       7 UNK        -0.5083 
     55 CA        -50.3568  -24.9610   11.1799 C.3       6 UNK         0.0844 
     56 C56       -51.0974  -24.4243    9.9275 C.3       14 UNK        -0.0967 
     57 S57       -52.9122  -24.3902   10.1251 S.3       14 UNK        -0.2604 
     58 C58       -53.5103  -25.2258    8.6212 C.3       14 UNK         0.0134 
     59 N         -48.9885  -25.3839   10.8667 N.am      6 UNK        -0.4116 
     60 C         -48.1034  -25.9068   11.7304 C.2       5 UNK         0.5034 
     61 O         -48.3582  -26.1979   12.9014 O.2       5 UNK        -0.5045 
     62 CA        -46.6679  -26.0793   11.2131 C.3       5 UNK         0.0224 
     63 CB        -46.5260  -27.3683   10.3882 C.3       5 UNK        -0.1978 
     64 N         -46.2259  -24.9232   10.4271 N.am      5 UNK        -0.4737 
     65 C         -46.0239  -23.6991   10.9373 C.2       4 UNK         0.5027 
     66 O         -46.1480  -23.4275   12.1292 O.2       4 UNK        -0.5211 
     67 CA        -45.6675  -22.5797    9.9467 C.3       4 UNK         0.0297 
     68 CB        -44.1709  -22.6179    9.5999 C.3       4 UNK        -0.1993 
     69 N         -46.4619  -22.6466    8.7193 N.am      4 UNK        -0.4486 
     70 C         -47.7900  -22.4702    8.6628 C.2       3 UNK         0.4961 
     71 O         -48.4857  -22.1690    9.6325 O.2       3 UNK        -0.5105 
     72 CA        -48.4597  -22.7323    7.3024 C.3       3 UNK         0.0299 
     73 CB        -48.4304  -21.4667    6.4316 C.3       3 UNK        -0.1972 
     74 N         -47.8520  -23.8526    6.5734 N.am      3 UNK        -0.4305 
     75 C         -47.8417  -25.1174    7.0146 C.2       2 UNK         0.5006 
     76 O         -48.3634  -25.4778    8.0730 O.2       2 UNK        -0.5106 
     77 CA        -47.0729  -26.1368    6.1706 C.3       2 UNK         0.0296 
     78 CB        -45.5679  -26.0919    6.4956 C.3       2 UNK        -0.2002 
     79 N         -47.6081  -27.4611    6.4641 N.am      2 UNK        -0.4032 
     80 C         -47.5353  -28.5374    5.6763 C.2       1 UNK         0.5000 
     81 O         -46.9504  -28.5379    4.5883 O.2       1 UNK        -0.5238 
     82 H82       -46.0915  -33.6738    5.4049 H         1 UNK         0.0889 
     83 H83       -45.4317  -32.6238    4.1477 H         1 UNK         0.0889 
     84 H84       -47.1386  -33.0707    4.1190 H         1 UNK         0.0889 
     85 H85       -48.4326  -31.3855    4.7671 H         1 UNK         0.3028 
     86 H86       -49.3038  -29.6756    5.7712 H         1 UNK         0.0864 
     87 H87       -48.6716  -31.0142    7.9345 H         1 UNK         0.0720 
     88 H88       -47.4040  -29.8477    8.1614 H         1 UNK         0.0720 
     89 H89       -51.1845  -30.6697    8.6543 H         1 UNK         0.0814 
     90 H90       -51.2205  -29.9333    7.0673 H         1 UNK         0.0814 
     91 H91       -51.5105  -26.9730    8.0554 H         1 UNK         0.1469 
     92 H92       -55.5522  -26.8353    9.4562 H         1 UNK         0.1381 
     93 H93       -53.5834  -30.6134    8.9796 H         1 UNK         0.1206 
     94 H94       -56.8066  -28.8253    9.7749 H         1 UNK         0.0813 
     95 H95       -56.2637  -30.2511    8.9193 H         1 UNK         0.0813 
     96 H96       -57.9785  -31.1913   10.8287 H         1 UNK         0.0638 
     97 H97       -57.4098  -31.6981   12.3962 H         1 UNK         0.0638 
     98 H98       -58.4601  -28.9463   11.6249 H         1 UNK         0.0568 
     99 H99       -61.1831  -29.9312   14.1918 H         1 UNK         0.3450 
    100 H100      -59.7525  -28.9771   14.4975 H         1 UNK         0.3450 
    101 H101      -57.3998  -27.9504   13.2537 H         1 UNK         0.2987 
    102 H102      -57.0238  -27.6969   15.8250 H         1 UNK         0.0766 
    103 H103      -55.1413  -28.2845   17.3360 H         1 UNK         0.0798 
    104 H104      -54.8129  -29.7382   16.3939 H         1 UNK         0.0798 
    105 H105      -56.3216  -29.5815   17.2852 H         1 UNK         0.0798 
    106 H106      -54.2824  -27.8082   14.9476 H         1 UNK         0.3198 
    107 H107      -54.4571  -25.9519   12.1022 H         1 UNK         0.0843 
    108 H108      -53.5232  -23.8860   13.0417 H         1 UNK         0.0831 
    109 H109      -53.9238  -24.3841   14.6854 H         1 UNK         0.0831 
    110 H110      -55.1950  -23.9854   13.5373 H         1 UNK         0.0831 
    111 H111      -52.2653  -25.9951   13.8675 H         1 UNK         0.3133 
    112 H112      -51.4321  -29.2685   13.9605 H         1 UNK         0.0566 
    113 H113      -49.4529  -29.2038   12.4546 H         1 UNK         0.0814 
    114 H114      -50.9444  -29.5252   11.5883 H         1 UNK         0.0814 
    115 H115      -50.2162  -27.9424   11.4935 H         1 UNK         0.0814 
    116 H116      -49.5842  -27.1036   13.8795 H         1 UNK         0.3091 
    117 H117      -50.2324  -26.0815   17.2388 H         1 UNK         0.0702 
    118 H118      -49.4184  -28.4433   17.6447 H         1 UNK         0.0785 
    119 H119      -48.1547  -28.1994   16.4463 H         1 UNK         0.0785 
    120 H120      -48.1640  -27.2569   17.9356 H         1 UNK         0.0785 
    121 H121      -48.7650  -25.6830   14.7651 H         1 UNK         0.2998 
    122 H122      -46.8447  -22.9919   16.2310 H         1 UNK         0.0697 
    123 H123      -46.1802  -25.3773   14.4305 H         1 UNK         0.0825 
    124 H124      -45.4167  -25.0315   15.9752 H         1 UNK         0.0825 
    125 H125      -45.2163  -23.9159   14.6354 H         1 UNK         0.0825 
    126 H126      -47.5045  -23.4559   13.5182 H         1 UNK         0.3029 
    127 H127      -50.4677  -21.4313   13.4508 H         1 UNK         0.0897 
    128 H128      -47.6497  -20.9707   12.3313 H         1 UNK         0.0792 
    129 H129      -48.5325  -19.8412   13.3512 H         1 UNK         0.0792 
    130 H130      -49.1342  -20.2238   11.7455 H         1 UNK         0.0792 
    131 H131      -49.1527  -22.6971   11.3135 H         1 UNK         0.3086 
    132 H132      -50.8883  -25.8500   11.5143 H         1 UNK         0.0583 
    133 H133      -50.7633  -23.4204    9.6649 H         1 UNK         0.1020 
    134 H134      -50.8519  -25.0437    9.0657 H         1 UNK         0.1020 
    135 H135      -54.5213  -24.8725    8.4130 H         1 UNK         0.0694 
    136 H136      -52.9074  -24.9230    7.7636 H         1 UNK         0.0694 
    137 H137      -48.6851  -25.2434    9.9063 H         1 UNK         0.2989 
    138 H138      -46.0147  -26.1630   12.0843 H         1 UNK         0.1055 
    139 H139      -46.8535  -28.2364   10.9623 H         1 UNK         0.0806 
    140 H140      -45.4893  -27.5433   10.1005 H         1 UNK         0.0806 
    141 H141      -47.1246  -27.3396    9.4790 H         1 UNK         0.0806 
    142 H142      -46.1479  -25.0494    9.4295 H         1 UNK         0.3061 
    143 H143      -45.8816  -21.6255   10.4334 H         1 UNK         0.0734 
    144 H144      -43.8894  -21.7796    8.9625 H         1 UNK         0.0832 
    145 H145      -43.5617  -22.5540   10.5028 H         1 UNK         0.0832 
    146 H146      -43.8945  -23.5395    9.0860 H         1 UNK         0.0832 
    147 H147      -45.9736  -22.8804    7.8676 H         1 UNK         0.3156 
    148 H148      -49.5040  -22.9885    7.4929 H         1 UNK         0.0589 
    149 H149      -47.4116  -21.1696    6.1793 H         1 UNK         0.0808 
    150 H150      -48.9788  -21.6124    5.5007 H         1 UNK         0.0808 
    151 H151      -48.8953  -20.6270    6.9504 H         1 UNK         0.0808 
    152 H152      -47.4024  -23.6359    5.6948 H         1 UNK         0.3098 
    153 H153      -47.2338  -25.9083    5.1149 H         1 UNK         0.0720 
    154 H154      -45.0099  -26.7985    5.8808 H         1 UNK         0.0791 
    155 H155      -45.3730  -26.3375    7.5401 H         1 UNK         0.0791 
    156 H156      -45.1500  -25.1027    6.3052 H         1 UNK         0.0791 
    157 H157      -48.1591  -27.5097    7.3158 H         1 UNK         0.3028 
@<TRIPOS>BOND
     1    1    2 1    
     2    1   82 1    
     3    1   83 1    
     4    1   84 1    
     5    2    3 2    
     6    2    4 am   BACKBONE|DICT|INTERRES
     7    4    5 1    
     8    4   85 1    
     9    5    6 1    
    10    5   80 1    
    11    5   86 1    
    12    6    7 1    
    13    6   87 1    
    14    6   88 1    
    15    7    8 1    
    16    8    9 1    
    17    8   89 1    
    18    8   90 1    
    19    9   10 ar   
    20    9   14 ar   
    21   10   11 ar   
    22   10   91 1    
    23   11   12 ar   
    24   11   58 1    
    25   12   13 ar   
    26   12   92 1    
    27   13   14 ar   
    28   13   15 1    
    29   14   93 1    
    30   15   16 1    
    31   15   94 1    
    32   15   95 1    
    33   16   17 1    
    34   17   18 1    
    35   17   96 1    
    36   17   97 1    
    37   18   19 1    
    38   18   22 1    
    39   18   98 1    
    40   19   20 am   BACKBONE|DICT|INTERRES
    41   19   21 2    
    42   20   99 1    
    43   20  100 1    
    44   22   23 am   BACKBONE|DICT|INTERRES
    45   22  101 1    
    46   23   24 2    
    47   23   25 1    
    48   25   26 1    
    49   25   27 1    
    50   25  102 1    
    51   26  103 1    
    52   26  104 1    
    53   26  105 1    
    54   27   28 am   BACKBONE|DICT|INTERRES
    55   27  106 1    
    56   28   29 2    
    57   28   30 1    
    58   30   31 1    
    59   30   32 1    
    60   30  107 1    
    61   31  108 1    
    62   31  109 1    
    63   31  110 1    
    64   32   33 am   BACKBONE|DICT|INTERRES
    65   32  111 1    
    66   33   34 2    
    67   33   35 1    
    68   35   36 1    
    69   35   37 1    
    70   35  112 1    
    71   36  113 1    
    72   36  114 1    
    73   36  115 1    
    74   37   38 am   BACKBONE|DICT|INTERRES
    75   37  116 1    
    76   38   39 2    
    77   38   40 1    
    78   40   41 1    
    79   40   42 1    
    80   40  117 1    
    81   41  118 1    
    82   41  119 1    
    83   41  120 1    
    84   42   43 am   BACKBONE|DICT|INTERRES
    85   42  121 1    
    86   43   44 2    
    87   43   45 1    
    88   45   46 1    
    89   45   47 1    
    90   45  122 1    
    91   46  123 1    
    92   46  124 1    
    93   46  125 1    
    94   47   48 am   BACKBONE|DICT|INTERRES
    95   47  126 1    
    96   48   49 2    
    97   48   50 1    
    98   50   51 1    
    99   50   52 1    
   100   50  127 1    
   101   51  128 1    
   102   51  129 1    
   103   51  130 1    
   104   52   53 am   BACKBONE|DICT|INTERRES
   105   52  131 1    
   106   53   54 2    
   107   53   55 1    
   108   55   56 1    
   109   55   59 1    
   110   55  132 1    
   111   56   57 1    
   112   56  133 1    
   113   56  134 1    
   114   57   58 1    
   115   58  135 1    
   116   58  136 1    
   117   59   60 am   BACKBONE|DICT|INTERRES
   118   59  137 1    
   119   60   61 2    
   120   60   62 1    
   121   62   63 1    
   122   62   64 1    
   123   62  138 1    
   124   63  139 1    
   125   63  140 1    
   126   63  141 1    
   127   64   65 am   BACKBONE|DICT|INTERRES
   128   64  142 1    
   129   65   66 2    
   130   65   67 1    
   131   67   68 1    
   132   67   69 1    
   133   67  143 1    
   134   68  144 1    
   135   68  145 1    
   136   68  146 1    
   137   69   70 am   BACKBONE|DICT|INTERRES
   138   69  147 1    
   139   70   71 2    
   140   70   72 1    
   141   72   73 1    
   142   72   74 1    
   143   72  148 1    
   144   73  149 1    
   145   73  150 1    
   146   73  151 1    
   147   74   75 am   BACKBONE|DICT|INTERRES
   148   74  152 1    
   149   75   76 2    
   150   75   77 1    
   151   77   78 1    
   152   77   79 1    
   153   77  153 1    
   154   78  154 1    
   155   78  155 1    
   156   78  156 1    
   157   79   80 am   BACKBONE|DICT|INTERRES
   158   79  157 1    
   159   80   81 2    
@<TRIPOS>SUBSTRUCTURE
     1 UNK         1 GROUP             0       ****    0 ROOT    
