@<TRIPOS>MOLECULE
3R207
157   159    1
SMALL
USER_CHARGES


@<TRIPOS>ATOM
      1 CA        -51.3373  -25.5253    3.6980 C.3       0 UNK        -0.1975 
      2 C         -50.0304  -26.2677    3.4249 C.2       0 UNK         0.4852 
      3 O         -49.6042  -26.3260    2.2725 O.2       0 UNK        -0.5216 
      4 N         -49.3664  -26.8625    4.4276 N.am      1 UNK        -0.4461 
      5 CA        -49.6813  -26.8202    5.8598 C.3       1 UNK         0.0864 
      6 C6        -48.8332  -27.8638    6.6301 C.3       14 UNK        -0.0898 
      7 S7        -49.3859  -28.1158    8.3488 S.3       14 UNK        -0.2598 
      8 C8        -49.9686  -29.8376    8.3288 C.3       14 UNK         0.0286 
      9 C9        -50.2612  -30.3071    9.7452 C.ar      14 UNK        -0.0844 
     10 C10       -49.2648  -30.9402   10.4949 C.ar      14 UNK        -0.0881 
     11 C11       -49.5128  -31.3327   11.8133 C.ar      14 UNK        -0.0643 
     12 C12       -50.7715  -31.0981   12.3759 C.ar      14 UNK        -0.0930 
     13 C13       -51.7745  -30.4638   11.6386 C.ar      14 UNK        -0.0827 
     14 C14       -51.5172  -30.0839   10.3182 C.ar      14 UNK        -0.1249 
     15 C15       -53.1135  -30.1459   12.2888 C.3       14 UNK         0.0141 
     16 S16       -54.4798  -31.0954   11.5636 S.3       14 UNK        -0.2313 
     17 C17       -55.8312  -30.6781   12.7174 C.3       14 UNK        -0.0915 
     18 CA        -56.7208  -29.5134   12.2054 C.3       13 UNK         0.0968 
     19 C         -58.0834  -29.4542   12.9589 C.2       13 UNK         0.5732 
     20 N         -58.4967  -28.3324   13.5375 N.am      13 UNK        -0.7310 
     21 O         -58.8001  -30.4516   13.0045 O.2       13 UNK        -0.5035 
     22 N         -55.9901  -28.2358   12.2049 N.am      13 UNK        -0.4233 
     23 C         -56.1807  -27.2545   11.3127 C.2       13 UNK         0.4989 
     24 O         -56.9188  -27.3625   10.3314 O.2       13 UNK        -0.4996 
     25 CA        -55.4253  -25.9275   11.5544 C.3       12 UNK         0.0216 
     26 CB        -56.0722  -24.7288   10.8297 C.3       12 UNK        -0.1964 
     27 N         -55.2003  -25.6052   12.9698 N.am      12 UNK        -0.4276 
     28 C         -56.1288  -25.5355   13.9350 C.2       12 UNK         0.5020 
     29 O         -57.3345  -25.6830   13.7248 O.2       12 UNK        -0.5489 
     30 CA        -55.6351  -25.3109   15.3801 C.3       11 UNK         0.0294 
     31 CB        -56.6695  -25.7875   16.4212 C.3       11 UNK        -0.2019 
     32 N         -54.3258  -25.8968   15.7029 N.am      11 UNK        -0.4493 
     33 C         -53.8821  -27.1419   15.4740 C.2       11 UNK         0.4932 
     34 O         -54.4877  -27.9739   14.7936 O.2       11 UNK        -0.5029 
     35 CA        -52.5354  -27.5210   16.1277 C.3       10 UNK         0.0280 
     36 CB        -51.9248  -28.7996   15.5254 C.3       10 UNK        -0.1976 
     37 N         -51.5272  -26.4579   16.0783 N.am      10 UNK        -0.4242 
     38 C         -51.4514  -25.3876   16.8809 C.2       10 UNK         0.5072 
     39 O         -52.3039  -25.1087   17.7242 O.2       10 UNK        -0.5224 
     40 CA        -50.2391  -24.4631   16.6927 C.3       9 UNK         0.0343 
     41 CB        -48.9676  -25.1085   17.2691 C.3       9 UNK        -0.2003 
     42 N         -50.0354  -24.1648   15.2758 N.am      9 UNK        -0.4272 
     43 C         -50.4682  -23.0567   14.6588 C.2       9 UNK         0.4988 
     44 O         -50.9824  -22.1021   15.2431 O.2       9 UNK        -0.5108 
     45 CA        -50.3197  -22.9979   13.1249 C.3       8 UNK         0.0248 
     46 CB        -49.0251  -22.2679   12.7330 C.3       8 UNK        -0.2001 
     47 N         -50.3544  -24.3079   12.4678 N.am      8 UNK        -0.4140 
     48 C         -51.3844  -25.1632   12.5225 C.2       8 UNK         0.5028 
     49 O         -52.4512  -24.9293   13.0921 O.2       8 UNK        -0.5428 
     50 CA        -51.1909  -26.5301   11.8508 C.3       7 UNK         0.0264 
     51 CB        -51.5825  -26.4240   10.3711 C.3       7 UNK        -0.1988 
     52 N         -49.8486  -27.1255   11.9750 N.am      7 UNK        -0.4454 
     53 C         -49.1569  -27.2776   13.1173 C.2       7 UNK         0.5027 
     54 O         -49.5350  -26.8359   14.2021 O.2       7 UNK        -0.5083 
     55 CA        -47.8323  -28.0672   13.0875 C.3       6 UNK         0.0844 
     56 C56       -47.9822  -29.4352   13.8295 C.3       14 UNK        -0.0967 
     57 S57       -47.0744  -30.8484   13.0928 S.3       14 UNK        -0.2604 
     58 C58       -48.4201  -31.9964   12.6418 C.3       14 UNK         0.0134 
     59 N         -47.2132  -28.1678   11.7619 N.am      6 UNK        -0.4116 
     60 C         -46.5989  -27.1635   11.1253 C.2       5 UNK         0.5034 
     61 O         -46.6703  -25.9864   11.4816 O.2       5 UNK        -0.5045 
     62 CA        -45.6906  -27.5321    9.9413 C.3       5 UNK         0.0224 
     63 CB        -45.8915  -28.9534    9.3665 C.3       5 UNK        -0.1978 
     64 N         -45.7970  -26.5062    8.9055 N.am      5 UNK        -0.4737 
     65 C         -44.8328  -26.2065    8.0265 C.2       4 UNK         0.5027 
     66 O         -43.7838  -26.8438    7.9236 O.2       4 UNK        -0.5211 
     67 CA        -45.0480  -24.9863    7.1124 C.3       4 UNK         0.0297 
     68 CB        -45.4050  -25.4315    5.6851 C.3       4 UNK        -0.1993 
     69 N         -46.0552  -24.0424    7.6133 N.am      4 UNK        -0.4486 
     70 C         -45.8428  -23.2113    8.6477 C.2       3 UNK         0.4961 
     71 O         -44.7816  -23.1720    9.2719 O.2       3 UNK        -0.5105 
     72 CA        -46.9655  -22.2378    9.0572 C.3       3 UNK         0.0299 
     73 CB        -46.5750  -20.7897    8.7166 C.3       3 UNK        -0.1972 
     74 N         -48.2632  -22.5294    8.4481 N.am      3 UNK        -0.4305 
     75 C         -49.0846  -23.5136    8.8315 C.2       2 UNK         0.5006 
     76 O         -48.8437  -24.2803    9.7638 O.2       2 UNK        -0.5106 
     77 CA        -50.3900  -23.6947    8.0308 C.3       2 UNK         0.0296 
     78 CB        -50.7184  -22.5290    7.0685 C.3       2 UNK        -0.2002 
     79 N         -50.3971  -24.9731    7.3107 N.am      2 UNK        -0.4032 
     80 C         -49.4847  -25.3949    6.4230 C.2       1 UNK         0.5000 
     81 O         -48.5201  -24.7188    6.0552 O.2       1 UNK        -0.5238 
     82 H82       -51.9975  -26.0929    4.3520 H         1 UNK         0.0889 
     83 H83       -51.8756  -25.3541    2.7659 H         1 UNK         0.0889 
     84 H84       -51.1407  -24.5529    4.1486 H         1 UNK         0.0889 
     85 H85       -48.4991  -27.3261    4.2002 H         1 UNK         0.3028 
     86 H86       -50.7297  -27.1018    5.9731 H         1 UNK         0.0864 
     87 H87       -47.7805  -27.5779    6.6506 H         1 UNK         0.0720 
     88 H88       -48.8682  -28.8230    6.1111 H         1 UNK         0.0720 
     89 H89       -49.2127  -30.4778    7.8712 H         1 UNK         0.0814 
     90 H90       -50.8630  -29.9152    7.7088 H         1 UNK         0.0814 
     91 H91       -48.2902  -31.1140   10.0598 H         1 UNK         0.1469 
     92 H92       -50.9636  -31.3918   13.3988 H         1 UNK         0.1381 
     93 H93       -52.2930  -29.5986    9.7426 H         1 UNK         0.1206 
     94 H94       -53.0756  -30.3557   13.3576 H         1 UNK         0.0813 
     95 H95       -53.3210  -29.0811   12.1882 H         1 UNK         0.0813 
     96 H96       -55.4299  -30.4521   13.7069 H         1 UNK         0.0638 
     97 H97       -56.4193  -31.5898   12.8360 H         1 UNK         0.0638 
     98 H98       -56.9893  -29.7540   11.1752 H         1 UNK         0.0568 
     99 H99       -57.9516  -27.4756   13.4986 H         1 UNK         0.3450 
    100 H100      -59.3868  -28.3299   14.0083 H         1 UNK         0.3450 
    101 H101      -55.4137  -28.0591   13.0224 H         1 UNK         0.2987 
    102 H102      -54.4379  -26.0782   11.1246 H         1 UNK         0.0766 
    103 H103      -55.4954  -23.8165   10.9822 H         1 UNK         0.0798 
    104 H104      -57.0880  -24.5468   11.1824 H         1 UNK         0.0798 
    105 H105      -56.1253  -24.8994    9.7537 H         1 UNK         0.0798 
    106 H106      -54.2265  -25.4411   13.2279 H         1 UNK         0.3198 
    107 H107      -55.5219  -24.2316   15.4917 H         1 UNK         0.0843 
    108 H108      -56.8601  -26.8580   16.3331 H         1 UNK         0.0831 
    109 H109      -57.6238  -25.2742   16.2956 H         1 UNK         0.0831 
    110 H110      -56.3313  -25.5893   17.4382 H         1 UNK         0.0831 
    111 H111      -53.7230  -25.3180   16.2786 H         1 UNK         0.3133 
    112 H112      -52.7529  -27.7287   17.1772 H         1 UNK         0.0566 
    113 H113      -50.9982  -29.0730   16.0305 H         1 UNK         0.0814 
    114 H114      -52.6055  -29.6457   15.6260 H         1 UNK         0.0814 
    115 H115      -51.7014  -28.6741   14.4661 H         1 UNK         0.0814 
    116 H116      -50.7890  -26.5869   15.3872 H         1 UNK         0.3091 
    117 H117      -50.4283  -23.5425   17.2490 H         1 UNK         0.0702 
    118 H118      -48.1138  -24.4355   17.1888 H         1 UNK         0.0785 
    119 H119      -48.7100  -26.0359   16.7558 H         1 UNK         0.0785 
    120 H120      -49.0955  -25.3448   18.3264 H         1 UNK         0.0785 
    121 H121      -49.6661  -24.9203   14.7081 H         1 UNK         0.2998 
    122 H122      -51.1646  -22.4211   12.7433 H         1 UNK         0.0697 
    123 H123      -48.1387  -22.8401   13.0101 H         1 UNK         0.0825 
    124 H124      -48.9566  -21.2969   13.2256 H         1 UNK         0.0825 
    125 H125      -48.9859  -22.0861   11.6594 H         1 UNK         0.0825 
    126 H126      -49.5442  -24.5703   11.9172 H         1 UNK         0.3029 
    127 H127      -51.8870  -27.2120   12.3408 H         1 UNK         0.0897 
    128 H128      -51.8445  -27.3920    9.9533 H         1 UNK         0.0792 
    129 H129      -50.7608  -26.0193    9.7879 H         1 UNK         0.0792 
    130 H130      -52.4356  -25.7649   10.2127 H         1 UNK         0.0792 
    131 H131      -49.4560  -27.5212   11.1316 H         1 UNK         0.3086 
    132 H132      -47.1367  -27.4734   13.6853 H         1 UNK         0.0583 
    133 H133      -47.6220  -29.3196   14.8532 H         1 UNK         0.1020 
    134 H134      -49.0280  -29.7177   13.9543 H         1 UNK         0.1020 
    135 H135      -47.9988  -32.8310   12.0797 H         1 UNK         0.0694 
    136 H136      -48.8359  -32.4246   13.5553 H         1 UNK         0.0694 
    137 H137      -47.1038  -29.1093   11.4136 H         1 UNK         0.2989 
    138 H138      -44.6765  -27.4869   10.3449 H         1 UNK         0.1055 
    139 H139      -45.6902  -29.7187   10.1170 H         1 UNK         0.0806 
    140 H140      -45.2074  -29.1457    8.5401 H         1 UNK         0.0806 
    141 H141      -46.8998  -29.1122    8.9946 H         1 UNK         0.0806 
    142 H142      -46.5972  -25.8902    8.9829 H         1 UNK         0.3061 
    143 H143      -44.0943  -24.4565    7.0585 H         1 UNK         0.0734 
    144 H144      -46.3073  -26.0403    5.6620 H         1 UNK         0.0832 
    145 H145      -45.5594  -24.5769    5.0262 H         1 UNK         0.0832 
    146 H146      -44.6023  -26.0318    5.2550 H         1 UNK         0.0832 
    147 H147      -46.9560  -24.0447    7.1424 H         1 UNK         0.3156 
    148 H148      -47.0698  -22.3125   10.1415 H         1 UNK         0.0589 
    149 H149      -46.4536  -20.6460    7.6422 H         1 UNK         0.0808 
    150 H150      -47.3258  -20.0822    9.0692 H         1 UNK         0.0808 
    151 H151      -45.6306  -20.5171    9.1899 H         1 UNK         0.0808 
    152 H152      -48.5289  -21.9686    7.6515 H         1 UNK         0.3098 
    153 H153      -51.1914  -23.7440    8.7694 H         1 UNK         0.0720 
    154 H154      -51.6925  -22.6761    6.6018 H         1 UNK         0.0791 
    155 H155      -49.9868  -22.4296    6.2658 H         1 UNK         0.0791 
    156 H156      -50.7643  -21.5777    7.6006 H         1 UNK         0.0791 
    157 H157      -51.1281  -25.6159    7.5796 H         1 UNK         0.3028 
@<TRIPOS>BOND
     1    1    2 1    
     2    1   82 1    
     3    1   83 1    
     4    1   84 1    
     5    2    3 2    
     6    2    4 am   BACKBONE|DICT|INTERRES
     7    4    5 1    
     8    4   85 1    
     9    5    6 1    
    10    5   80 1    
    11    5   86 1    
    12    6    7 1    
    13    6   87 1    
    14    6   88 1    
    15    7    8 1    
    16    8    9 1    
    17    8   89 1    
    18    8   90 1    
    19    9   10 ar   
    20    9   14 ar   
    21   10   11 ar   
    22   10   91 1    
    23   11   12 ar   
    24   11   58 1    
    25   12   13 ar   
    26   12   92 1    
    27   13   14 ar   
    28   13   15 1    
    29   14   93 1    
    30   15   16 1    
    31   15   94 1    
    32   15   95 1    
    33   16   17 1    
    34   17   18 1    
    35   17   96 1    
    36   17   97 1    
    37   18   19 1    
    38   18   22 1    
    39   18   98 1    
    40   19   20 am   BACKBONE|DICT|INTERRES
    41   19   21 2    
    42   20   99 1    
    43   20  100 1    
    44   22   23 am   BACKBONE|DICT|INTERRES
    45   22  101 1    
    46   23   24 2    
    47   23   25 1    
    48   25   26 1    
    49   25   27 1    
    50   25  102 1    
    51   26  103 1    
    52   26  104 1    
    53   26  105 1    
    54   27   28 am   BACKBONE|DICT|INTERRES
    55   27  106 1    
    56   28   29 2    
    57   28   30 1    
    58   30   31 1    
    59   30   32 1    
    60   30  107 1    
    61   31  108 1    
    62   31  109 1    
    63   31  110 1    
    64   32   33 am   BACKBONE|DICT|INTERRES
    65   32  111 1    
    66   33   34 2    
    67   33   35 1    
    68   35   36 1    
    69   35   37 1    
    70   35  112 1    
    71   36  113 1    
    72   36  114 1    
    73   36  115 1    
    74   37   38 am   BACKBONE|DICT|INTERRES
    75   37  116 1    
    76   38   39 2    
    77   38   40 1    
    78   40   41 1    
    79   40   42 1    
    80   40  117 1    
    81   41  118 1    
    82   41  119 1    
    83   41  120 1    
    84   42   43 am   BACKBONE|DICT|INTERRES
    85   42  121 1    
    86   43   44 2    
    87   43   45 1    
    88   45   46 1    
    89   45   47 1    
    90   45  122 1    
    91   46  123 1    
    92   46  124 1    
    93   46  125 1    
    94   47   48 am   BACKBONE|DICT|INTERRES
    95   47  126 1    
    96   48   49 2    
    97   48   50 1    
    98   50   51 1    
    99   50   52 1    
   100   50  127 1    
   101   51  128 1    
   102   51  129 1    
   103   51  130 1    
   104   52   53 am   BACKBONE|DICT|INTERRES
   105   52  131 1    
   106   53   54 2    
   107   53   55 1    
   108   55   56 1    
   109   55   59 1    
   110   55  132 1    
   111   56   57 1    
   112   56  133 1    
   113   56  134 1    
   114   57   58 1    
   115   58  135 1    
   116   58  136 1    
   117   59   60 am   BACKBONE|DICT|INTERRES
   118   59  137 1    
   119   60   61 2    
   120   60   62 1    
   121   62   63 1    
   122   62   64 1    
   123   62  138 1    
   124   63  139 1    
   125   63  140 1    
   126   63  141 1    
   127   64   65 am   BACKBONE|DICT|INTERRES
   128   64  142 1    
   129   65   66 2    
   130   65   67 1    
   131   67   68 1    
   132   67   69 1    
   133   67  143 1    
   134   68  144 1    
   135   68  145 1    
   136   68  146 1    
   137   69   70 am   BACKBONE|DICT|INTERRES
   138   69  147 1    
   139   70   71 2    
   140   70   72 1    
   141   72   73 1    
   142   72   74 1    
   143   72  148 1    
   144   73  149 1    
   145   73  150 1    
   146   73  151 1    
   147   74   75 am   BACKBONE|DICT|INTERRES
   148   74  152 1    
   149   75   76 2    
   150   75   77 1    
   151   77   78 1    
   152   77   79 1    
   153   77  153 1    
   154   78  154 1    
   155   78  155 1    
   156   78  156 1    
   157   79   80 am   BACKBONE|DICT|INTERRES
   158   79  157 1    
   159   80   81 2    
@<TRIPOS>SUBSTRUCTURE
     1 UNK         1 GROUP             0       ****    0 ROOT    
