@<TRIPOS>MOLECULE
3R207
157   159    1
SMALL
USER_CHARGES


@<TRIPOS>ATOM
      1 CA        -53.1841  -26.3913    8.6935 C.3       0 UNK        -0.1975 
      2 C         -52.4599  -26.8180    7.4249 C.2       0 UNK         0.4852 
      3 O         -52.8220  -26.3767    6.3341 O.2       0 UNK        -0.5216 
      4 N         -51.4329  -27.6668    7.5596 N.am      1 UNK        -0.4461 
      5 CA        -50.6538  -28.3231    6.4987 C.3       1 UNK         0.0864 
      6 C6        -51.5173  -29.2301    5.5713 C.3       14 UNK        -0.0898 
      7 S7        -50.7630  -30.8746    5.3223 S.3       14 UNK        -0.2598 
      8 C8        -51.5957  -31.8756    6.6072 C.3       14 UNK         0.0286 
      9 C9        -51.4791  -31.2475    7.9907 C.ar      14 UNK        -0.0844 
     10 C10       -50.2227  -31.0788    8.5815 C.ar      14 UNK        -0.0881 
     11 C11       -50.0966  -30.3857    9.7874 C.ar      14 UNK        -0.0643 
     12 C12       -51.2415  -29.9159   10.4349 C.ar      14 UNK        -0.0930 
     13 C13       -52.5088  -30.1288    9.8850 C.ar      14 UNK        -0.0827 
     14 C14       -52.6208  -30.7874    8.6565 C.ar      14 UNK        -0.1249 
     15 C15       -53.7513  -29.6405   10.6145 C.3       14 UNK         0.0141 
     16 S16       -54.3068  -30.8889   11.8183 S.3       14 UNK        -0.2313 
     17 C17       -55.8061  -30.2339   12.6444 C.3       14 UNK        -0.0915 
     18 CA        -56.4623  -28.9474   12.0739 C.3       13 UNK         0.0968 
     19 C         -57.9158  -28.7976   12.6019 C.2       13 UNK         0.5732 
     20 N         -58.9117  -29.1361   11.7940 N.am      13 UNK        -0.7310 
     21 O         -58.1453  -28.4249   13.7504 O.2       13 UNK        -0.5035 
     22 N         -55.6710  -27.7435   12.3662 N.am      13 UNK        -0.4233 
     23 C         -55.8295  -26.5778   11.7241 C.2       13 UNK         0.4989 
     24 O         -56.5998  -26.4330   10.7733 O.2       13 UNK        -0.4996 
     25 CA        -54.9564  -25.3859   12.1663 C.3       12 UNK         0.0216 
     26 CB        -55.6310  -24.0226   11.9050 C.3       12 UNK        -0.1964 
     27 N         -54.4555  -25.4642   13.5424 N.am      12 UNK        -0.4276 
     28 C         -55.1509  -25.4623   14.6883 C.2       12 UNK         0.5020 
     29 O         -56.3800  -25.4049   14.7492 O.2       12 UNK        -0.5489 
     30 CA        -54.3096  -25.5341   15.9819 C.3       11 UNK         0.0294 
     31 CB        -55.1526  -25.8537   17.2349 C.3       11 UNK        -0.2019 
     32 N         -53.1660  -26.4514   15.8716 N.am      11 UNK        -0.4493 
     33 C         -53.2071  -27.7674   15.6122 C.2       11 UNK         0.4932 
     34 O         -54.2541  -28.4005   15.4753 O.2       11 UNK        -0.5029 
     35 CA        -51.8708  -28.5111   15.4243 C.3       10 UNK         0.0280 
     36 CB        -51.8118  -29.1370   14.0258 C.3       10 UNK        -0.1976 
     37 N         -50.6863  -27.6681   15.5987 N.am      10 UNK        -0.4242 
     38 C         -50.1000  -27.4039   16.7732 C.2       10 UNK         0.5072 
     39 O         -50.5010  -27.8367   17.8543 O.2       10 UNK        -0.5224 
     40 CA        -48.8637  -26.4870   16.7389 C.3       9 UNK         0.0343 
     41 CB        -47.5985  -27.2966   16.4132 C.3       9 UNK        -0.2003 
     42 N         -48.9916  -25.3738   15.7933 N.am      9 UNK        -0.4272 
     43 C         -49.9094  -24.3999   15.8909 C.2       9 UNK         0.4988 
     44 O         -50.7376  -24.3241   16.7991 O.2       9 UNK        -0.5108 
     45 CA        -49.9386  -23.3536   14.7656 C.3       8 UNK         0.0248 
     46 CB        -48.8151  -22.3219   14.9551 C.3       8 UNK        -0.2001 
     47 N         -49.8568  -23.9470   13.4282 N.am      8 UNK        -0.4140 
     48 C         -50.7523  -24.8101   12.9267 C.2       8 UNK         0.5028 
     49 O         -51.7572  -25.1804   13.5295 O.2       8 UNK        -0.5428 
     50 CA        -50.4614  -25.4124   11.5453 C.3       7 UNK         0.0264 
     51 CB        -50.7532  -24.4018   10.4260 C.3       7 UNK        -0.1988 
     52 N         -49.0919  -25.9082   11.4293 N.am      7 UNK        -0.4454 
     53 C         -48.5605  -26.8692   12.2019 C.2       7 UNK         0.5027 
     54 O         -49.1828  -27.4666   13.0813 O.2       7 UNK        -0.5083 
     55 CA        -47.0618  -27.1743   11.9958 C.3       6 UNK         0.0844 
     56 C56       -46.7159  -28.2157   10.8807 C.3       14 UNK        -0.0967 
     57 S57       -47.9983  -28.6148    9.6351 S.3       14 UNK        -0.2604 
     58 C58       -48.7241  -30.1108   10.3755 C.3       14 UNK         0.0134 
     59 N         -46.2985  -25.9296   11.8646 N.am      6 UNK        -0.4116 
     60 C         -46.1067  -25.0528   12.8625 C.2       5 UNK         0.5034 
     61 O         -46.5299  -25.2077   14.0089 O.2       5 UNK        -0.5045 
     62 CA        -45.3426  -23.7666   12.5107 C.3       5 UNK         0.0224 
     63 CB        -43.8278  -24.0241   12.4722 C.3       5 UNK        -0.1978 
     64 N         -45.7772  -23.1789   11.2407 N.am      5 UNK        -0.4737 
     65 C         -46.9969  -22.6648   11.0310 C.2       4 UNK         0.5027 
     66 O         -47.8768  -22.6205   11.8880 O.2       4 UNK        -0.5211 
     67 CA        -47.3014  -22.1433    9.6188 C.3       4 UNK         0.0297 
     68 CB        -46.8217  -20.6913    9.4672 C.3       4 UNK        -0.1993 
     69 N         -46.7386  -22.9636    8.5418 N.am      4 UNK        -0.4486 
     70 C         -46.9982  -24.2629    8.3452 C.2       3 UNK         0.4961 
     71 O         -47.6719  -24.9593    9.1076 O.2       3 UNK        -0.5105 
     72 CA        -46.4091  -24.8892    7.0731 C.3       3 UNK         0.0299 
     73 CB        -45.5510  -26.1192    7.4114 C.3       3 UNK        -0.1972 
     74 N         -47.4791  -25.2824    6.1588 N.am      3 UNK        -0.4305 
     75 C         -48.3030  -24.4484    5.5115 C.2       2 UNK         0.5006 
     76 O         -48.1808  -23.2228    5.5298 O.2       2 UNK        -0.5106 
     77 CA        -49.4678  -25.0677    4.7135 C.3       2 UNK         0.0296 
     78 CB        -49.0192  -25.4637    3.2931 C.3       2 UNK        -0.2002 
     79 N         -50.1621  -26.1747    5.3901 N.am      2 UNK        -0.4032 
     80 C         -49.7060  -27.3922    5.7151 C.2       1 UNK         0.5000 
     81 O         -48.5639  -27.7796    5.4608 O.2       1 UNK        -0.5238 
     82 H82       -52.6963  -26.7749    9.5884 H         1 UNK         0.0889 
     83 H83       -54.2090  -26.7618    8.6805 H         1 UNK         0.0889 
     84 H84       -53.2178  -25.3044    8.7602 H         1 UNK         0.0889 
     85 H85       -51.1777  -27.9712    8.4892 H         1 UNK         0.3028 
     86 H86       -49.9725  -28.9578    7.0621 H         1 UNK         0.0864 
     87 H87       -51.6871  -28.7667    4.5975 H         1 UNK         0.0720 
     88 H88       -52.5138  -29.3812    5.9891 H         1 UNK         0.0720 
     89 H89       -51.1534  -32.8725    6.6256 H         1 UNK         0.0814 
     90 H90       -52.6422  -32.0086    6.3285 H         1 UNK         0.0814 
     91 H91       -49.3367  -31.4260    8.0672 H         1 UNK         0.1469 
     92 H92       -51.1397  -29.3830   11.3678 H         1 UNK         0.1381 
     93 H93       -53.5968  -30.9273    8.2124 H         1 UNK         0.1206 
     94 H94       -54.5440  -29.4267    9.8969 H         1 UNK         0.0813 
     95 H95       -53.5230  -28.7080   11.1299 H         1 UNK         0.0813 
     96 H96       -55.5689  -30.0923   13.7003 H         1 UNK         0.0638 
     97 H97       -56.5245  -31.0559   12.6201 H         1 UNK         0.0638 
     98 H98       -56.5236  -29.0587   10.9903 H         1 UNK         0.0568 
     99 H99       -59.8595  -29.0614   12.1288 H         1 UNK         0.3450 
    100 H100      -58.7370  -29.4533   10.8532 H         1 UNK         0.3450 
    101 H101      -55.0834  -27.7804   13.1875 H         1 UNK         0.2987 
    102 H102      -54.0677  -25.4294   11.5354 H         1 UNK         0.0766 
    103 H103      -54.9809  -23.1970   12.1946 H         1 UNK         0.0798 
    104 H104      -56.5665  -23.9233   12.4564 H         1 UNK         0.0798 
    105 H105      -55.8620  -23.8931   10.8470 H         1 UNK         0.0798 
    106 H106      -53.4344  -25.4685   13.6226 H         1 UNK         0.3198 
    107 H107      -53.8831  -24.5389   16.1178 H         1 UNK         0.0843 
    108 H108      -55.6609  -26.8144   17.1470 H         1 UNK         0.0831 
    109 H109      -55.9199  -25.0949   17.3925 H         1 UNK         0.0831 
    110 H110      -54.5349  -25.8804   18.1325 H         1 UNK         0.0831 
    111 H111      -52.2537  -26.0142   15.9143 H         1 UNK         0.3133 
    112 H112      -51.8414  -29.3200   16.1571 H         1 UNK         0.0566 
    113 H113      -50.8651  -29.6501   13.8554 H         1 UNK         0.0814 
    114 H114      -52.6042  -29.8734   13.8989 H         1 UNK         0.0814 
    115 H115      -51.9330  -28.3787   13.2515 H         1 UNK         0.0814 
    116 H116      -50.2547  -27.3150   14.7483 H         1 UNK         0.3091 
    117 H117      -48.7445  -26.0587   17.7363 H         1 UNK         0.0702 
    118 H118      -46.7046  -26.6754   16.4732 H         1 UNK         0.0785 
    119 H119      -47.6403  -27.7249   15.4112 H         1 UNK         0.0785 
    120 H120      -47.4691  -28.1203   17.1165 H         1 UNK         0.0785 
    121 H121      -48.3249  -25.3464   15.0281 H         1 UNK         0.2998 
    122 H122      -50.8939  -22.8286   14.8301 H         1 UNK         0.0697 
    123 H123      -47.8287  -22.7729   14.8407 H         1 UNK         0.0825 
    124 H124      -48.8579  -21.8729   15.9483 H         1 UNK         0.0825 
    125 H125      -48.8967  -21.5117   14.2304 H         1 UNK         0.0825 
    126 H126      -49.0749  -23.6504   12.8464 H         1 UNK         0.3029 
    127 H127      -51.1255  -26.2690   11.4160 H         1 UNK         0.0897 
    128 H128      -50.1143  -23.5223   10.5010 H         1 UNK         0.0792 
    129 H129      -51.7869  -24.0568   10.4708 H         1 UNK         0.0792 
    130 H130      -50.5949  -24.8426    9.4414 H         1 UNK         0.0792 
    131 H131      -48.5190  -25.5069   10.6886 H         1 UNK         0.3086 
    132 H132      -46.7283  -27.6232   12.9346 H         1 UNK         0.0583 
    133 H133      -45.8242  -27.9046   10.3344 H         1 UNK         0.1020 
    134 H134      -46.4184  -29.1515   11.3571 H         1 UNK         0.1020 
    135 H135      -48.0609  -30.9606   10.2069 H         1 UNK         0.0694 
    136 H136      -48.8029  -29.9861   11.4570 H         1 UNK         0.0694 
    137 H137      -45.9846  -25.6839   10.9375 H         1 UNK         0.2989 
    138 H138      -45.5453  -23.0414   13.3024 H         1 UNK         0.1055 
    139 H139      -43.4815  -24.4511   13.4146 H         1 UNK         0.0806 
    140 H140      -43.2726  -23.0989   12.3158 H         1 UNK         0.0806 
    141 H141      -43.5518  -24.7195   11.6785 H         1 UNK         0.0806 
    142 H142      -45.1153  -23.1734   10.4780 H         1 UNK         0.3061 
    143 H143      -48.3860  -22.1537    9.4958 H         1 UNK         0.0734 
    144 H144      -47.1296  -20.2684    8.5108 H         1 UNK         0.0832 
    145 H145      -47.2441  -20.0581   10.2490 H         1 UNK         0.0832 
    146 H146      -45.7360  -20.6131    9.5366 H         1 UNK         0.0832 
    147 H147      -46.1895  -22.4772    7.8473 H         1 UNK         0.3156 
    148 H148      -45.7754  -24.1580    6.5670 H         1 UNK         0.0589 
    149 H149      -46.1434  -26.9090    7.8750 H         1 UNK         0.0808 
    150 H150      -45.0852  -26.5346    6.5177 H         1 UNK         0.0808 
    151 H151      -44.7499  -25.8603    8.1047 H         1 UNK         0.0808 
    152 H152      -47.6688  -26.2778    6.0683 H         1 UNK         0.3098 
    153 H153      -50.2187  -24.2829    4.6081 H         1 UNK         0.0720 
    154 H154      -49.8570  -25.8329    2.7017 H         1 UNK         0.0791 
    155 H155      -48.2511  -26.2375    3.3062 H         1 UNK         0.0791 
    156 H156      -48.6028  -24.6052    2.7646 H         1 UNK         0.0791 
    157 H157      -51.1249  -25.9855    5.6626 H         1 UNK         0.3028 
@<TRIPOS>BOND
     1    1    2 1    
     2    1   82 1    
     3    1   83 1    
     4    1   84 1    
     5    2    3 2    
     6    2    4 am   BACKBONE|DICT|INTERRES
     7    4    5 1    
     8    4   85 1    
     9    5    6 1    
    10    5   80 1    
    11    5   86 1    
    12    6    7 1    
    13    6   87 1    
    14    6   88 1    
    15    7    8 1    
    16    8    9 1    
    17    8   89 1    
    18    8   90 1    
    19    9   10 ar   
    20    9   14 ar   
    21   10   11 ar   
    22   10   91 1    
    23   11   12 ar   
    24   11   58 1    
    25   12   13 ar   
    26   12   92 1    
    27   13   14 ar   
    28   13   15 1    
    29   14   93 1    
    30   15   16 1    
    31   15   94 1    
    32   15   95 1    
    33   16   17 1    
    34   17   18 1    
    35   17   96 1    
    36   17   97 1    
    37   18   19 1    
    38   18   22 1    
    39   18   98 1    
    40   19   20 am   BACKBONE|DICT|INTERRES
    41   19   21 2    
    42   20   99 1    
    43   20  100 1    
    44   22   23 am   BACKBONE|DICT|INTERRES
    45   22  101 1    
    46   23   24 2    
    47   23   25 1    
    48   25   26 1    
    49   25   27 1    
    50   25  102 1    
    51   26  103 1    
    52   26  104 1    
    53   26  105 1    
    54   27   28 am   BACKBONE|DICT|INTERRES
    55   27  106 1    
    56   28   29 2    
    57   28   30 1    
    58   30   31 1    
    59   30   32 1    
    60   30  107 1    
    61   31  108 1    
    62   31  109 1    
    63   31  110 1    
    64   32   33 am   BACKBONE|DICT|INTERRES
    65   32  111 1    
    66   33   34 2    
    67   33   35 1    
    68   35   36 1    
    69   35   37 1    
    70   35  112 1    
    71   36  113 1    
    72   36  114 1    
    73   36  115 1    
    74   37   38 am   BACKBONE|DICT|INTERRES
    75   37  116 1    
    76   38   39 2    
    77   38   40 1    
    78   40   41 1    
    79   40   42 1    
    80   40  117 1    
    81   41  118 1    
    82   41  119 1    
    83   41  120 1    
    84   42   43 am   BACKBONE|DICT|INTERRES
    85   42  121 1    
    86   43   44 2    
    87   43   45 1    
    88   45   46 1    
    89   45   47 1    
    90   45  122 1    
    91   46  123 1    
    92   46  124 1    
    93   46  125 1    
    94   47   48 am   BACKBONE|DICT|INTERRES
    95   47  126 1    
    96   48   49 2    
    97   48   50 1    
    98   50   51 1    
    99   50   52 1    
   100   50  127 1    
   101   51  128 1    
   102   51  129 1    
   103   51  130 1    
   104   52   53 am   BACKBONE|DICT|INTERRES
   105   52  131 1    
   106   53   54 2    
   107   53   55 1    
   108   55   56 1    
   109   55   59 1    
   110   55  132 1    
   111   56   57 1    
   112   56  133 1    
   113   56  134 1    
   114   57   58 1    
   115   58  135 1    
   116   58  136 1    
   117   59   60 am   BACKBONE|DICT|INTERRES
   118   59  137 1    
   119   60   61 2    
   120   60   62 1    
   121   62   63 1    
   122   62   64 1    
   123   62  138 1    
   124   63  139 1    
   125   63  140 1    
   126   63  141 1    
   127   64   65 am   BACKBONE|DICT|INTERRES
   128   64  142 1    
   129   65   66 2    
   130   65   67 1    
   131   67   68 1    
   132   67   69 1    
   133   67  143 1    
   134   68  144 1    
   135   68  145 1    
   136   68  146 1    
   137   69   70 am   BACKBONE|DICT|INTERRES
   138   69  147 1    
   139   70   71 2    
   140   70   72 1    
   141   72   73 1    
   142   72   74 1    
   143   72  148 1    
   144   73  149 1    
   145   73  150 1    
   146   73  151 1    
   147   74   75 am   BACKBONE|DICT|INTERRES
   148   74  152 1    
   149   75   76 2    
   150   75   77 1    
   151   77   78 1    
   152   77   79 1    
   153   77  153 1    
   154   78  154 1    
   155   78  155 1    
   156   78  156 1    
   157   79   80 am   BACKBONE|DICT|INTERRES
   158   79  157 1    
   159   80   81 2    
@<TRIPOS>SUBSTRUCTURE
     1 UNK         1 GROUP             0       ****    0 ROOT    
