@<TRIPOS>MOLECULE
3R207
157   159    1
SMALL
USER_CHARGES


@<TRIPOS>ATOM
      1 CA        -46.6977  -26.8858    1.8315 C.3       0 UNK        -0.1975 
      2 C         -48.1257  -26.8488    2.3554 C.2       0 UNK         0.4852 
      3 O         -48.9445  -26.0841    1.8441 O.2       0 UNK        -0.5216 
      4 N         -48.4300  -27.6696    3.3709 N.am      1 UNK        -0.4461 
      5 CA        -49.7490  -27.7603    4.0109 C.3       1 UNK         0.0864 
      6 C6        -49.8536  -29.0363    4.8883 C.3       14 UNK        -0.0898 
      7 S7        -51.5776  -29.5561    5.1808 S.3       14 UNK        -0.2598 
      8 C8        -51.3397  -31.1536    6.0200 C.3       14 UNK         0.0286 
      9 C9        -50.8747  -30.9809    7.4591 C.ar      14 UNK        -0.0844 
     10 C10       -49.5196  -31.0950    7.7820 C.ar      14 UNK        -0.0881 
     11 C11       -49.0928  -30.9466    9.1039 C.ar      14 UNK        -0.0643 
     12 C12       -50.0353  -30.7012   10.1063 C.ar      14 UNK        -0.0930 
     13 C13       -51.3969  -30.5954    9.8061 C.ar      14 UNK        -0.0827 
     14 C14       -51.8061  -30.7277    8.4716 C.ar      14 UNK        -0.1249 
     15 C15       -52.3675  -30.3236   10.9579 C.3       14 UNK         0.0141 
     16 S16       -54.1306  -30.6469   10.6099 S.3       14 UNK        -0.2313 
     17 C17       -54.8613  -30.3783   12.2614 C.3       14 UNK        -0.0915 
     18 CA        -55.9232  -29.2482   12.2851 C.3       13 UNK         0.0968 
     19 C         -56.5953  -29.1727   13.6845 C.2       13 UNK         0.5732 
     20 N         -57.7240  -29.8444   13.8684 N.am      13 UNK        -0.7310 
     21 O         -56.0789  -28.5542   14.6128 O.2       13 UNK        -0.5035 
     22 N         -55.3536  -27.9660   11.8460 N.am      13 UNK        -0.4233 
     23 C         -56.0399  -26.8312   11.6696 C.2       13 UNK         0.4989 
     24 O         -57.2558  -26.7160   11.8393 O.2       13 UNK        -0.4996 
     25 CA        -55.2337  -25.6191   11.1784 C.3       12 UNK         0.0216 
     26 CB        -55.7220  -25.1543    9.7959 C.3       12 UNK        -0.1964 
     27 N         -55.3171  -24.5057   12.1228 N.am      12 UNK        -0.4276 
     28 C         -54.6872  -24.4834   13.3017 C.2       12 UNK         0.5020 
     29 O         -53.9895  -25.4075   13.7279 O.2       12 UNK        -0.5489 
     30 CA        -54.8101  -23.2034   14.1326 C.3       11 UNK         0.0294 
     31 CB        -55.9016  -23.3334   15.2079 C.3       11 UNK        -0.2019 
     32 N         -53.5096  -23.0019   14.7554 N.am      11 UNK        -0.4493 
     33 C         -52.9528  -21.8390   15.1075 C.2       11 UNK         0.4932 
     34 O         -53.5339  -20.7561   15.0270 O.2       11 UNK        -0.5029 
     35 CA        -51.4822  -21.8865   15.5796 C.3       10 UNK         0.0280 
     36 CB        -51.1783  -20.8521   16.6843 C.3       10 UNK        -0.1976 
     37 N         -51.0214  -23.2321   15.9552 N.am      10 UNK        -0.4242 
     38 C         -51.4450  -23.9732   16.9936 C.2       10 UNK         0.5072 
     39 O         -52.2608  -23.5848   17.8302 O.2       10 UNK        -0.5224 
     40 CA        -50.9022  -25.4065   17.1077 C.3       9 UNK         0.0343 
     41 CB        -51.9687  -26.4199   16.6585 C.3       9 UNK        -0.2003 
     42 N         -49.6970  -25.6205   16.3102 N.am      9 UNK        -0.4272 
     43 C         -48.4413  -25.4149   16.7272 C.2       9 UNK         0.4988 
     44 O         -48.1540  -24.9805   17.8440 O.2       9 UNK        -0.5108 
     45 CA        -47.3246  -25.7536   15.7175 C.3       8 UNK         0.0248 
     46 CB        -45.9900  -26.1267   16.3961 C.3       8 UNK        -0.2001 
     47 N         -47.7273  -26.7744   14.7397 N.am      8 UNK        -0.4140 
     48 C         -48.0825  -28.0480   14.9744 C.2       8 UNK         0.5028 
     49 O         -48.0296  -28.5896   16.0789 O.2       8 UNK        -0.5428 
     50 CA        -48.6460  -28.8421   13.7821 C.3       7 UNK         0.0264 
     51 CB        -50.1778  -28.9220   13.8924 C.3       7 UNK        -0.1988 
     52 N         -48.2851  -28.2640   12.4829 N.am      7 UNK        -0.4454 
     53 C         -47.0736  -28.3928   11.9187 C.2       7 UNK         0.5027 
     54 O         -46.1719  -29.0840   12.3948 O.2       7 UNK        -0.5083 
     55 CA        -46.8068  -27.5737   10.6382 C.3       6 UNK         0.0844 
     56 C56       -47.4690  -28.2044    9.3905 C.3       14 UNK        -0.0967 
     57 S57       -46.6195  -29.6904    8.7591 S.3       14 UNK        -0.2604 
     58 C58       -47.6147  -31.0509    9.4567 C.3       14 UNK         0.0134 
     59 N         -47.2189  -26.1770   10.7920 N.am      6 UNK        -0.4116 
     60 C         -46.7331  -25.2963   11.6771 C.2       5 UNK         0.5034 
     61 O         -45.8373  -25.5470   12.4813 O.2       5 UNK        -0.5045 
     62 CA        -47.3791  -23.9040   11.6862 C.3       5 UNK         0.0224 
     63 CB        -46.6984  -22.9890   10.6554 C.3       5 UNK        -0.1978 
     64 N         -48.8115  -23.9759   11.3959 N.am      5 UNK        -0.4737 
     65 C         -49.7692  -24.1604   12.3127 C.2       4 UNK         0.5027 
     66 O         -49.5630  -24.2567   13.5244 O.2       4 UNK        -0.5211 
     67 CA        -51.2088  -24.2605   11.7833 C.3       4 UNK         0.0297 
     68 CB        -51.8016  -22.8563   11.5862 C.3       4 UNK        -0.1993 
     69 N         -51.3361  -25.0070   10.5297 N.am      4 UNK        -0.4486 
     70 C         -51.0106  -26.2947   10.3574 C.2       3 UNK         0.4961 
     71 O         -50.5425  -27.0161   11.2379 O.2       3 UNK        -0.5105 
     72 CA        -51.1975  -26.8603    8.9403 C.3       3 UNK         0.0299 
     73 CB        -52.6686  -27.2281    8.6928 C.3       3 UNK        -0.1972 
     74 N         -50.7353  -25.9978    7.8460 N.am      3 UNK        -0.4305 
     75 C         -49.5807  -25.3210    7.7601 C.2       2 UNK         0.5006 
     76 O         -48.7863  -25.1882    8.6916 O.2       2 UNK        -0.5106 
     77 CA        -49.2361  -24.7471    6.3727 C.3       2 UNK         0.0296 
     78 CB        -47.9458  -23.9056    6.3861 C.3       2 UNK        -0.2002 
     79 N         -49.0868  -25.8354    5.4027 N.am      2 UNK        -0.4032 
     80 C         -50.1024  -26.4980    4.8287 C.2       1 UNK         0.5000 
     81 O         -51.2820  -26.1642    4.9635 O.2       1 UNK        -0.5238 
     82 H82       -46.2355  -25.9042    1.9329 H         1 UNK         0.0889 
     83 H83       -46.6926  -27.1575    0.7762 H         1 UNK         0.0889 
     84 H84       -46.0832  -27.6072    2.3698 H         1 UNK         0.0889 
     85 H85       -47.7175  -28.2856    3.7370 H         1 UNK         0.3028 
     86 H86       -50.4849  -27.8364    3.2069 H         1 UNK         0.0864 
     87 H87       -49.3518  -29.8689    4.3924 H         1 UNK         0.0720 
     88 H88       -49.3453  -28.9038    5.8458 H         1 UNK         0.0720 
     89 H89       -50.6344  -31.7655    5.4554 H         1 UNK         0.0814 
     90 H90       -52.2852  -31.6978    6.0090 H         1 UNK         0.0814 
     91 H91       -48.7926  -31.2889    7.0052 H         1 UNK         0.1469 
     92 H92       -49.7043  -30.5883   11.1294 H         1 UNK         0.1381 
     93 H93       -52.8492  -30.6346    8.2058 H         1 UNK         0.1206 
     94 H94       -52.2515  -29.2873   11.2767 H         1 UNK         0.0813 
     95 H95       -52.0802  -30.9470   11.8060 H         1 UNK         0.0813 
     96 H96       -55.3103  -31.3244   12.5698 H         1 UNK         0.0638 
     97 H97       -54.0719  -30.1705   12.9865 H         1 UNK         0.0638 
     98 H98       -56.6984  -29.5039   11.5600 H         1 UNK         0.0568 
     99 H99       -58.1492  -30.3675   13.1187 H         1 UNK         0.3450 
    100 H100      -58.1643  -29.8211   14.7747 H         1 UNK         0.3450 
    101 H101      -54.3534  -27.9546   11.7254 H         1 UNK         0.2987 
    102 H102      -54.1839  -25.9055   11.0839 H         1 UNK         0.0766 
    103 H103      -55.0957  -24.3535    9.4020 H         1 UNK         0.0798 
    104 H104      -56.7500  -24.7912    9.8306 H         1 UNK         0.0798 
    105 H105      -55.6939  -25.9729    9.0755 H         1 UNK         0.0798 
    106 H106      -55.9071  -23.7291   11.8602 H         1 UNK         0.3198 
    107 H107      -55.0336  -22.3616   13.4733 H         1 UNK         0.0843 
    108 H108      -55.9727  -22.4287   15.8119 H         1 UNK         0.0831 
    109 H109      -55.7048  -24.1698   15.8801 H         1 UNK         0.0831 
    110 H110      -56.8793  -23.5003   14.7543 H         1 UNK         0.0831 
    111 H111      -52.9646  -23.8528   14.8215 H         1 UNK         0.3133 
    112 H112      -50.8839  -21.6100   14.7106 H         1 UNK         0.0566 
    113 H113      -50.1366  -20.9036   17.0011 H         1 UNK         0.0814 
    114 H114      -51.3570  -19.8369   16.3281 H         1 UNK         0.0814 
    115 H115      -51.8054  -20.9986   17.5640 H         1 UNK         0.0814 
    116 H116      -50.3652  -23.6576   15.3059 H         1 UNK         0.3091 
    117 H117      -50.6770  -25.5913   18.1603 H         1 UNK         0.0702 
    118 H118      -51.6270  -27.4446   16.8061 H         1 UNK         0.0785 
    119 H119      -52.2231  -26.3018   15.6045 H         1 UNK         0.0785 
    120 H120      -52.8899  -26.3009   17.2307 H         1 UNK         0.0785 
    121 H121      -49.8292  -25.9295   15.3576 H         1 UNK         0.2998 
    122 H122      -47.1562  -24.8414   15.1432 H         1 UNK         0.0697 
    123 H123      -46.0946  -26.9944   17.0480 H         1 UNK         0.0825 
    124 H124      -45.6187  -25.3041   17.0083 H         1 UNK         0.0825 
    125 H125      -45.2211  -26.3515   15.6567 H         1 UNK         0.0825 
    126 H126      -47.8011  -26.4465   13.7875 H         1 UNK         0.3029 
    127 H127      -48.2439  -29.8560   13.8416 H         1 UNK         0.0897 
    128 H128      -50.5968  -29.5482   13.1083 H         1 UNK         0.0792 
    129 H129      -50.4813  -29.3560   14.8462 H         1 UNK         0.0792 
    130 H130      -50.6432  -27.9380   13.8197 H         1 UNK         0.0792 
    131 H131      -49.0046  -27.7143   12.0138 H         1 UNK         0.3086 
    132 H132      -45.7266  -27.5579   10.4782 H         1 UNK         0.0583 
    133 H133      -48.5257  -28.3981    9.5655 H         1 UNK         0.1020 
    134 H134      -47.4437  -27.4889    8.5677 H         1 UNK         0.1020 
    135 H135      -47.2253  -31.9981    9.0810 H         1 UNK         0.0694 
    136 H136      -47.4741  -31.0742   10.5383 H         1 UNK         0.0694 
    137 H137      -47.9168  -25.8430   10.1307 H         1 UNK         0.2989 
    138 H138      -47.2315  -23.4719   12.6790 H         1 UNK         0.1055 
    139 H139      -45.6292  -22.9042   10.8550 H         1 UNK         0.0806 
    140 H140      -47.1139  -21.9817   10.6859 H         1 UNK         0.0806 
    141 H141      -46.8119  -23.3672    9.6384 H         1 UNK         0.0806 
    142 H142      -49.0735  -23.9867   10.4169 H         1 UNK         0.3061 
    143 H143      -51.7882  -24.7873   12.5412 H         1 UNK         0.0734 
    144 H144      -52.8631  -22.9012   11.3439 H         1 UNK         0.0832 
    145 H145      -51.7002  -22.2542   12.4879 H         1 UNK         0.0832 
    146 H146      -51.2985  -22.3149   10.7841 H         1 UNK         0.0832 
    147 H147      -51.6822  -24.4983    9.7295 H         1 UNK         0.3156 
    148 H148      -50.6167  -27.7812    8.8805 H         1 UNK         0.0589 
    149 H149      -53.2938  -26.3410    8.5956 H         1 UNK         0.0808 
    150 H150      -52.7775  -27.8142    7.7796 H         1 UNK         0.0808 
    151 H151      -53.0733  -27.8294    9.5064 H         1 UNK         0.0808 
    152 H152      -51.2782  -26.0501    6.9893 H         1 UNK         0.3098 
    153 H153      -50.0588  -24.0975    6.0663 H         1 UNK         0.0720 
    154 H154      -47.7395  -23.4810    5.4035 H         1 UNK         0.0791 
    155 H155      -47.0787  -24.4959    6.6857 H         1 UNK         0.0791 
    156 H156      -48.0305  -23.0735    7.0865 H         1 UNK         0.0791 
    157 H157      -48.1501  -26.1802    5.2520 H         1 UNK         0.3028 
@<TRIPOS>BOND
     1    1    2 1    
     2    1   82 1    
     3    1   83 1    
     4    1   84 1    
     5    2    3 2    
     6    2    4 am   BACKBONE|DICT|INTERRES
     7    4    5 1    
     8    4   85 1    
     9    5    6 1    
    10    5   80 1    
    11    5   86 1    
    12    6    7 1    
    13    6   87 1    
    14    6   88 1    
    15    7    8 1    
    16    8    9 1    
    17    8   89 1    
    18    8   90 1    
    19    9   10 ar   
    20    9   14 ar   
    21   10   11 ar   
    22   10   91 1    
    23   11   12 ar   
    24   11   58 1    
    25   12   13 ar   
    26   12   92 1    
    27   13   14 ar   
    28   13   15 1    
    29   14   93 1    
    30   15   16 1    
    31   15   94 1    
    32   15   95 1    
    33   16   17 1    
    34   17   18 1    
    35   17   96 1    
    36   17   97 1    
    37   18   19 1    
    38   18   22 1    
    39   18   98 1    
    40   19   20 am   BACKBONE|DICT|INTERRES
    41   19   21 2    
    42   20   99 1    
    43   20  100 1    
    44   22   23 am   BACKBONE|DICT|INTERRES
    45   22  101 1    
    46   23   24 2    
    47   23   25 1    
    48   25   26 1    
    49   25   27 1    
    50   25  102 1    
    51   26  103 1    
    52   26  104 1    
    53   26  105 1    
    54   27   28 am   BACKBONE|DICT|INTERRES
    55   27  106 1    
    56   28   29 2    
    57   28   30 1    
    58   30   31 1    
    59   30   32 1    
    60   30  107 1    
    61   31  108 1    
    62   31  109 1    
    63   31  110 1    
    64   32   33 am   BACKBONE|DICT|INTERRES
    65   32  111 1    
    66   33   34 2    
    67   33   35 1    
    68   35   36 1    
    69   35   37 1    
    70   35  112 1    
    71   36  113 1    
    72   36  114 1    
    73   36  115 1    
    74   37   38 am   BACKBONE|DICT|INTERRES
    75   37  116 1    
    76   38   39 2    
    77   38   40 1    
    78   40   41 1    
    79   40   42 1    
    80   40  117 1    
    81   41  118 1    
    82   41  119 1    
    83   41  120 1    
    84   42   43 am   BACKBONE|DICT|INTERRES
    85   42  121 1    
    86   43   44 2    
    87   43   45 1    
    88   45   46 1    
    89   45   47 1    
    90   45  122 1    
    91   46  123 1    
    92   46  124 1    
    93   46  125 1    
    94   47   48 am   BACKBONE|DICT|INTERRES
    95   47  126 1    
    96   48   49 2    
    97   48   50 1    
    98   50   51 1    
    99   50   52 1    
   100   50  127 1    
   101   51  128 1    
   102   51  129 1    
   103   51  130 1    
   104   52   53 am   BACKBONE|DICT|INTERRES
   105   52  131 1    
   106   53   54 2    
   107   53   55 1    
   108   55   56 1    
   109   55   59 1    
   110   55  132 1    
   111   56   57 1    
   112   56  133 1    
   113   56  134 1    
   114   57   58 1    
   115   58  135 1    
   116   58  136 1    
   117   59   60 am   BACKBONE|DICT|INTERRES
   118   59  137 1    
   119   60   61 2    
   120   60   62 1    
   121   62   63 1    
   122   62   64 1    
   123   62  138 1    
   124   63  139 1    
   125   63  140 1    
   126   63  141 1    
   127   64   65 am   BACKBONE|DICT|INTERRES
   128   64  142 1    
   129   65   66 2    
   130   65   67 1    
   131   67   68 1    
   132   67   69 1    
   133   67  143 1    
   134   68  144 1    
   135   68  145 1    
   136   68  146 1    
   137   69   70 am   BACKBONE|DICT|INTERRES
   138   69  147 1    
   139   70   71 2    
   140   70   72 1    
   141   72   73 1    
   142   72   74 1    
   143   72  148 1    
   144   73  149 1    
   145   73  150 1    
   146   73  151 1    
   147   74   75 am   BACKBONE|DICT|INTERRES
   148   74  152 1    
   149   75   76 2    
   150   75   77 1    
   151   77   78 1    
   152   77   79 1    
   153   77  153 1    
   154   78  154 1    
   155   78  155 1    
   156   78  156 1    
   157   79   80 am   BACKBONE|DICT|INTERRES
   158   79  157 1    
   159   80   81 2    
@<TRIPOS>SUBSTRUCTURE
     1 UNK         1 GROUP             0       ****    0 ROOT    
