@<TRIPOS>MOLECULE
3R207
157   159    1
SMALL
USER_CHARGES


@<TRIPOS>ATOM
      1 CA        -51.9268  -22.4456    9.3394 C.3       0 UNK        -0.1975 
      2 C         -51.0158  -23.6332    9.0739 C.2       0 UNK         0.4852 
      3 O         -50.1971  -23.9780    9.9261 O.2       0 UNK        -0.5216 
      4 N         -51.1726  -24.2877    7.9156 N.am      1 UNK        -0.4461 
      5 CA        -50.3509  -25.4242    7.4781 C.3       1 UNK         0.0864 
      6 C6        -50.9551  -26.1424    6.2441 C.3       14 UNK        -0.0898 
      7 S7        -52.6806  -26.6860    6.5180 S.3       14 UNK        -0.2598 
      8 C8        -52.6103  -28.4805    6.2078 C.3       14 UNK         0.0286 
      9 C9        -52.1038  -29.2524    7.4174 C.ar      14 UNK        -0.0844 
     10 C10       -50.7341  -29.4566    7.5929 C.ar      14 UNK        -0.0881 
     11 C11       -50.2540  -30.1534    8.7038 C.ar      14 UNK        -0.0643 
     12 C12       -51.1570  -30.6709    9.6366 C.ar      14 UNK        -0.0930 
     13 C13       -52.5341  -30.4913    9.4636 C.ar      14 UNK        -0.0827 
     14 C14       -53.0014  -29.7777    8.3539 C.ar      14 UNK        -0.1249 
     15 C15       -53.5109  -31.0602   10.4835 C.3       14 UNK         0.0141 
     16 S16       -53.5487  -30.0135   11.9635 S.3       14 UNK        -0.2313 
     17 C17       -54.7870  -30.8263   13.0278 C.3       14 UNK        -0.0915 
     18 CA        -56.1576  -30.0957   13.0424 C.3       13 UNK         0.0968 
     19 C         -57.1415  -30.7689   14.0434 C.2       13 UNK         0.5732 
     20 N         -57.6219  -30.0822   15.0743 N.am      13 UNK        -0.7310 
     21 O         -57.4825  -31.9373   13.8747 O.2       13 UNK        -0.5035 
     22 N         -56.0107  -28.6420   13.2197 N.am      13 UNK        -0.4233 
     23 C         -56.9183  -27.7341   12.8437 C.2       13 UNK         0.4989 
     24 O         -57.9986  -28.0224   12.3252 O.2       13 UNK        -0.4996 
     25 CA        -56.5382  -26.2567   13.0524 C.3       12 UNK         0.0216 
     26 CB        -57.7625  -25.3158   13.0714 C.3       12 UNK        -0.1964 
     27 N         -55.6783  -26.0245   14.2193 N.am      12 UNK        -0.4276 
     28 C         -55.9794  -26.2097   15.5111 C.2       12 UNK         0.5020 
     29 O         -57.0350  -26.7075   15.9096 O.2       12 UNK        -0.5489 
     30 CA        -54.9045  -25.7449   16.5126 C.3       11 UNK         0.0294 
     31 CB        -55.3745  -25.8159   17.9818 C.3       11 UNK        -0.2019 
     32 N         -53.6228  -26.4377   16.3357 N.am      11 UNK        -0.4493 
     33 C         -53.3747  -27.7465   16.4914 C.2       11 UNK         0.4932 
     34 O         -54.2370  -28.5747   16.7858 O.2       11 UNK        -0.5029 
     35 CA        -51.9253  -28.2351   16.2943 C.3       10 UNK         0.0280 
     36 CB        -51.8648  -29.3598   15.2500 C.3       10 UNK        -0.1976 
     37 N         -50.9741  -27.1847   15.9137 N.am      10 UNK        -0.4242 
     38 C         -50.3741  -26.3432   16.7672 C.2       10 UNK         0.5072 
     39 O         -50.5840  -26.3349   17.9807 O.2       10 UNK        -0.5224 
     40 CA        -49.3790  -25.3316   16.1680 C.3       9 UNK         0.0343 
     41 CB        -48.0234  -26.0000   15.8874 C.3       9 UNK        -0.2003 
     42 N         -49.8696  -24.6880   14.9466 N.am      9 UNK        -0.4272 
     43 C         -50.9296  -23.8672   14.8914 C.2       9 UNK         0.4988 
     44 O         -51.5977  -23.5386   15.8721 O.2       9 UNK        -0.5108 
     45 CA        -51.3452  -23.3684   13.4969 C.3       8 UNK         0.0248 
     46 CB        -50.4261  -22.2354   13.0120 C.3       8 UNK        -0.2001 
     47 N         -51.3648  -24.4568   12.5183 N.am      8 UNK        -0.4140 
     48 C         -52.2019  -25.5013   12.5823 C.2       8 UNK         0.5028 
     49 O         -53.1193  -25.5851   13.3969 O.2       8 UNK        -0.5428 
     50 CA        -51.9534  -26.6751   11.6267 C.3       7 UNK         0.0264 
     51 CB        -52.8130  -26.5745   10.3597 C.3       7 UNK        -0.1988 
     52 N         -50.5341  -26.8447   11.2981 N.am      7 UNK        -0.4454 
     53 C         -49.6578  -27.3651   12.1694 C.2       7 UNK         0.5027 
     54 O         -49.9692  -27.7269   13.3034 O.2       7 UNK        -0.5083 
     55 CA        -48.1808  -27.4587   11.7569 C.3       6 UNK         0.0844 
     56 C56       -47.8235  -28.8022   11.0651 C.3       14 UNK        -0.0967 
     57 S57       -47.9196  -28.7805    9.2388 S.3       14 UNK        -0.2604 
     58 C58       -48.7571  -30.3520    8.8675 C.3       14 UNK         0.0134 
     59 N         -47.7179  -26.2919   11.0126 N.am      6 UNK        -0.4116 
     60 C         -47.5560  -25.0592   11.5081 C.2       5 UNK         0.5034 
     61 O         -47.9049  -24.7299   12.6440 O.2       5 UNK        -0.5045 
     62 CA        -46.8669  -24.0438   10.5709 C.3       5 UNK         0.0224 
     63 CB        -46.1580  -22.9050   11.3333 C.3       5 UNK        -0.1978 
     64 N         -45.9687  -24.6970    9.6015 N.am      5 UNK        -0.4737 
     65 C         -44.8563  -25.4022    9.8693 C.2       4 UNK         0.5027 
     66 O         -44.3423  -25.4604   10.9863 O.2       4 UNK        -0.5211 
     67 CA        -44.2200  -26.2149    8.7255 C.3       4 UNK         0.0297 
     68 CB        -44.0411  -27.6945    9.1178 C.3       4 UNK        -0.1993 
     69 N         -44.9623  -26.1305    7.4624 N.am      4 UNK        -0.4486 
     70 C         -44.3908  -26.1575    6.2490 C.2       3 UNK         0.4961 
     71 O         -43.1831  -26.3103    6.0612 O.2       3 UNK        -0.5105 
     72 CA        -45.3145  -25.9586    5.0304 C.3       3 UNK         0.0299 
     73 CB        -45.8579  -27.3118    4.5443 C.3       3 UNK        -0.1972 
     74 N         -46.4367  -25.0571    5.3011 N.am      3 UNK        -0.4305 
     75 C         -46.3237  -23.7764    5.6794 C.2       2 UNK         0.5006 
     76 O         -45.2568  -23.1614    5.6791 O.2       2 UNK        -0.5106 
     77 CA        -47.5910  -23.0524    6.1770 C.3       2 UNK         0.0296 
     78 CB        -47.9707  -21.9148    5.2134 C.3       2 UNK        -0.2002 
     79 N         -48.7864  -23.8715    6.4248 N.am      2 UNK        -0.4032 
     80 C         -48.9058  -24.9565    7.2076 C.2       1 UNK         0.5000 
     81 O         -47.9548  -25.5371    7.7364 O.2       1 UNK        -0.5238 
     82 H82       -51.3318  -21.5455    9.4904 H         1 UNK         0.0889 
     83 H83       -52.5163  -22.6209   10.2389 H         1 UNK         0.0889 
     84 H84       -52.6134  -22.2652    8.5127 H         1 UNK         0.0889 
     85 H85       -51.9004  -24.0018    7.2758 H         1 UNK         0.3028 
     86 H86       -50.3098  -26.1463    8.2961 H         1 UNK         0.0864 
     87 H87       -50.9586  -25.4813    5.3755 H         1 UNK         0.0720 
     88 H88       -50.3395  -26.9970    5.9627 H         1 UNK         0.0720 
     89 H89       -53.6123  -28.8254    5.9484 H         1 UNK         0.0814 
     90 H90       -51.9894  -28.6843    5.3340 H         1 UNK         0.0814 
     91 H91       -50.0312  -29.0678    6.8701 H         1 UNK         0.1469 
     92 H92       -50.7922  -31.2116   10.4991 H         1 UNK         0.1381 
     93 H93       -54.0638  -29.6239    8.2226 H         1 UNK         0.1206 
     94 H94       -53.2139  -32.0734   10.7581 H         1 UNK         0.0813 
     95 H95       -54.5148  -31.1291   10.0617 H         1 UNK         0.0813 
     96 H96       -54.3731  -30.8650   14.0367 H         1 UNK         0.0638 
     97 H97       -54.9072  -31.8635   12.7097 H         1 UNK         0.0638 
     98 H98       -56.5996  -30.2483   12.0558 H         1 UNK         0.0568 
     99 H99       -57.3499  -29.1209   15.2234 H         1 UNK         0.3450 
    100 H100      -58.2603  -30.5304   15.7116 H         1 UNK         0.3450 
    101 H101      -55.1531  -28.3286   13.6482 H         1 UNK         0.2987 
    102 H102      -55.9344  -25.9849   12.1852 H         1 UNK         0.0766 
    103 H103      -57.4615  -24.2757   13.1968 H         1 UNK         0.0798 
    104 H104      -58.4524  -25.5657   13.8780 H         1 UNK         0.0798 
    105 H105      -58.3204  -25.3786   12.1363 H         1 UNK         0.0798 
    106 H106      -54.7289  -25.7129   13.9947 H         1 UNK         0.3198 
    107 H107      -54.7119  -24.6945   16.2870 H         1 UNK         0.0843 
    108 H108      -55.6158  -26.8350   18.2852 H         1 UNK         0.0831 
    109 H109      -56.2721  -25.2145   18.1310 H         1 UNK         0.0831 
    110 H110      -54.6119  -25.4348   18.6610 H         1 UNK         0.0831 
    111 H111      -52.8518  -25.8534   16.0397 H         1 UNK         0.3133 
    112 H112      -51.6059  -28.6577   17.2490 H         1 UNK         0.0566 
    113 H113      -50.8541  -29.7553   15.1484 H         1 UNK         0.0814 
    114 H114      -52.5114  -30.1940   15.5239 H         1 UNK         0.0814 
    115 H115      -52.1820  -29.0025   14.2717 H         1 UNK         0.0814 
    116 H116      -50.6939  -27.1700   14.9347 H         1 UNK         0.3091 
    117 H117      -49.2196  -24.5472   16.9109 H         1 UNK         0.0702 
    118 H118      -47.2906  -25.2752   15.5318 H         1 UNK         0.0785 
    119 H119      -48.1067  -26.7849   15.1352 H         1 UNK         0.0785 
    120 H120      -47.6179  -26.4556   16.7917 H         1 UNK         0.0785 
    121 H121      -49.3473  -24.8658   14.0941 H         1 UNK         0.2998 
    122 H122      -52.3593  -22.9704   13.5738 H         1 UNK         0.0697 
    123 H123      -49.3970  -22.5700   12.8832 H         1 UNK         0.0825 
    124 H124      -50.4135  -21.4120   13.7272 H         1 UNK         0.0825 
    125 H125      -50.7647  -21.8302   12.0591 H         1 UNK         0.0825 
    126 H126      -50.6735  -24.4275   11.7742 H         1 UNK         0.3029 
    127 H127      -52.2703  -27.5715   12.1576 H         1 UNK         0.0897 
    128 H128      -53.8657  -26.7247   10.6012 H         1 UNK         0.0792 
    129 H129      -52.5382  -27.3371    9.6329 H         1 UNK         0.0792 
    130 H130      -52.7343  -25.6047    9.8768 H         1 UNK         0.0792 
    131 H131      -50.2075  -26.5043   10.4056 H         1 UNK         0.3086 
    132 H132      -47.6243  -27.4484   12.6970 H         1 UNK         0.0583 
    133 H133      -46.7932  -29.0602   11.3153 H         1 UNK         0.1020 
    134 H134      -48.4238  -29.6208   11.4679 H         1 UNK         0.1020 
    135 H135      -48.5337  -31.0956    9.6339 H         1 UNK         0.0694 
    136 H136      -48.3510  -30.7486    7.9358 H         1 UNK         0.0694 
    137 H137      -47.4530  -26.4623   10.0520 H         1 UNK         0.2989 
    138 H138      -47.6638  -23.5894    9.9821 H         1 UNK         0.1055 
    139 H139      -46.8733  -22.3289   11.9217 H         1 UNK         0.0806 
    140 H140      -45.6696  -22.2121   10.6485 H         1 UNK         0.0806 
    141 H141      -45.4050  -23.2839   12.0246 H         1 UNK         0.0806 
    142 H142      -46.3484  -24.7460    8.6645 H         1 UNK         0.3061 
    143 H143      -43.2289  -25.7792    8.5816 H         1 UNK         0.0734 
    144 H144      -43.5121  -28.2502    8.3435 H         1 UNK         0.0832 
    145 H145      -43.4602  -27.7936   10.0356 H         1 UNK         0.0832 
    146 H146      -45.0001  -28.1839    9.2846 H         1 UNK         0.0832 
    147 H147      -45.9729  -26.0542    7.5185 H         1 UNK         0.3156 
    148 H148      -44.7188  -25.5172    4.2288 H         1 UNK         0.0589 
    149 H149      -46.4827  -27.7918    5.2990 H         1 UNK         0.0808 
    150 H150      -46.4514  -27.1997    3.6368 H         1 UNK         0.0808 
    151 H151      -45.0421  -27.9982    4.3130 H         1 UNK         0.0808 
    152 H152      -47.3529  -25.4776    5.3441 H         1 UNK         0.3098 
    153 H153      -47.3232  -22.6031    7.1354 H         1 UNK         0.0720 
    154 H154      -48.7762  -21.3015    5.6178 H         1 UNK         0.0791 
    155 H155      -48.2931  -22.2995    4.2450 H         1 UNK         0.0791 
    156 H156      -47.1245  -21.2498    5.0338 H         1 UNK         0.0791 
    157 H157      -49.6436  -23.4926    6.0496 H         1 UNK         0.3028 
@<TRIPOS>BOND
     1    1    2 1    
     2    1   82 1    
     3    1   83 1    
     4    1   84 1    
     5    2    3 2    
     6    2    4 am   BACKBONE|DICT|INTERRES
     7    4    5 1    
     8    4   85 1    
     9    5    6 1    
    10    5   80 1    
    11    5   86 1    
    12    6    7 1    
    13    6   87 1    
    14    6   88 1    
    15    7    8 1    
    16    8    9 1    
    17    8   89 1    
    18    8   90 1    
    19    9   10 ar   
    20    9   14 ar   
    21   10   11 ar   
    22   10   91 1    
    23   11   12 ar   
    24   11   58 1    
    25   12   13 ar   
    26   12   92 1    
    27   13   14 ar   
    28   13   15 1    
    29   14   93 1    
    30   15   16 1    
    31   15   94 1    
    32   15   95 1    
    33   16   17 1    
    34   17   18 1    
    35   17   96 1    
    36   17   97 1    
    37   18   19 1    
    38   18   22 1    
    39   18   98 1    
    40   19   20 am   BACKBONE|DICT|INTERRES
    41   19   21 2    
    42   20   99 1    
    43   20  100 1    
    44   22   23 am   BACKBONE|DICT|INTERRES
    45   22  101 1    
    46   23   24 2    
    47   23   25 1    
    48   25   26 1    
    49   25   27 1    
    50   25  102 1    
    51   26  103 1    
    52   26  104 1    
    53   26  105 1    
    54   27   28 am   BACKBONE|DICT|INTERRES
    55   27  106 1    
    56   28   29 2    
    57   28   30 1    
    58   30   31 1    
    59   30   32 1    
    60   30  107 1    
    61   31  108 1    
    62   31  109 1    
    63   31  110 1    
    64   32   33 am   BACKBONE|DICT|INTERRES
    65   32  111 1    
    66   33   34 2    
    67   33   35 1    
    68   35   36 1    
    69   35   37 1    
    70   35  112 1    
    71   36  113 1    
    72   36  114 1    
    73   36  115 1    
    74   37   38 am   BACKBONE|DICT|INTERRES
    75   37  116 1    
    76   38   39 2    
    77   38   40 1    
    78   40   41 1    
    79   40   42 1    
    80   40  117 1    
    81   41  118 1    
    82   41  119 1    
    83   41  120 1    
    84   42   43 am   BACKBONE|DICT|INTERRES
    85   42  121 1    
    86   43   44 2    
    87   43   45 1    
    88   45   46 1    
    89   45   47 1    
    90   45  122 1    
    91   46  123 1    
    92   46  124 1    
    93   46  125 1    
    94   47   48 am   BACKBONE|DICT|INTERRES
    95   47  126 1    
    96   48   49 2    
    97   48   50 1    
    98   50   51 1    
    99   50   52 1    
   100   50  127 1    
   101   51  128 1    
   102   51  129 1    
   103   51  130 1    
   104   52   53 am   BACKBONE|DICT|INTERRES
   105   52  131 1    
   106   53   54 2    
   107   53   55 1    
   108   55   56 1    
   109   55   59 1    
   110   55  132 1    
   111   56   57 1    
   112   56  133 1    
   113   56  134 1    
   114   57   58 1    
   115   58  135 1    
   116   58  136 1    
   117   59   60 am   BACKBONE|DICT|INTERRES
   118   59  137 1    
   119   60   61 2    
   120   60   62 1    
   121   62   63 1    
   122   62   64 1    
   123   62  138 1    
   124   63  139 1    
   125   63  140 1    
   126   63  141 1    
   127   64   65 am   BACKBONE|DICT|INTERRES
   128   64  142 1    
   129   65   66 2    
   130   65   67 1    
   131   67   68 1    
   132   67   69 1    
   133   67  143 1    
   134   68  144 1    
   135   68  145 1    
   136   68  146 1    
   137   69   70 am   BACKBONE|DICT|INTERRES
   138   69  147 1    
   139   70   71 2    
   140   70   72 1    
   141   72   73 1    
   142   72   74 1    
   143   72  148 1    
   144   73  149 1    
   145   73  150 1    
   146   73  151 1    
   147   74   75 am   BACKBONE|DICT|INTERRES
   148   74  152 1    
   149   75   76 2    
   150   75   77 1    
   151   77   78 1    
   152   77   79 1    
   153   77  153 1    
   154   78  154 1    
   155   78  155 1    
   156   78  156 1    
   157   79   80 am   BACKBONE|DICT|INTERRES
   158   79  157 1    
   159   80   81 2    
@<TRIPOS>SUBSTRUCTURE
     1 UNK         1 GROUP             0       ****    0 ROOT    
