@<TRIPOS>MOLECULE
3R207
157   159    1
SMALL
USER_CHARGES


@<TRIPOS>ATOM
      1 CA        -47.6185  -31.8105    6.6546 C.3       0 UNK        -0.1975 
      2 C         -48.3905  -30.5099    6.8171 C.2       0 UNK         0.4852 
      3 O         -48.1829  -29.7978    7.7996 O.2       0 UNK        -0.5216 
      4 N         -49.2589  -30.1856    5.8480 N.am      1 UNK        -0.4461 
      5 CA        -50.1735  -29.0297    5.7838 C.3       1 UNK         0.0864 
      6 C6        -51.2026  -28.9818    6.9418 C.3       14 UNK        -0.0898 
      7 S7        -52.2882  -30.4502    6.9638 S.3       14 UNK        -0.2598 
      8 C8        -52.8199  -30.4882    8.7049 C.3       14 UNK         0.0286 
      9 C9        -53.5873  -29.2297    9.0825 C.ar      14 UNK        -0.0844 
     10 C10       -52.9265  -28.1737    9.7148 C.ar      14 UNK        -0.0881 
     11 C11       -53.6005  -26.9848   10.0002 C.ar      14 UNK        -0.0643 
     12 C12       -54.9584  -26.8717    9.6894 C.ar      14 UNK        -0.0930 
     13 C13       -55.6393  -27.9318    9.0844 C.ar      14 UNK        -0.0827 
     14 C14       -54.9461  -29.1073    8.7759 C.ar      14 UNK        -0.1249 
     15 C15       -57.1117  -27.7785    8.7304 C.3       14 UNK         0.0141 
     16 S16       -58.2029  -28.3720   10.0628 S.3       14 UNK        -0.2313 
     17 C17       -58.2516  -30.1648    9.7196 C.3       14 UNK        -0.0915 
     18 CA        -57.8540  -31.0536   10.9276 C.3       13 UNK         0.0968 
     19 C         -57.9167  -32.5563   10.5220 C.2       13 UNK         0.5732 
     20 N         -56.7973  -33.2592   10.3954 N.am      13 UNK        -0.7310 
     21 O         -59.0041  -33.0912   10.3181 O.2       13 UNK        -0.5035 
     22 N         -56.5929  -30.6175   11.5522 N.am      13 UNK        -0.4233 
     23 C         -56.1247  -31.0666   12.7251 C.2       13 UNK         0.4989 
     24 O         -56.6825  -31.9246   13.4101 O.2       13 UNK        -0.4996 
     25 CA        -54.8162  -30.4407   13.2303 C.3       12 UNK         0.0216 
     26 CB        -53.6006  -31.0919   12.5518 C.3       12 UNK        -0.1964 
     27 N         -54.7684  -28.9900   13.0392 N.am      12 UNK        -0.4276 
     28 C         -55.5039  -28.1098   13.7311 C.2       12 UNK         0.5020 
     29 O         -56.3171  -28.4213   14.6038 O.2       12 UNK        -0.5489 
     30 CA        -55.2553  -26.6227   13.4268 C.3       11 UNK         0.0294 
     31 CB        -56.5740  -25.8435   13.2866 C.3       11 UNK        -0.2019 
     32 N         -54.4164  -25.9935   14.4502 N.am      11 UNK        -0.4493 
     33 C         -53.1411  -26.3178   14.7051 C.2       11 UNK         0.4932 
     34 O         -52.4997  -27.1462   14.0519 O.2       11 UNK        -0.5029 
     35 CA        -52.4717  -25.6044   15.8891 C.3       10 UNK         0.0280 
     36 CB        -53.2235  -25.8667   17.2111 C.3       10 UNK        -0.1976 
     37 N         -51.0991  -26.0901   15.9895 N.am      10 UNK        -0.4242 
     38 C         -50.0860  -25.5177   16.6473 C.2       10 UNK         0.5072 
     39 O         -50.1890  -24.4651   17.2801 O.2       10 UNK        -0.5224 
     40 CA        -48.7360  -26.2565   16.6331 C.3       9 UNK         0.0343 
     41 CB        -48.7869  -27.6624   15.9963 C.3       9 UNK        -0.2003 
     42 N         -47.7456  -25.4505   15.9239 N.am      9 UNK        -0.4272 
     43 C         -46.7817  -24.7244   16.5038 C.2       9 UNK         0.4988 
     44 O         -46.6018  -24.6583   17.7210 O.2       9 UNK        -0.5108 
     45 CA        -45.8355  -23.9557   15.5663 C.3       8 UNK         0.0248 
     46 CB        -44.7890  -24.9046   14.9592 C.3       8 UNK        -0.2001 
     47 N         -46.5368  -23.2428   14.4960 N.am      8 UNK        -0.4140 
     48 C         -47.3106  -22.1637   14.6848 C.2       8 UNK         0.5028 
     49 O         -47.4935  -21.6333   15.7815 O.2       8 UNK        -0.5428 
     50 CA        -47.9904  -21.5625   13.4422 C.3       7 UNK         0.0264 
     51 CB        -47.0186  -20.6507   12.6758 C.3       7 UNK        -0.1988 
     52 N         -48.5277  -22.5796   12.5368 N.am      7 UNK        -0.4454 
     53 C         -49.5660  -23.3779   12.8250 C.2       7 UNK         0.5027 
     54 O         -50.2262  -23.2939   13.8604 O.2       7 UNK        -0.5083 
     55 CA        -49.9270  -24.4646   11.7921 C.3       6 UNK         0.0844 
     56 C56       -50.8810  -23.8890   10.7172 C.3       14 UNK        -0.0967 
     57 S57       -51.5410  -25.1688    9.6032 S.3       14 UNK        -0.2604 
     58 C58       -52.8622  -25.8323   10.6601 C.3       14 UNK         0.0134 
     59 N         -48.7404  -25.1119   11.2207 N.am      6 UNK        -0.4116 
     60 C         -47.8362  -25.7993   11.9344 C.2       5 UNK         0.5034 
     61 O         -47.9308  -26.0120   13.1422 O.2       5 UNK        -0.5045 
     62 CA        -46.5750  -26.2678   11.1957 C.3       5 UNK         0.0224 
     63 CB        -46.8269  -27.5778   10.4313 C.3       5 UNK        -0.1978 
     64 N         -46.0663  -25.2326   10.2929 N.am      5 UNK        -0.4737 
     65 C         -45.5049  -24.0889   10.7135 C.2       4 UNK         0.5027 
     66 O         -45.3122  -23.8212   11.8983 O.2       4 UNK        -0.5211 
     67 CA        -45.1380  -23.0500    9.6406 C.3       4 UNK         0.0297 
     68 CB        -43.7452  -23.3428    9.0616 C.3       4 UNK        -0.1993 
     69 N         -46.1182  -22.9856    8.5550 N.am      4 UNK        -0.4486 
     70 C         -47.3959  -22.6051    8.7017 C.2       3 UNK         0.4961 
     71 O         -47.8718  -22.1979    9.7605 O.2       3 UNK        -0.5105 
     72 CA        -48.3091  -22.7609    7.4726 C.3       3 UNK         0.0299 
     73 CB        -48.2847  -21.4850    6.6168 C.3       3 UNK        -0.1972 
     74 N         -47.9635  -23.9215    6.6427 N.am      3 UNK        -0.4305 
     75 C         -48.0100  -25.1919    7.0667 C.2       2 UNK         0.5006 
     76 O         -48.3580  -25.5217    8.2020 O.2       2 UNK        -0.5106 
     77 CA        -47.4868  -26.2577    6.0951 C.3       2 UNK         0.0296 
     78 CB        -46.0217  -26.5958    6.4185 C.3       2 UNK        -0.2002 
     79 N         -48.2827  -27.4800    6.1751 N.am      2 UNK        -0.4032 
     80 C         -49.4770  -27.6605    5.6004 C.2       1 UNK         0.5000 
     81 O         -50.0251  -26.8029    4.9043 O.2       1 UNK        -0.5238 
     82 H82       -47.8190  -32.4711    7.4976 H         1 UNK         0.0889 
     83 H83       -46.5479  -31.6099    6.6257 H         1 UNK         0.0889 
     84 H84       -47.8908  -32.3363    5.7397 H         1 UNK         0.0889 
     85 H85       -49.3407  -30.8132    5.0600 H         1 UNK         0.3028 
     86 H86       -50.7409  -29.1792    4.8635 H         1 UNK         0.0864 
     87 H87       -51.8449  -28.1031    6.8518 H         1 UNK         0.0720 
     88 H88       -50.6923  -28.8887    7.9015 H         1 UNK         0.0720 
     89 H89       -51.9473  -30.6170    9.3475 H         1 UNK         0.0814 
     90 H90       -53.4491  -31.3651    8.8640 H         1 UNK         0.0814 
     91 H91       -51.8750  -28.2583    9.9541 H         1 UNK         0.1469 
     92 H92       -55.4873  -25.9555    9.9145 H         1 UNK         0.1381 
     93 H93       -55.4527  -29.9203    8.2752 H         1 UNK         0.1206 
     94 H94       -57.3371  -26.7273    8.5443 H         1 UNK         0.0813 
     95 H95       -57.3375  -28.2978    7.7978 H         1 UNK         0.0813 
     96 H96       -57.6168  -30.3911    8.8626 H         1 UNK         0.0638 
     97 H97       -59.2684  -30.4024    9.4014 H         1 UNK         0.0638 
     98 H98       -58.6258  -30.9217   11.6882 H         1 UNK         0.0568 
     99 H99       -55.9024  -32.8313   10.5654 H         1 UNK         0.3450 
    100 H100      -56.8527  -34.2310   10.1348 H         1 UNK         0.3450 
    101 H101      -56.0840  -29.8965   11.0621 H         1 UNK         0.2987 
    102 H102      -54.7478  -30.6384   14.3024 H         1 UNK         0.0766 
    103 H103      -53.5934  -32.1702   12.7167 H         1 UNK         0.0798 
    104 H104      -52.6655  -30.6982   12.9512 H         1 UNK         0.0798 
    105 H105      -53.6008  -30.9271   11.4751 H         1 UNK         0.0798 
    106 H106      -54.0847  -28.6379   12.3837 H         1 UNK         0.3198 
    107 H107      -54.7332  -26.5516   12.4769 H         1 UNK         0.0843 
    108 H108      -57.1388  -25.8286   14.2195 H         1 UNK         0.0831 
    109 H109      -57.2126  -26.2975   12.5271 H         1 UNK         0.0831 
    110 H110      -56.3962  -24.8116   12.9835 H         1 UNK         0.0831 
    111 H111      -54.8720  -25.3208   15.0496 H         1 UNK         0.3133 
    112 H112      -52.4535  -24.5337   15.6755 H         1 UNK         0.0566 
    113 H113      -53.2852  -26.9332   17.4316 H         1 UNK         0.0814 
    114 H114      -54.2423  -25.4802   17.1769 H         1 UNK         0.0814 
    115 H115      -52.7316  -25.3813   18.0540 H         1 UNK         0.0814 
    116 H116      -50.9271  -26.9196   15.4334 H         1 UNK         0.3091 
    117 H117      -48.4415  -26.3848   17.6766 H         1 UNK         0.0702 
    118 H118      -47.8135  -28.1495   16.0551 H         1 UNK         0.0785 
    119 H119      -49.0714  -27.6317   14.9439 H         1 UNK         0.0785 
    120 H120      -49.4958  -28.3075   16.5173 H         1 UNK         0.0785 
    121 H121      -47.8137  -25.4588   14.9081 H         1 UNK         0.2998 
    122 H122      -45.3049  -23.2144   16.1677 H         1 UNK         0.0697 
    123 H123      -44.0542  -24.3575   14.3683 H         1 UNK         0.0825 
    124 H124      -45.2488  -25.6515   14.3111 H         1 UNK         0.0825 
    125 H125      -44.2450  -25.4384   15.7396 H         1 UNK         0.0825 
    126 H126      -46.3724  -23.5679   13.5473 H         1 UNK         0.3029 
    127 H127      -48.8261  -20.9501   13.7882 H         1 UNK         0.0897 
    128 H128      -46.1628  -21.2051   12.2897 H         1 UNK         0.0792 
    129 H129      -46.6321  -19.8618   13.3222 H         1 UNK         0.0792 
    130 H130      -47.5109  -20.1671   11.8317 H         1 UNK         0.0792 
    131 H131      -48.0997  -22.6475   11.6165 H         1 UNK         0.3086 
    132 H132      -50.4645  -25.2382   12.3440 H         1 UNK         0.0583 
    133 H133      -51.7220  -23.3695   11.1817 H         1 UNK         0.1020 
    134 H134      -50.3688  -23.1407   10.1109 H         1 UNK         0.1020 
    135 H135      -52.4295  -26.1875   11.5942 H         1 UNK         0.0694 
    136 H136      -53.5512  -25.0266   10.9184 H         1 UNK         0.0694 
    137 H137      -48.6124  -25.0324   10.2171 H         1 UNK         0.2989 
    138 H138      -45.8075  -26.4635   11.9481 H         1 UNK         0.1055 
    139 H139      -45.9263  -27.9227    9.9236 H         1 UNK         0.0806 
    140 H140      -47.6150  -27.4789    9.6851 H         1 UNK         0.0806 
    141 H141      -47.1341  -28.3700   11.1153 H         1 UNK         0.0806 
    142 H142      -46.2635  -25.3484    9.3092 H         1 UNK         0.3061 
    143 H143      -45.1093  -22.0709   10.1236 H         1 UNK         0.0734 
    144 H144      -43.7134  -24.3022    8.5436 H         1 UNK         0.0832 
    145 H145      -43.4362  -22.5693    8.3583 H         1 UNK         0.0832 
    146 H146      -42.9951  -23.3760    9.8532 H         1 UNK         0.0832 
    147 H147      -45.8136  -23.2924    7.6431 H         1 UNK         0.3156 
    148 H148      -49.3282  -22.9079    7.8364 H         1 UNK         0.0589 
    149 H149      -48.9931  -21.5471    5.7905 H         1 UNK         0.0808 
    150 H150      -47.2953  -21.2946    6.1990 H         1 UNK         0.0808 
    151 H151      -48.5603  -20.6127    7.2115 H         1 UNK         0.0808 
    152 H152      -47.6590  -23.7315    5.6983 H         1 UNK         0.3098 
    153 H153      -47.5387  -25.8711    5.0750 H         1 UNK         0.0720 
    154 H154      -45.3885  -25.7100    6.3546 H         1 UNK         0.0791 
    155 H155      -45.6220  -27.3283    5.7170 H         1 UNK         0.0791 
    156 H156      -45.9135  -27.0051    7.4238 H         1 UNK         0.0791 
    157 H157      -47.9635  -28.2081    6.8088 H         1 UNK         0.3028 
@<TRIPOS>BOND
     1    1    2 1    
     2    1   82 1    
     3    1   83 1    
     4    1   84 1    
     5    2    3 2    
     6    2    4 am   BACKBONE|DICT|INTERRES
     7    4    5 1    
     8    4   85 1    
     9    5    6 1    
    10    5   80 1    
    11    5   86 1    
    12    6    7 1    
    13    6   87 1    
    14    6   88 1    
    15    7    8 1    
    16    8    9 1    
    17    8   89 1    
    18    8   90 1    
    19    9   10 ar   
    20    9   14 ar   
    21   10   11 ar   
    22   10   91 1    
    23   11   12 ar   
    24   11   58 1    
    25   12   13 ar   
    26   12   92 1    
    27   13   14 ar   
    28   13   15 1    
    29   14   93 1    
    30   15   16 1    
    31   15   94 1    
    32   15   95 1    
    33   16   17 1    
    34   17   18 1    
    35   17   96 1    
    36   17   97 1    
    37   18   19 1    
    38   18   22 1    
    39   18   98 1    
    40   19   20 am   BACKBONE|DICT|INTERRES
    41   19   21 2    
    42   20   99 1    
    43   20  100 1    
    44   22   23 am   BACKBONE|DICT|INTERRES
    45   22  101 1    
    46   23   24 2    
    47   23   25 1    
    48   25   26 1    
    49   25   27 1    
    50   25  102 1    
    51   26  103 1    
    52   26  104 1    
    53   26  105 1    
    54   27   28 am   BACKBONE|DICT|INTERRES
    55   27  106 1    
    56   28   29 2    
    57   28   30 1    
    58   30   31 1    
    59   30   32 1    
    60   30  107 1    
    61   31  108 1    
    62   31  109 1    
    63   31  110 1    
    64   32   33 am   BACKBONE|DICT|INTERRES
    65   32  111 1    
    66   33   34 2    
    67   33   35 1    
    68   35   36 1    
    69   35   37 1    
    70   35  112 1    
    71   36  113 1    
    72   36  114 1    
    73   36  115 1    
    74   37   38 am   BACKBONE|DICT|INTERRES
    75   37  116 1    
    76   38   39 2    
    77   38   40 1    
    78   40   41 1    
    79   40   42 1    
    80   40  117 1    
    81   41  118 1    
    82   41  119 1    
    83   41  120 1    
    84   42   43 am   BACKBONE|DICT|INTERRES
    85   42  121 1    
    86   43   44 2    
    87   43   45 1    
    88   45   46 1    
    89   45   47 1    
    90   45  122 1    
    91   46  123 1    
    92   46  124 1    
    93   46  125 1    
    94   47   48 am   BACKBONE|DICT|INTERRES
    95   47  126 1    
    96   48   49 2    
    97   48   50 1    
    98   50   51 1    
    99   50   52 1    
   100   50  127 1    
   101   51  128 1    
   102   51  129 1    
   103   51  130 1    
   104   52   53 am   BACKBONE|DICT|INTERRES
   105   52  131 1    
   106   53   54 2    
   107   53   55 1    
   108   55   56 1    
   109   55   59 1    
   110   55  132 1    
   111   56   57 1    
   112   56  133 1    
   113   56  134 1    
   114   57   58 1    
   115   58  135 1    
   116   58  136 1    
   117   59   60 am   BACKBONE|DICT|INTERRES
   118   59  137 1    
   119   60   61 2    
   120   60   62 1    
   121   62   63 1    
   122   62   64 1    
   123   62  138 1    
   124   63  139 1    
   125   63  140 1    
   126   63  141 1    
   127   64   65 am   BACKBONE|DICT|INTERRES
   128   64  142 1    
   129   65   66 2    
   130   65   67 1    
   131   67   68 1    
   132   67   69 1    
   133   67  143 1    
   134   68  144 1    
   135   68  145 1    
   136   68  146 1    
   137   69   70 am   BACKBONE|DICT|INTERRES
   138   69  147 1    
   139   70   71 2    
   140   70   72 1    
   141   72   73 1    
   142   72   74 1    
   143   72  148 1    
   144   73  149 1    
   145   73  150 1    
   146   73  151 1    
   147   74   75 am   BACKBONE|DICT|INTERRES
   148   74  152 1    
   149   75   76 2    
   150   75   77 1    
   151   77   78 1    
   152   77   79 1    
   153   77  153 1    
   154   78  154 1    
   155   78  155 1    
   156   78  156 1    
   157   79   80 am   BACKBONE|DICT|INTERRES
   158   79  157 1    
   159   80   81 2    
@<TRIPOS>SUBSTRUCTURE
     1 UNK         1 GROUP             0       ****    0 ROOT    
