@<TRIPOS>MOLECULE
3R207
157   159    1
SMALL
USER_CHARGES


@<TRIPOS>ATOM
      1 CA        -45.3231  -31.2588    6.8838 C.3       0 UNK        -0.1975 
      2 C         -46.5835  -30.7927    6.1705 C.2       0 UNK         0.4852 
      3 O         -46.5880  -30.6802    4.9444 O.2       0 UNK        -0.5216 
      4 N         -47.6510  -30.5136    6.9301 N.am      1 UNK        -0.4461 
      5 CA        -48.9495  -30.0406    6.4296 C.3       1 UNK         0.0864 
      6 C6        -50.0935  -30.3544    7.4266 C.3       14 UNK        -0.0898 
      7 S7        -49.8038  -29.7445    9.1245 S.3       14 UNK        -0.2598 
      8 C8        -51.3607  -30.2446    9.9308 C.3       14 UNK         0.0286 
      9 C9        -52.5488  -29.4661    9.3856 C.ar      14 UNK        -0.0844 
     10 C10       -52.6586  -28.1007    9.6507 C.ar      14 UNK        -0.0881 
     11 C11       -53.7169  -27.3472    9.1296 C.ar      14 UNK        -0.0643 
     12 C12       -54.6845  -27.9935    8.3539 C.ar      14 UNK        -0.0930 
     13 C13       -54.5956  -29.3639    8.0903 C.ar      14 UNK        -0.0827 
     14 C14       -53.5218  -30.0956    8.6050 C.ar      14 UNK        -0.1249 
     15 C15       -55.6426  -30.0457    7.2212 C.3       14 UNK         0.0141 
     16 S16       -56.7163  -31.1635    8.1757 S.3       14 UNK        -0.2313 
     17 C17       -57.5451  -30.0149    9.3367 C.3       14 UNK        -0.0915 
     18 CA        -57.1713  -30.0730   10.8598 C.3       13 UNK         0.0968 
     19 C         -56.1142  -31.1204   11.3135 C.2       13 UNK         0.5732 
     20 N         -56.4418  -32.4042   11.2544 N.am      13 UNK        -0.7310 
     21 O         -55.0157  -30.7817   11.7522 O.2       13 UNK        -0.5035 
     22 N         -56.8189  -28.7518   11.3919 N.am      13 UNK        -0.4233 
     23 C         -57.6898  -27.8271   11.8117 C.2       13 UNK         0.4989 
     24 O         -58.9100  -27.9325   11.6768 O.2       13 UNK        -0.4996 
     25 CA        -57.1015  -26.6119   12.5513 C.3       12 UNK         0.0216 
     26 CB        -58.1587  -25.8254   13.3558 C.3       12 UNK        -0.1964 
     27 N         -56.0104  -27.0481   13.4253 N.am      12 UNK        -0.4276 
     28 C         -55.0051  -26.2813   13.8598 C.2       12 UNK         0.5020 
     29 O         -54.9348  -25.0642   13.6718 O.2       12 UNK        -0.5489 
     30 CA        -53.8857  -27.0261   14.6060 C.3       11 UNK         0.0294 
     31 CB        -53.1102  -27.9543   13.6523 C.3       11 UNK        -0.2019 
     32 N         -52.9338  -26.1029   15.2197 N.am      11 UNK        -0.4493 
     33 C         -53.0490  -25.5729   16.4431 C.2       11 UNK         0.4932 
     34 O         -54.0038  -25.7764   17.1961 O.2       11 UNK        -0.5029 
     35 CA        -51.8563  -24.7109   16.9047 C.3       10 UNK         0.0280 
     36 CB        -51.9258  -24.3045   18.3919 C.3       10 UNK        -0.1976 
     37 N         -50.5791  -25.3613   16.5840 N.am      10 UNK        -0.4242 
     38 C         -50.1358  -26.5509   17.0217 C.2       10 UNK         0.5072 
     39 O         -50.6769  -27.2079   17.9122 O.2       10 UNK        -0.5224 
     40 CA        -48.8991  -27.1401   16.3193 C.3       9 UNK         0.0343 
     41 CB        -49.3340  -28.2036   15.2973 C.3       9 UNK        -0.2003 
     42 N         -48.0780  -26.1366   15.6385 N.am      9 UNK        -0.4272 
     43 C         -47.2631  -25.2763   16.2642 C.2       9 UNK         0.4988 
     44 O         -47.0816  -25.2656   17.4824 O.2       9 UNK        -0.5108 
     45 CA        -46.5370  -24.2438   15.3859 C.3       8 UNK         0.0248 
     46 CB        -45.2978  -24.8709   14.7276 C.3       8 UNK        -0.2001 
     47 N         -47.3998  -23.6483   14.3604 N.am      8 UNK        -0.4140 
     48 C         -48.4729  -22.8860   14.6205 C.2       8 UNK         0.5028 
     49 O         -48.8440  -22.5879   15.7559 O.2       8 UNK        -0.5428 
     50 CA        -49.2896  -22.3863   13.4177 C.3       7 UNK         0.0264 
     51 CB        -48.6071  -21.1774   12.7579 C.3       7 UNK        -0.1988 
     52 N         -49.5334  -23.4220   12.4132 N.am      7 UNK        -0.4454 
     53 C         -50.2360  -24.5456   12.6236 C.2       7 UNK         0.5027 
     54 O         -50.7671  -24.8379   13.6966 O.2       7 UNK        -0.5083 
     55 CA        -50.3151  -25.5376   11.4451 C.3       6 UNK         0.0844 
     56 C56       -51.2827  -25.0364   10.3403 C.3       14 UNK        -0.0967 
     57 S57       -53.0346  -25.1744   10.8326 S.3       14 UNK        -0.2604 
     58 C58       -53.8284  -25.8350    9.3288 C.3       14 UNK         0.0134 
     59 N         -48.9889  -25.8520   10.9086 N.am      6 UNK        -0.4116 
     60 C         -47.9499  -26.3273   11.6125 C.2       5 UNK         0.5034 
     61 O         -47.9996  -26.6369   12.8020 O.2       5 UNK        -0.5045 
     62 CA        -46.6018  -26.3983   10.8803 C.3       5 UNK         0.0224 
     63 CB        -46.5032  -27.6663   10.0155 C.3       5 UNK        -0.1978 
     64 N         -46.3667  -25.2039   10.0638 N.am      5 UNK        -0.4737 
     65 C         -46.1656  -23.9761   10.5662 C.2       4 UNK         0.5027 
     66 O         -46.1017  -23.7317   11.7699 O.2       4 UNK        -0.5211 
     67 CA        -46.0662  -22.8204    9.5569 C.3       4 UNK         0.0297 
     68 CB        -44.6475  -22.7318    8.9728 C.3       4 UNK        -0.1993 
     69 N         -47.0414  -22.9405    8.4707 N.am      4 UNK        -0.4486 
     70 C         -48.3706  -22.8666    8.6334 C.2       3 UNK         0.4961 
     71 O         -48.9153  -22.6180    9.7084 O.2       3 UNK        -0.5105 
     72 CA        -49.2386  -23.1798    7.4001 C.3       3 UNK         0.0299 
     73 CB        -49.4731  -21.9096    6.5682 C.3       3 UNK        -0.1972 
     74 N         -48.6709  -24.2333    6.5491 N.am      3 UNK        -0.4305 
     75 C         -48.4509  -25.4922    6.9528 C.2       2 UNK         0.5006 
     76 O         -48.7383  -25.9053    8.0778 O.2       2 UNK        -0.5106 
     77 CA        -47.7018  -26.4031    5.9693 C.3       2 UNK         0.0296 
     78 CB        -46.1961  -26.0856    5.9937 C.3       2 UNK        -0.2002 
     79 N         -47.8799  -27.8161    6.3019 N.am      2 UNK        -0.4032 
     80 C         -48.9487  -28.5581    5.9823 C.2       1 UNK         0.5000 
     81 O         -49.9019  -28.1260    5.3300 O.2       1 UNK        -0.5238 
     82 H82       -45.0436  -32.2538    6.5388 H         1 UNK         0.0889 
     83 H83       -45.4574  -31.3000    7.9647 H         1 UNK         0.0889 
     84 H84       -44.4981  -30.5796    6.6704 H         1 UNK         0.0889 
     85 H85       -47.5997  -30.6287    7.9333 H         1 UNK         0.3028 
     86 H86       -49.1668  -30.6085    5.5220 H         1 UNK         0.0864 
     87 H87       -51.0401  -29.9556    7.0572 H         1 UNK         0.0720 
     88 H88       -50.2335  -31.4349    7.4827 H         1 UNK         0.0720 
     89 H89       -51.2788  -30.0674   11.0043 H         1 UNK         0.0814 
     90 H90       -51.5069  -31.3188    9.8072 H         1 UNK         0.0814 
     91 H91       -51.8897  -27.6367   10.2452 H         1 UNK         0.1469 
     92 H92       -55.5043  -27.4226    7.9396 H         1 UNK         0.1381 
     93 H93       -53.4447  -31.1534    8.3938 H         1 UNK         0.1206 
     94 H94       -56.2609  -29.3106    6.7035 H         1 UNK         0.0813 
     95 H95       -55.1403  -30.6214    6.4426 H         1 UNK         0.0813 
     96 H96       -57.4187  -29.0017    8.9528 H         1 UNK         0.0638 
     97 H97       -58.6153  -30.2027    9.2396 H         1 UNK         0.0638 
     98 H98       -58.0738  -30.3809   11.3926 H         1 UNK         0.0568 
     99 H99       -55.7711  -33.0934   11.5545 H         1 UNK         0.3450 
    100 H100      -57.3320  -32.6960   10.8828 H         1 UNK         0.3450 
    101 H101      -55.8252  -28.6145   11.5217 H         1 UNK         0.2987 
    102 H102      -56.6894  -25.9530   11.7837 H         1 UNK         0.0766 
    103 H103      -57.7258  -24.9467   13.8338 H         1 UNK         0.0798 
    104 H104      -58.6097  -26.4418   14.1342 H         1 UNK         0.0798 
    105 H105      -58.9627  -25.4723   12.7088 H         1 UNK         0.0798 
    106 H106      -56.0067  -28.0319   13.6597 H         1 UNK         0.3198 
    107 H107      -54.3446  -27.6362   15.3874 H         1 UNK         0.0843 
    108 H108      -52.6546  -27.3987   12.8336 H         1 UNK         0.0831 
    109 H109      -53.7592  -28.7095   13.2082 H         1 UNK         0.0831 
    110 H110      -52.3177  -28.4877   14.1768 H         1 UNK         0.0831 
    111 H111      -52.1611  -25.7884   14.6380 H         1 UNK         0.3133 
    112 H112      -51.8881  -23.7965   16.3102 H         1 UNK         0.0566 
    113 H113      -51.0672  -23.6960   18.6756 H         1 UNK         0.0814 
    114 H114      -52.8217  -23.7155   18.5914 H         1 UNK         0.0814 
    115 H115      -51.9560  -25.1720   19.0516 H         1 UNK         0.0814 
    116 H116      -50.0739  -24.9399   15.8138 H         1 UNK         0.3091 
    117 H117      -48.2881  -27.6285   17.0814 H         1 UNK         0.0702 
    118 H118      -49.9354  -28.9816   15.7697 H         1 UNK         0.0785 
    119 H119      -49.9326  -27.7671   14.4964 H         1 UNK         0.0785 
    120 H120      -48.4722  -28.6908   14.8410 H         1 UNK         0.0785 
    121 H121      -48.1259  -26.1239   14.6217 H         1 UNK         0.2998 
    122 H122      -46.1993  -23.4363   16.0388 H         1 UNK         0.0697 
    123 H123      -45.5696  -25.6631   14.0293 H         1 UNK         0.0825 
    124 H124      -44.6351  -25.3073   15.4761 H         1 UNK         0.0825 
    125 H125      -44.7208  -24.1260   14.1792 H         1 UNK         0.0825 
    126 H126      -47.1261  -23.7984   13.3919 H         1 UNK         0.3029 
    127 H127      -50.2624  -22.0629   13.7943 H         1 UNK         0.0897 
    128 H128      -49.2239  -20.7610   11.9612 H         1 UNK         0.0792 
    129 H129      -47.6417  -21.4439   12.3262 H         1 UNK         0.0792 
    130 H130      -48.4334  -20.3819   13.4837 H         1 UNK         0.0792 
    131 H131      -49.1644  -23.2448   11.4811 H         1 UNK         0.3086 
    132 H132      -50.6981  -26.4780   11.8438 H         1 UNK         0.0583 
    133 H133      -51.0834  -23.9984   10.0727 H         1 UNK         0.1020 
    134 H134      -51.1289  -25.6060    9.4224 H         1 UNK         0.1020 
    135 H135      -54.8833  -25.5604    9.3783 H         1 UNK         0.0694 
    136 H136      -53.4213  -25.3284    8.4528 H         1 UNK         0.0694 
    137 H137      -48.8522  -25.6914    9.9132 H         1 UNK         0.2989 
    138 H138      -45.8171  -26.4449   11.6386 H         1 UNK         0.1055 
    139 H139      -46.6101  -28.5609   10.6307 H         1 UNK         0.0806 
    140 H140      -45.5379  -27.7325    9.5136 H         1 UNK         0.0806 
    141 H141      -47.2833  -27.7068    9.2562 H         1 UNK         0.0806 
    142 H142      -46.4631  -25.3067    9.0653 H         1 UNK         0.3061 
    143 H143      -46.2735  -21.8923   10.0941 H         1 UNK         0.0734 
    144 H144      -44.5412  -21.8671    8.3175 H         1 UNK         0.0832 
    145 H145      -43.9069  -22.6262    9.7670 H         1 UNK         0.0832 
    146 H146      -44.3856  -23.6225    8.4004 H         1 UNK         0.0832 
    147 H147      -46.6813  -23.1322    7.5477 H         1 UNK         0.3156 
    148 H148      -50.2071  -23.5329    7.7597 H         1 UNK         0.0589 
    149 H149      -48.5438  -21.5180    6.1526 H         1 UNK         0.0808 
    150 H150      -50.1589  -22.0971    5.7417 H         1 UNK         0.0808 
    151 H151      -49.9144  -21.1206    7.1792 H         1 UNK         0.0808 
    152 H152      -48.4044  -23.9670    5.6116 H         1 UNK         0.3098 
    153 H153      -48.0863  -26.2234    4.9630 H         1 UNK         0.0720 
    154 H154      -45.6504  -26.7135    5.2887 H         1 UNK         0.0791 
    155 H155      -45.7626  -26.2426    6.9823 H         1 UNK         0.0791 
    156 H156      -46.0032  -25.0498    5.7119 H         1 UNK         0.0791 
    157 H157      -47.1613  -28.2470    6.8623 H         1 UNK         0.3028 
@<TRIPOS>BOND
     1    1    2 1    
     2    1   82 1    
     3    1   83 1    
     4    1   84 1    
     5    2    3 2    
     6    2    4 am   BACKBONE|DICT|INTERRES
     7    4    5 1    
     8    4   85 1    
     9    5    6 1    
    10    5   80 1    
    11    5   86 1    
    12    6    7 1    
    13    6   87 1    
    14    6   88 1    
    15    7    8 1    
    16    8    9 1    
    17    8   89 1    
    18    8   90 1    
    19    9   10 ar   
    20    9   14 ar   
    21   10   11 ar   
    22   10   91 1    
    23   11   12 ar   
    24   11   58 1    
    25   12   13 ar   
    26   12   92 1    
    27   13   14 ar   
    28   13   15 1    
    29   14   93 1    
    30   15   16 1    
    31   15   94 1    
    32   15   95 1    
    33   16   17 1    
    34   17   18 1    
    35   17   96 1    
    36   17   97 1    
    37   18   19 1    
    38   18   22 1    
    39   18   98 1    
    40   19   20 am   BACKBONE|DICT|INTERRES
    41   19   21 2    
    42   20   99 1    
    43   20  100 1    
    44   22   23 am   BACKBONE|DICT|INTERRES
    45   22  101 1    
    46   23   24 2    
    47   23   25 1    
    48   25   26 1    
    49   25   27 1    
    50   25  102 1    
    51   26  103 1    
    52   26  104 1    
    53   26  105 1    
    54   27   28 am   BACKBONE|DICT|INTERRES
    55   27  106 1    
    56   28   29 2    
    57   28   30 1    
    58   30   31 1    
    59   30   32 1    
    60   30  107 1    
    61   31  108 1    
    62   31  109 1    
    63   31  110 1    
    64   32   33 am   BACKBONE|DICT|INTERRES
    65   32  111 1    
    66   33   34 2    
    67   33   35 1    
    68   35   36 1    
    69   35   37 1    
    70   35  112 1    
    71   36  113 1    
    72   36  114 1    
    73   36  115 1    
    74   37   38 am   BACKBONE|DICT|INTERRES
    75   37  116 1    
    76   38   39 2    
    77   38   40 1    
    78   40   41 1    
    79   40   42 1    
    80   40  117 1    
    81   41  118 1    
    82   41  119 1    
    83   41  120 1    
    84   42   43 am   BACKBONE|DICT|INTERRES
    85   42  121 1    
    86   43   44 2    
    87   43   45 1    
    88   45   46 1    
    89   45   47 1    
    90   45  122 1    
    91   46  123 1    
    92   46  124 1    
    93   46  125 1    
    94   47   48 am   BACKBONE|DICT|INTERRES
    95   47  126 1    
    96   48   49 2    
    97   48   50 1    
    98   50   51 1    
    99   50   52 1    
   100   50  127 1    
   101   51  128 1    
   102   51  129 1    
   103   51  130 1    
   104   52   53 am   BACKBONE|DICT|INTERRES
   105   52  131 1    
   106   53   54 2    
   107   53   55 1    
   108   55   56 1    
   109   55   59 1    
   110   55  132 1    
   111   56   57 1    
   112   56  133 1    
   113   56  134 1    
   114   57   58 1    
   115   58  135 1    
   116   58  136 1    
   117   59   60 am   BACKBONE|DICT|INTERRES
   118   59  137 1    
   119   60   61 2    
   120   60   62 1    
   121   62   63 1    
   122   62   64 1    
   123   62  138 1    
   124   63  139 1    
   125   63  140 1    
   126   63  141 1    
   127   64   65 am   BACKBONE|DICT|INTERRES
   128   64  142 1    
   129   65   66 2    
   130   65   67 1    
   131   67   68 1    
   132   67   69 1    
   133   67  143 1    
   134   68  144 1    
   135   68  145 1    
   136   68  146 1    
   137   69   70 am   BACKBONE|DICT|INTERRES
   138   69  147 1    
   139   70   71 2    
   140   70   72 1    
   141   72   73 1    
   142   72   74 1    
   143   72  148 1    
   144   73  149 1    
   145   73  150 1    
   146   73  151 1    
   147   74   75 am   BACKBONE|DICT|INTERRES
   148   74  152 1    
   149   75   76 2    
   150   75   77 1    
   151   77   78 1    
   152   77   79 1    
   153   77  153 1    
   154   78  154 1    
   155   78  155 1    
   156   78  156 1    
   157   79   80 am   BACKBONE|DICT|INTERRES
   158   79  157 1    
   159   80   81 2    
@<TRIPOS>SUBSTRUCTURE
     1 UNK         1 GROUP             0       ****    0 ROOT    
