@<TRIPOS>MOLECULE
3R207
157   159    1
SMALL
USER_CHARGES


@<TRIPOS>ATOM
      1 CA        -51.9026  -23.3184    4.2852 C.3       0 UNK        -0.1975 
      2 C         -51.6648  -24.5619    5.1289 C.2       0 UNK         0.4852 
      3 O         -51.3672  -24.4443    6.3171 O.2       0 UNK        -0.5216 
      4 N         -51.7998  -25.7493    4.5249 N.am      1 UNK        -0.4461 
      5 CA        -51.5430  -27.0459    5.1621 C.3       1 UNK         0.0864 
      6 C6        -52.2213  -28.2065    4.3940 C.3       14 UNK        -0.0898 
      7 S7        -54.0398  -28.0303    4.4279 S.3       14 UNK        -0.2598 
      8 C8        -54.5827  -29.4809    5.3972 C.3       14 UNK         0.0286 
      9 C9        -53.8629  -29.6537    6.7327 C.ar      14 UNK        -0.0844 
     10 C10       -53.6794  -28.5781    7.6085 C.ar      14 UNK        -0.0881 
     11 C11       -52.9859  -28.7494    8.8107 C.ar      14 UNK        -0.0643 
     12 C12       -52.5155  -30.0195    9.1609 C.ar      14 UNK        -0.0930 
     13 C13       -52.7237  -31.1094    8.3101 C.ar      14 UNK        -0.0827 
     14 C14       -53.3851  -30.9159    7.0948 C.ar      14 UNK        -0.1249 
     15 C15       -52.2344  -32.5005    8.6856 C.3       14 UNK         0.0141 
     16 S16       -53.6105  -33.5735    9.2155 S.3       14 UNK        -0.2313 
     17 C17       -53.8366  -33.0682   10.9527 C.3       14 UNK        -0.0915 
     18 CA        -54.8551  -31.9086   11.1458 C.3       13 UNK         0.0968 
     19 C         -56.3285  -32.4048   11.2408 C.2       13 UNK         0.5732 
     20 N         -57.0511  -32.1373   12.3226 N.am      13 UNK        -0.7310 
     21 O         -56.8342  -33.0322   10.3137 O.2       13 UNK        -0.5035 
     22 N         -54.4267  -31.0525   12.2624 N.am      13 UNK        -0.4233 
     23 C         -54.6234  -29.7330   12.3438 C.2       13 UNK         0.4989 
     24 O         -55.2557  -29.0713   11.5163 O.2       13 UNK        -0.4996 
     25 CA        -53.9720  -29.0313   13.5436 C.3       12 UNK         0.0216 
     26 CB        -52.4502  -29.2991   13.6033 C.3       12 UNK        -0.1964 
     27 N         -54.2248  -27.5963   13.4415 N.am      12 UNK        -0.4276 
     28 C         -54.0811  -26.7016   14.4229 C.2       12 UNK         0.5020 
     29 O         -53.7801  -27.0017   15.5797 O.2       12 UNK        -0.5489 
     30 CA        -54.3029  -25.2333   14.0242 C.3       11 UNK         0.0294 
     31 CB        -55.7915  -24.8338   14.0795 C.3       11 UNK        -0.2019 
     32 N         -53.4297  -24.3332   14.7876 N.am      11 UNK        -0.4493 
     33 C         -53.5694  -23.8395   16.0271 C.2       11 UNK         0.4932 
     34 O         -54.5829  -23.9358   16.7217 O.2       11 UNK        -0.5029 
     35 CA        -52.3200  -23.1198   16.5707 C.3       10 UNK         0.0280 
     36 CB        -52.5428  -22.4264   17.9321 C.3       10 UNK        -0.1976 
     37 N         -51.1720  -24.0332   16.6054 N.am      10 UNK        -0.4242 
     38 C         -51.0311  -25.1456   17.3445 C.2       10 UNK         0.5072 
     39 O         -51.7990  -25.4837   18.2463 O.2       10 UNK        -0.5224 
     40 CA        -49.8332  -26.0577   17.0202 C.3       9 UNK         0.0343 
     41 CB        -50.3008  -27.2589   16.1848 C.3       9 UNK        -0.2003 
     42 N         -48.7503  -25.3804   16.3042 N.am      9 UNK        -0.4272 
     43 C         -47.8970  -24.5112   16.8617 C.2       9 UNK         0.4988 
     44 O         -47.9038  -24.2129   18.0566 O.2       9 UNK        -0.5108 
     45 CA        -46.8714  -23.8499   15.9250 C.3       8 UNK         0.0248 
     46 CB        -45.6680  -24.7791   15.7002 C.3       8 UNK        -0.2001 
     47 N         -47.4389  -23.4465   14.6333 N.am      8 UNK        -0.4140 
     48 C         -48.4029  -22.5239   14.4860 C.2       8 UNK         0.5028 
     49 O         -48.9124  -21.9075   15.4219 O.2       8 UNK        -0.5428 
     50 CA        -48.9092  -22.2576   13.0601 C.3       7 UNK         0.0264 
     51 CB        -47.9145  -21.3789   12.2846 C.3       7 UNK        -0.1988 
     52 N         -49.1753  -23.4880   12.3134 N.am      7 UNK        -0.4454 
     53 C         -50.1249  -24.3819   12.6294 C.2       7 UNK         0.5027 
     54 O         -50.9186  -24.2339   13.5593 O.2       7 UNK        -0.5083 
     55 CA        -50.1741  -25.6781   11.7942 C.3       6 UNK         0.0844 
     56 C56       -50.9654  -25.4470   10.4820 C.3       14 UNK        -0.0967 
     57 S57       -51.0441  -26.9246    9.4178 S.3       14 UNK        -0.2604 
     58 C58       -52.7179  -27.5560    9.7143 C.3       14 UNK         0.0134 
     59 N         -48.8309  -26.2304   11.5786 N.am      6 UNK        -0.4116 
     60 C         -48.0006  -26.6212   12.5578 C.2       5 UNK         0.5034 
     61 O         -48.2835  -26.5918   13.7546 O.2       5 UNK        -0.5045 
     62 CA        -46.5946  -27.0699   12.1413 C.3       5 UNK         0.0224 
     63 CB        -46.5999  -28.5313   11.6644 C.3       5 UNK        -0.1978 
     64 N         -46.0416  -26.2014   11.1024 N.am      5 UNK        -0.4737 
     65 C         -45.6114  -24.9512   11.3174 C.2       4 UNK         0.5027 
     66 O         -45.6031  -24.4120   12.4240 O.2       4 UNK        -0.5211 
     67 CA        -45.1475  -24.1568   10.0842 C.3       4 UNK         0.0297 
     68 CB        -43.6942  -24.5080    9.7296 C.3       4 UNK        -0.1993 
     69 N         -46.0045  -24.3587    8.9117 N.am      4 UNK        -0.4486 
     70 C         -47.2910  -23.9904    8.8526 C.2       3 UNK         0.4961 
     71 O         -47.8893  -23.4411    9.7768 O.2       3 UNK        -0.5105 
     72 CA        -48.0573  -24.3109    7.5604 C.3       3 UNK         0.0299 
     73 CB        -47.7334  -23.2801    6.4673 C.3       3 UNK        -0.1972 
     74 N         -47.9072  -25.6660    7.0141 N.am      3 UNK        -0.4305 
     75 C         -47.9164  -26.8244    7.6905 C.2       2 UNK         0.5006 
     76 O         -47.7577  -26.9204    8.9071 O.2       2 UNK        -0.5106 
     77 CA        -48.2559  -28.0804    6.8657 C.3       2 UNK         0.0296 
     78 CB        -48.1050  -29.3799    7.6794 C.3       2 UNK        -0.2002 
     79 N         -49.6398  -27.9779    6.3945 N.am      2 UNK        -0.4032 
     80 C         -50.0281  -27.2749    5.3230 C.2       1 UNK         0.5000 
     81 O         -49.2368  -26.7886    4.5084 O.2       1 UNK        -0.5238 
     82 H82       -52.7149  -22.7282    4.7085 H         1 UNK         0.0889 
     83 H83       -52.1636  -23.5668    3.2566 H         1 UNK         0.0889 
     84 H84       -51.0049  -22.7010    4.2683 H         1 UNK         0.0889 
     85 H85       -52.0332  -25.7861    3.5434 H         1 UNK         0.3028 
     86 H86       -51.9656  -27.0034    6.1673 H         1 UNK         0.0864 
     87 H87       -51.9421  -29.1730    4.8176 H         1 UNK         0.0720 
     88 H88       -51.8915  -28.2268    3.3537 H         1 UNK         0.0720 
     89 H89       -54.4524  -30.3685    4.7760 H         1 UNK         0.0814 
     90 H90       -55.6534  -29.3953    5.5861 H         1 UNK         0.0814 
     91 H91       -54.0511  -27.5989    7.3390 H         1 UNK         0.1469 
     92 H92       -51.9867  -30.1557   10.0942 H         1 UNK         0.1381 
     93 H93       -53.5361  -31.7592    6.4344 H         1 UNK         0.1206 
     94 H94       -51.7533  -32.9545    7.8180 H         1 UNK         0.0813 
     95 H95       -51.4696  -32.4532    9.4621 H         1 UNK         0.0813 
     96 H96       -52.8544  -32.7858   11.3349 H         1 UNK         0.0638 
     97 H97       -54.1265  -33.9443   11.5358 H         1 UNK         0.0638 
     98 H98       -54.8288  -31.2894   10.2478 H         1 UNK         0.0568 
     99 H99       -58.0051  -32.4586   12.3694 H         1 UNK         0.3450 
    100 H100      -56.6553  -31.6165   13.0880 H         1 UNK         0.3450 
    101 H101      -53.9280  -31.5195   13.0051 H         1 UNK         0.2987 
    102 H102      -54.4476  -29.4103   14.4506 H         1 UNK         0.0766 
    103 H103      -51.9997  -28.8238   14.4728 H         1 UNK         0.0798 
    104 H104      -51.9357  -28.9246   12.7179 H         1 UNK         0.0798 
    105 H105      -52.2269  -30.3629   13.6857 H         1 UNK         0.0798 
    106 H106      -54.5784  -27.3124   12.5351 H         1 UNK         0.3198 
    107 H107      -53.9734  -25.1244   12.9893 H         1 UNK         0.0843 
    108 H108      -55.9300  -23.7763   13.8548 H         1 UNK         0.0831 
    109 H109      -56.2313  -25.0326   15.0572 H         1 UNK         0.0831 
    110 H110      -56.3716  -25.3996   13.3498 H         1 UNK         0.0831 
    111 H111      -52.5099  -24.2099   14.3628 H         1 UNK         0.3133 
    112 H112      -52.0657  -22.3423   15.8485 H         1 UNK         0.0566 
    113 H113      -51.6368  -21.9256   18.2733 H         1 UNK         0.0814 
    114 H114      -53.3241  -21.6695   17.8557 H         1 UNK         0.0814 
    115 H115      -52.8508  -23.1285   18.7071 H         1 UNK         0.0814 
    116 H116      -50.4776  -23.8704   15.8873 H         1 UNK         0.3091 
    117 H117      -49.4381  -26.4326   17.9667 H         1 UNK         0.0702 
    118 H118      -49.4871  -27.9614   16.0038 H         1 UNK         0.0785 
    119 H119      -50.6908  -26.9392   15.2173 H         1 UNK         0.0785 
    120 H120      -51.0975  -27.8043   16.6928 H         1 UNK         0.0785 
    121 H121      -48.6308  -25.6286   15.3240 H         1 UNK         0.2998 
    122 H122      -46.5110  -22.9458   16.4199 H         1 UNK         0.0697 
    123 H123      -44.8889  -24.2851   15.1194 H         1 UNK         0.0825 
    124 H124      -45.2225  -25.0794   16.6496 H         1 UNK         0.0825 
    125 H125      -45.9538  -25.6885   15.1709 H         1 UNK         0.0825 
    126 H126      -47.0396  -23.8789   13.8058 H         1 UNK         0.3029 
    127 H127      -49.8510  -21.7104   13.1420 H         1 UNK         0.0897 
    128 H128      -48.3122  -21.0993   11.3089 H         1 UNK         0.0792 
    129 H129      -47.7032  -20.4553   12.8252 H         1 UNK         0.0792 
    130 H130      -46.9643  -21.8894   12.1226 H         1 UNK         0.0792 
    131 H131      -48.6017  -23.6479   11.4869 H         1 UNK         0.3086 
    132 H132      -50.7233  -26.4158   12.3835 H         1 UNK         0.0583 
    133 H133      -51.9798  -25.1079   10.7006 H         1 UNK         0.1020 
    134 H134      -50.5044  -24.6504    9.8947 H         1 UNK         0.1020 
    135 H135      -52.8162  -27.8428   10.7604 H         1 UNK         0.0694 
    136 H136      -53.4486  -26.7664    9.5324 H         1 UNK         0.0694 
    137 H137      -48.5235  -26.3288   10.6147 H         1 UNK         0.2989 
    138 H138      -45.9503  -27.0039   13.0208 H         1 UNK         0.1055 
    139 H139      -46.9599  -29.1939   12.4526 H         1 UNK         0.0806 
    140 H140      -45.5976  -28.8639   11.3945 H         1 UNK         0.0806 
    141 H141      -47.2463  -28.6780   10.7988 H         1 UNK         0.0806 
    142 H142      -46.1471  -26.5203   10.1457 H         1 UNK         0.3061 
    143 H143      -45.1866  -23.0967   10.3448 H         1 UNK         0.0734 
    144 H144      -43.3220  -23.8857    8.9156 H         1 UNK         0.0832 
    145 H145      -43.0359  -24.3473   10.5848 H         1 UNK         0.0832 
    146 H146      -43.5903  -25.5519    9.4309 H         1 UNK         0.0832 
    147 H147      -45.6007  -24.8275    8.1137 H         1 UNK         0.3156 
    148 H148      -49.1164  -24.2078    7.8020 H         1 UNK         0.0589 
    149 H149      -46.7085  -23.3799    6.1081 H         1 UNK         0.0808 
    150 H150      -48.4019  -23.3874    5.6127 H         1 UNK         0.0808 
    151 H151      -47.8522  -22.2619    6.8410 H         1 UNK         0.0808 
    152 H152      -48.0681  -25.7437    6.0165 H         1 UNK         0.3098 
    153 H153      -47.5720  -28.1277    6.0157 H         1 UNK         0.0720 
    154 H154      -47.0870  -29.4882    8.0559 H         1 UNK         0.0791 
    155 H155      -48.3211  -30.2568    7.0691 H         1 UNK         0.0791 
    156 H156      -48.7751  -29.3984    8.5405 H         1 UNK         0.0791 
    157 H157      -50.3469  -28.3016    7.0411 H         1 UNK         0.3028 
@<TRIPOS>BOND
     1    1    2 1    
     2    1   82 1    
     3    1   83 1    
     4    1   84 1    
     5    2    3 2    
     6    2    4 am   BACKBONE|DICT|INTERRES
     7    4    5 1    
     8    4   85 1    
     9    5    6 1    
    10    5   80 1    
    11    5   86 1    
    12    6    7 1    
    13    6   87 1    
    14    6   88 1    
    15    7    8 1    
    16    8    9 1    
    17    8   89 1    
    18    8   90 1    
    19    9   10 ar   
    20    9   14 ar   
    21   10   11 ar   
    22   10   91 1    
    23   11   12 ar   
    24   11   58 1    
    25   12   13 ar   
    26   12   92 1    
    27   13   14 ar   
    28   13   15 1    
    29   14   93 1    
    30   15   16 1    
    31   15   94 1    
    32   15   95 1    
    33   16   17 1    
    34   17   18 1    
    35   17   96 1    
    36   17   97 1    
    37   18   19 1    
    38   18   22 1    
    39   18   98 1    
    40   19   20 am   BACKBONE|DICT|INTERRES
    41   19   21 2    
    42   20   99 1    
    43   20  100 1    
    44   22   23 am   BACKBONE|DICT|INTERRES
    45   22  101 1    
    46   23   24 2    
    47   23   25 1    
    48   25   26 1    
    49   25   27 1    
    50   25  102 1    
    51   26  103 1    
    52   26  104 1    
    53   26  105 1    
    54   27   28 am   BACKBONE|DICT|INTERRES
    55   27  106 1    
    56   28   29 2    
    57   28   30 1    
    58   30   31 1    
    59   30   32 1    
    60   30  107 1    
    61   31  108 1    
    62   31  109 1    
    63   31  110 1    
    64   32   33 am   BACKBONE|DICT|INTERRES
    65   32  111 1    
    66   33   34 2    
    67   33   35 1    
    68   35   36 1    
    69   35   37 1    
    70   35  112 1    
    71   36  113 1    
    72   36  114 1    
    73   36  115 1    
    74   37   38 am   BACKBONE|DICT|INTERRES
    75   37  116 1    
    76   38   39 2    
    77   38   40 1    
    78   40   41 1    
    79   40   42 1    
    80   40  117 1    
    81   41  118 1    
    82   41  119 1    
    83   41  120 1    
    84   42   43 am   BACKBONE|DICT|INTERRES
    85   42  121 1    
    86   43   44 2    
    87   43   45 1    
    88   45   46 1    
    89   45   47 1    
    90   45  122 1    
    91   46  123 1    
    92   46  124 1    
    93   46  125 1    
    94   47   48 am   BACKBONE|DICT|INTERRES
    95   47  126 1    
    96   48   49 2    
    97   48   50 1    
    98   50   51 1    
    99   50   52 1    
   100   50  127 1    
   101   51  128 1    
   102   51  129 1    
   103   51  130 1    
   104   52   53 am   BACKBONE|DICT|INTERRES
   105   52  131 1    
   106   53   54 2    
   107   53   55 1    
   108   55   56 1    
   109   55   59 1    
   110   55  132 1    
   111   56   57 1    
   112   56  133 1    
   113   56  134 1    
   114   57   58 1    
   115   58  135 1    
   116   58  136 1    
   117   59   60 am   BACKBONE|DICT|INTERRES
   118   59  137 1    
   119   60   61 2    
   120   60   62 1    
   121   62   63 1    
   122   62   64 1    
   123   62  138 1    
   124   63  139 1    
   125   63  140 1    
   126   63  141 1    
   127   64   65 am   BACKBONE|DICT|INTERRES
   128   64  142 1    
   129   65   66 2    
   130   65   67 1    
   131   67   68 1    
   132   67   69 1    
   133   67  143 1    
   134   68  144 1    
   135   68  145 1    
   136   68  146 1    
   137   69   70 am   BACKBONE|DICT|INTERRES
   138   69  147 1    
   139   70   71 2    
   140   70   72 1    
   141   72   73 1    
   142   72   74 1    
   143   72  148 1    
   144   73  149 1    
   145   73  150 1    
   146   73  151 1    
   147   74   75 am   BACKBONE|DICT|INTERRES
   148   74  152 1    
   149   75   76 2    
   150   75   77 1    
   151   77   78 1    
   152   77   79 1    
   153   77  153 1    
   154   78  154 1    
   155   78  155 1    
   156   78  156 1    
   157   79   80 am   BACKBONE|DICT|INTERRES
   158   79  157 1    
   159   80   81 2    
@<TRIPOS>SUBSTRUCTURE
     1 UNK         1 GROUP             0       ****    0 ROOT    
