@<TRIPOS>MOLECULE
3R207
157   159    1
SMALL
USER_CHARGES


@<TRIPOS>ATOM
      1 CA        -48.9725  -30.5548    0.5528 C.3       0 UNK        -0.1975 
      2 C         -49.1364  -29.2933    1.3883 C.2       0 UNK         0.4852 
      3 O         -49.0432  -28.1884    0.8507 O.2       0 UNK        -0.5216 
      4 N         -49.3894  -29.4523    2.6934 N.am      1 UNK        -0.4461 
      5 CA        -49.5088  -28.3649    3.6705 C.3       1 UNK         0.0864 
      6 C6        -50.5189  -28.7276    4.7920 C.3       14 UNK        -0.0898 
      7 S7        -50.1096  -30.2133    5.7791 S.3       14 UNK        -0.2598 
      8 C8        -49.4729  -29.5053    7.3332 C.3       14 UNK         0.0286 
      9 C9        -50.5698  -28.9488    8.2359 C.ar      14 UNK        -0.0844 
     10 C10       -50.9798  -27.6206    8.1084 C.ar      14 UNK        -0.0881 
     11 C11       -51.9902  -27.0956    8.9190 C.ar      14 UNK        -0.0643 
     12 C12       -52.5558  -27.9055    9.9084 C.ar      14 UNK        -0.0930 
     13 C13       -52.1505  -29.2387   10.0645 C.ar      14 UNK        -0.0827 
     14 C14       -51.1573  -29.7498    9.2196 C.ar      14 UNK        -0.1249 
     15 C15       -52.7533  -30.1528   11.1333 C.3       14 UNK         0.0141 
     16 S16       -54.4945  -29.7898   11.5515 S.3       14 UNK        -0.2313 
     17 C17       -54.9453  -31.2772   12.5109 C.3       14 UNK        -0.0915 
     18 CA        -55.3250  -31.0065   13.9917 C.3       13 UNK         0.0968 
     19 C         -54.1030  -30.6656   14.8966 C.2       13 UNK         0.5732 
     20 N         -54.1545  -29.6439   15.7429 N.am      13 UNK        -0.7310 
     21 O         -53.0895  -31.3582   14.8452 O.2       13 UNK        -0.5035 
     22 N         -56.4549  -30.0707   14.0995 N.am      13 UNK        -0.4233 
     23 C         -57.3818  -30.1032   15.0637 C.2       13 UNK         0.4989 
     24 O         -57.4330  -30.9764   15.9325 O.2       13 UNK        -0.4996 
     25 CA        -58.4211  -28.9621   15.0526 C.3       12 UNK         0.0216 
     26 CB        -59.2607  -28.9153   16.3477 C.3       12 UNK        -0.1964 
     27 N         -57.8585  -27.6303   14.7747 N.am      12 UNK        -0.4276 
     28 C         -56.8552  -27.0237   15.4267 C.2       12 UNK         0.5020 
     29 O         -56.1658  -27.5634   16.2950 O.2       12 UNK        -0.5489 
     30 CA        -56.6086  -25.5530   15.0691 C.3       11 UNK         0.0294 
     31 CB        -57.6735  -24.6561   15.7341 C.3       11 UNK        -0.2019 
     32 N         -55.2701  -25.1660   15.5116 N.am      11 UNK        -0.4493 
     33 C         -54.6156  -24.0545   15.1572 C.2       11 UNK         0.4932 
     34 O         -55.0790  -23.2052   14.3952 O.2       11 UNK        -0.5029 
     35 CA        -53.2013  -23.8486   15.7279 C.3       10 UNK         0.0280 
     36 CB        -53.2248  -23.5359   17.2375 C.3       10 UNK        -0.1976 
     37 N         -52.2804  -24.9403   15.3949 N.am      10 UNK        -0.4242 
     38 C         -52.2863  -26.2053   15.8376 C.2       10 UNK         0.5072 
     39 O         -53.0590  -26.6361   16.6935 O.2       10 UNK        -0.5224 
     40 CA        -51.2730  -27.1629   15.1945 C.3       9 UNK         0.0343 
     41 CB        -51.7935  -27.6437   13.8294 C.3       9 UNK        -0.2003 
     42 N         -49.9414  -26.5775   15.0266 N.am      9 UNK        -0.4272 
     43 C         -49.1067  -26.2545   16.0248 C.2       9 UNK         0.4988 
     44 O         -49.3679  -26.4132   17.2178 O.2       9 UNK        -0.5108 
     45 CA        -47.7402  -25.6671   15.6268 C.3       8 UNK         0.0248 
     46 CB        -46.7825  -26.7764   15.1621 C.3       8 UNK        -0.2001 
     47 N         -47.8451  -24.6397   14.5888 N.am      8 UNK        -0.4140 
     48 C         -48.3819  -23.4258   14.7792 C.2       8 UNK         0.5028 
     49 O         -48.7744  -23.0115   15.8706 O.2       8 UNK        -0.5428 
     50 CA        -48.5311  -22.5254   13.5397 C.3       7 UNK         0.0264 
     51 CB        -47.2274  -21.7636   13.2527 C.3       7 UNK        -0.1988 
     52 N         -48.9495  -23.2564   12.3407 N.am      7 UNK        -0.4454 
     53 C         -50.1091  -23.9210   12.2228 C.2       7 UNK         0.5027 
     54 O         -50.9676  -23.9652   13.1036 O.2       7 UNK        -0.5083 
     55 CA        -50.3394  -24.6946   10.9115 C.3       6 UNK         0.0844 
     56 C56       -50.8336  -23.7126    9.8201 C.3       14 UNK        -0.0967 
     57 S57       -51.2515  -24.4687    8.2202 S.3       14 UNK        -0.2604 
     58 C58       -52.5299  -25.6853    8.6860 C.3       14 UNK         0.0134 
     59 N         -49.1595  -25.4827   10.5291 N.am      6 UNK        -0.4116 
     60 C         -48.6237  -26.4460   11.2985 C.2       5 UNK         0.5034 
     61 O         -49.1102  -26.8226   12.3617 O.2       5 UNK        -0.5045 
     62 CA        -47.2753  -27.0407   10.8722 C.3       5 UNK         0.0224 
     63 CB        -47.4622  -28.1771    9.8639 C.3       5 UNK        -0.1978 
     64 N         -46.3810  -26.0212   10.3284 N.am      5 UNK        -0.4737 
     65 C         -45.7990  -25.0709   11.0729 C.2       4 UNK         0.5027 
     66 O         -45.9044  -25.0024   12.2974 O.2       4 UNK        -0.5211 
     67 CA        -45.0066  -23.9921   10.3163 C.3       4 UNK         0.0297 
     68 CB        -43.5568  -24.4474   10.0885 C.3       4 UNK        -0.1993 
     69 N         -45.6213  -23.6417    9.0324 N.am      4 UNK        -0.4486 
     70 C         -46.8189  -23.0522    8.9051 C.2       3 UNK         0.4961 
     71 O         -47.5053  -22.6891    9.8606 O.2       3 UNK        -0.5105 
     72 CA        -47.3582  -22.8770    7.4747 C.3       3 UNK         0.0299 
     73 CB        -46.8888  -21.5388    6.8831 C.3       3 UNK        -0.1972 
     74 N         -46.9899  -23.9746    6.5703 N.am      3 UNK        -0.4305 
     75 C         -47.4204  -25.2364    6.7039 C.2       2 UNK         0.5006 
     76 O         -48.1468  -25.6176    7.6224 O.2       2 UNK        -0.5106 
     77 CA        -46.9349  -26.2583    5.6716 C.3       2 UNK         0.0296 
     78 CB        -45.9484  -27.2406    6.3414 C.3       2 UNK        -0.2002 
     79 N         -48.1109  -26.9342    5.1152 N.am      2 UNK        -0.4032 
     80 C         -48.1206  -27.8931    4.1770 C.2       1 UNK         0.5000 
     81 O         -47.0927  -28.3802    3.6962 O.2       1 UNK        -0.5238 
     82 H82       -49.7111  -30.5735   -0.2482 H         1 UNK         0.0889 
     83 H83       -49.0968  -31.4582    1.1497 H         1 UNK         0.0889 
     84 H84       -47.9803  -30.5797    0.1030 H         1 UNK         0.0889 
     85 H85       -49.4241  -30.3827    3.0857 H         1 UNK         0.3028 
     86 H86       -49.9297  -27.5009    3.1512 H         1 UNK         0.0864 
     87 H87       -50.6961  -27.8710    5.4347 H         1 UNK         0.0720 
     88 H88       -51.4899  -28.9205    4.3329 H         1 UNK         0.0720 
     89 H89       -48.9183  -30.2789    7.8663 H         1 UNK         0.0814 
     90 H90       -48.7480  -28.7297    7.0942 H         1 UNK         0.0814 
     91 H91       -50.5142  -26.9870    7.3701 H         1 UNK         0.1469 
     92 H92       -53.3279  -27.4970   10.5446 H         1 UNK         0.1381 
     93 H93       -50.8356  -30.7766    9.3289 H         1 UNK         0.1206 
     94 H94       -52.1485  -30.0945   12.0382 H         1 UNK         0.0813 
     95 H95       -52.6961  -31.1866   10.7889 H         1 UNK         0.0813 
     96 H96       -54.1467  -32.0185   12.4523 H         1 UNK         0.0638 
     97 H97       -55.7956  -31.7372   12.0053 H         1 UNK         0.0638 
     98 H98       -55.6696  -31.9675   14.3779 H         1 UNK         0.0568 
     99 H99       -53.3566  -29.4481   16.3239 H         1 UNK         0.3450 
    100 H100      -54.9785  -29.0571   15.8278 H         1 UNK         0.3450 
    101 H101      -56.4622  -29.3121   13.4340 H         1 UNK         0.2987 
    102 H102      -59.1011  -29.1870   14.2295 H         1 UNK         0.0766 
    103 H103      -60.0188  -28.1334   16.3018 H         1 UNK         0.0798 
    104 H104      -58.6383  -28.7269   17.2234 H         1 UNK         0.0798 
    105 H105      -59.7822  -29.8588   16.5144 H         1 UNK         0.0798 
    106 H106      -58.3414  -27.1018   14.0603 H         1 UNK         0.3198 
    107 H107      -56.6609  -25.4471   13.9834 H         1 UNK         0.0843 
    108 H108      -57.6210  -24.7142   16.8221 H         1 UNK         0.0831 
    109 H109      -58.6813  -24.9522   15.4408 H         1 UNK         0.0831 
    110 H110      -57.5559  -23.6104   15.4502 H         1 UNK         0.0831 
    111 H111      -54.7998  -25.8496   16.1047 H         1 UNK         0.3133 
    112 H112      -52.7872  -22.9712   15.2283 H         1 UNK         0.0566 
    113 H113      -52.2206  -23.3444   17.6157 H         1 UNK         0.0814 
    114 H114      -53.8229  -22.6461   17.4376 H         1 UNK         0.0814 
    115 H115      -53.6539  -24.3491   17.8231 H         1 UNK         0.0814 
    116 H116      -51.6349  -24.7130   14.6394 H         1 UNK         0.3091 
    117 H117      -51.1768  -28.0326   15.8476 H         1 UNK         0.0702 
    118 H118      -52.7965  -28.0626   13.9090 H         1 UNK         0.0785 
    119 H119      -51.8414  -26.8302   13.1048 H         1 UNK         0.0785 
    120 H120      -51.1483  -28.4183   13.4158 H         1 UNK         0.0785 
    121 H121      -49.6172  -26.4759   14.0662 H         1 UNK         0.2998 
    122 H122      -47.3075  -25.2017   16.5151 H         1 UNK         0.0697 
    123 H123      -47.1510  -27.2828   14.2697 H         1 UNK         0.0825 
    124 H124      -46.6565  -27.5328   15.9378 H         1 UNK         0.0825 
    125 H125      -45.7941  -26.3767   14.9339 H         1 UNK         0.0825 
    126 H126      -47.4809  -24.8722   13.6707 H         1 UNK         0.3029 
    127 H127      -49.3100  -21.7925   13.7615 H         1 UNK         0.0897 
    128 H128      -47.3452  -21.0773   12.4138 H         1 UNK         0.0792 
    129 H129      -46.4062  -22.4405   13.0172 H         1 UNK         0.0792 
    130 H130      -46.9241  -21.1715   14.1172 H         1 UNK         0.0792 
    131 H131      -48.3237  -23.2234   11.5391 H         1 UNK         0.3086 
    132 H132      -51.1387  -25.4097   11.1113 H         1 UNK         0.0583 
    133 H133      -51.7224  -23.1812   10.1674 H         1 UNK         0.1020 
    134 H134      -50.0871  -22.9407    9.6292 H         1 UNK         0.1020 
    135 H135      -53.0751  -25.3254    9.5599 H         1 UNK         0.0694 
    136 H136      -53.2573  -25.7378    7.8752 H         1 UNK         0.0694 
    137 H137      -48.7381  -25.2746    9.6307 H         1 UNK         0.2989 
    138 H138      -46.8059  -27.4620   11.7642 H         1 UNK         0.1055 
    139 H139      -48.1140  -28.9537   10.2667 H         1 UNK         0.0806 
    140 H140      -46.5128  -28.6457    9.6051 H         1 UNK         0.0806 
    141 H141      -47.9206  -27.8079    8.9511 H         1 UNK         0.0806 
    142 H142      -46.2939  -25.9757    9.3238 H         1 UNK         0.3061 
    143 H143      -44.9907  -23.0947   10.9388 H         1 UNK         0.0734 
    144 H144      -42.9624  -23.6623    9.6208 H         1 UNK         0.0832 
    145 H145      -43.0746  -24.6951   11.0353 H         1 UNK         0.0832 
    146 H146      -43.5036  -25.3337    9.4550 H         1 UNK         0.0832 
    147 H147      -45.1185  -23.8950    8.1946 H         1 UNK         0.3156 
    148 H148      -48.4483  -22.8539    7.5393 H         1 UNK         0.0589 
    149 H149      -45.8051  -21.5045    6.7644 H         1 UNK         0.0808 
    150 H150      -47.3406  -21.3554    5.9080 H         1 UNK         0.0808 
    151 H151      -47.1720  -20.7069    7.5298 H         1 UNK         0.0808 
    152 H152      -46.3907  -23.7404    5.7911 H         1 UNK         0.3098 
    153 H153      -46.4247  -25.7362    4.8600 H         1 UNK         0.0720 
    154 H154      -45.1684  -26.7066    6.8857 H         1 UNK         0.0791 
    155 H155      -45.4417  -27.8681    5.6091 H         1 UNK         0.0791 
    156 H156      -46.4492  -27.8983    7.0504 H         1 UNK         0.0791 
    157 H157      -48.9897  -26.5804    5.4685 H         1 UNK         0.3028 
@<TRIPOS>BOND
     1    1    2 1    
     2    1   82 1    
     3    1   83 1    
     4    1   84 1    
     5    2    3 2    
     6    2    4 am   BACKBONE|DICT|INTERRES
     7    4    5 1    
     8    4   85 1    
     9    5    6 1    
    10    5   80 1    
    11    5   86 1    
    12    6    7 1    
    13    6   87 1    
    14    6   88 1    
    15    7    8 1    
    16    8    9 1    
    17    8   89 1    
    18    8   90 1    
    19    9   10 ar   
    20    9   14 ar   
    21   10   11 ar   
    22   10   91 1    
    23   11   12 ar   
    24   11   58 1    
    25   12   13 ar   
    26   12   92 1    
    27   13   14 ar   
    28   13   15 1    
    29   14   93 1    
    30   15   16 1    
    31   15   94 1    
    32   15   95 1    
    33   16   17 1    
    34   17   18 1    
    35   17   96 1    
    36   17   97 1    
    37   18   19 1    
    38   18   22 1    
    39   18   98 1    
    40   19   20 am   BACKBONE|DICT|INTERRES
    41   19   21 2    
    42   20   99 1    
    43   20  100 1    
    44   22   23 am   BACKBONE|DICT|INTERRES
    45   22  101 1    
    46   23   24 2    
    47   23   25 1    
    48   25   26 1    
    49   25   27 1    
    50   25  102 1    
    51   26  103 1    
    52   26  104 1    
    53   26  105 1    
    54   27   28 am   BACKBONE|DICT|INTERRES
    55   27  106 1    
    56   28   29 2    
    57   28   30 1    
    58   30   31 1    
    59   30   32 1    
    60   30  107 1    
    61   31  108 1    
    62   31  109 1    
    63   31  110 1    
    64   32   33 am   BACKBONE|DICT|INTERRES
    65   32  111 1    
    66   33   34 2    
    67   33   35 1    
    68   35   36 1    
    69   35   37 1    
    70   35  112 1    
    71   36  113 1    
    72   36  114 1    
    73   36  115 1    
    74   37   38 am   BACKBONE|DICT|INTERRES
    75   37  116 1    
    76   38   39 2    
    77   38   40 1    
    78   40   41 1    
    79   40   42 1    
    80   40  117 1    
    81   41  118 1    
    82   41  119 1    
    83   41  120 1    
    84   42   43 am   BACKBONE|DICT|INTERRES
    85   42  121 1    
    86   43   44 2    
    87   43   45 1    
    88   45   46 1    
    89   45   47 1    
    90   45  122 1    
    91   46  123 1    
    92   46  124 1    
    93   46  125 1    
    94   47   48 am   BACKBONE|DICT|INTERRES
    95   47  126 1    
    96   48   49 2    
    97   48   50 1    
    98   50   51 1    
    99   50   52 1    
   100   50  127 1    
   101   51  128 1    
   102   51  129 1    
   103   51  130 1    
   104   52   53 am   BACKBONE|DICT|INTERRES
   105   52  131 1    
   106   53   54 2    
   107   53   55 1    
   108   55   56 1    
   109   55   59 1    
   110   55  132 1    
   111   56   57 1    
   112   56  133 1    
   113   56  134 1    
   114   57   58 1    
   115   58  135 1    
   116   58  136 1    
   117   59   60 am   BACKBONE|DICT|INTERRES
   118   59  137 1    
   119   60   61 2    
   120   60   62 1    
   121   62   63 1    
   122   62   64 1    
   123   62  138 1    
   124   63  139 1    
   125   63  140 1    
   126   63  141 1    
   127   64   65 am   BACKBONE|DICT|INTERRES
   128   64  142 1    
   129   65   66 2    
   130   65   67 1    
   131   67   68 1    
   132   67   69 1    
   133   67  143 1    
   134   68  144 1    
   135   68  145 1    
   136   68  146 1    
   137   69   70 am   BACKBONE|DICT|INTERRES
   138   69  147 1    
   139   70   71 2    
   140   70   72 1    
   141   72   73 1    
   142   72   74 1    
   143   72  148 1    
   144   73  149 1    
   145   73  150 1    
   146   73  151 1    
   147   74   75 am   BACKBONE|DICT|INTERRES
   148   74  152 1    
   149   75   76 2    
   150   75   77 1    
   151   77   78 1    
   152   77   79 1    
   153   77  153 1    
   154   78  154 1    
   155   78  155 1    
   156   78  156 1    
   157   79   80 am   BACKBONE|DICT|INTERRES
   158   79  157 1    
   159   80   81 2    
@<TRIPOS>SUBSTRUCTURE
     1 UNK         1 GROUP             0       ****    0 ROOT    
