@<TRIPOS>MOLECULE
3R207
157   159    1
SMALL
USER_CHARGES


@<TRIPOS>ATOM
      1 CA        -45.3127  -30.3563    8.4651 C.3       0 UNK        -0.1975 
      2 C         -45.6794  -29.6607    7.1625 C.2       0 UNK         0.4852 
      3 O         -44.8592  -28.9274    6.6085 O.2       0 UNK        -0.5216 
      4 N         -46.9040  -29.8889    6.6714 N.am      1 UNK        -0.4461 
      5 CA        -47.4858  -29.2120    5.5079 C.3       1 UNK         0.0864 
      6 C6        -48.6428  -30.0469    4.8932 C.3       14 UNK        -0.0898 
      7 S7        -50.0588  -30.3051    6.0201 S.3       14 UNK        -0.2598 
      8 C8        -51.3165  -29.1919    5.3005 C.3       14 UNK         0.0286 
      9 C9        -52.2591  -28.5868    6.3384 C.ar      14 UNK        -0.0844 
     10 C10       -52.5993  -27.2315    6.2620 C.ar      14 UNK        -0.0881 
     11 C11       -53.5049  -26.6647    7.1649 C.ar      14 UNK        -0.0643 
     12 C12       -54.0516  -27.4671    8.1728 C.ar      14 UNK        -0.0930 
     13 C13       -53.7109  -28.8202    8.2767 C.ar      14 UNK        -0.0827 
     14 C14       -52.8319  -29.3757    7.3415 C.ar      14 UNK        -0.1249 
     15 C15       -54.3264  -29.6835    9.3733 C.3       14 UNK         0.0141 
     16 S16       -53.0758  -30.6279   10.3051 S.3       14 UNK        -0.2313 
     17 C17       -53.9931  -31.0468   11.8289 C.3       14 UNK        -0.0915 
     18 CA        -53.5816  -30.1838   13.0531 C.3       13 UNK         0.0968 
     19 C         -52.1667  -30.5459   13.5858 C.2       13 UNK         0.5732 
     20 N         -51.1750  -29.6660   13.5092 N.am      13 UNK        -0.7310 
     21 O         -51.9732  -31.6414   14.1077 O.2       13 UNK        -0.5035 
     22 N         -53.7566  -28.7509   12.7811 N.am      13 UNK        -0.4233 
     23 C         -54.6987  -27.9683   13.3120 C.2       13 UNK         0.4989 
     24 O         -55.5632  -28.3495   14.1047 O.2       13 UNK        -0.4996 
     25 CA        -54.6975  -26.5069   12.8426 C.3       12 UNK         0.0216 
     26 CB        -55.7925  -26.2598   11.7931 C.3       12 UNK        -0.1964 
     27 N         -54.8732  -25.5784   13.9568 N.am      12 UNK        -0.4276 
     28 C         -53.9369  -25.3495   14.8826 C.2       12 UNK         0.5020 
     29 O         -52.8047  -25.8506   14.8521 O.2       12 UNK        -0.5489 
     30 CA        -54.3291  -24.4194   16.0431 C.3       11 UNK         0.0294 
     31 CB        -55.4549  -25.0591   16.8859 C.3       11 UNK        -0.2019 
     32 N         -53.1148  -24.2578   16.8278 N.am      11 UNK        -0.4493 
     33 C         -52.9031  -23.6828   18.0150 C.2       11 UNK         0.4932 
     34 O         -53.7284  -22.9909   18.6128 O.2       11 UNK        -0.5029 
     35 CA        -51.5158  -23.9635   18.6315 C.3       10 UNK         0.0280 
     36 CB        -51.4943  -23.8468   20.1704 C.3       10 UNK        -0.1976 
     37 N         -50.9727  -25.2503   18.1625 N.am      10 UNK        -0.4242 
     38 C         -51.4625  -26.4799   18.4055 C.2       10 UNK         0.5072 
     39 O         -52.3143  -26.7170   19.2633 O.2       10 UNK        -0.5224 
     40 CA        -50.9716  -27.6384   17.5108 C.3       9 UNK         0.0343 
     41 CB        -52.1406  -28.5249   17.0406 C.3       9 UNK        -0.2003 
     42 N         -50.2324  -27.1756   16.3311 N.am      9 UNK        -0.4272 
     43 C         -48.9049  -27.0006   16.2980 C.2       9 UNK         0.4988 
     44 O         -48.1658  -27.2344   17.2551 O.2       9 UNK        -0.5108 
     45 CA        -48.2771  -26.4676   14.9967 C.3       8 UNK         0.0248 
     46 CB        -47.7638  -27.6428   14.1473 C.3       8 UNK        -0.2001 
     47 N         -49.1139  -25.5947   14.1602 N.am      8 UNK        -0.4140 
     48 C         -49.7587  -24.4870   14.5585 C.2       8 UNK         0.5028 
     49 O         -49.8377  -24.1380   15.7369 O.2       8 UNK        -0.5428 
     50 CA        -50.4116  -23.5940   13.4877 C.3       7 UNK         0.0264 
     51 CB        -49.5128  -22.3840   13.1837 C.3       7 UNK        -0.1988 
     52 N         -50.7043  -24.2919   12.2309 N.am      7 UNK        -0.4454 
     53 C         -51.8882  -24.2566   11.5957 C.2       7 UNK         0.5027 
     54 O         -52.8520  -23.6066   12.0032 O.2       7 UNK        -0.5083 
     55 CA        -52.0488  -25.0667   10.2839 C.3       6 UNK         0.0844 
     56 C56       -52.3290  -24.1587    9.0540 C.3       14 UNK        -0.0967 
     57 S57       -54.0720  -24.2507    8.5307 S.3       14 UNK        -0.2604 
     58 C58       -53.9411  -25.2103    6.9826 C.3       14 UNK         0.0134 
     59 N         -50.9244  -25.9610   10.0331 N.am      6 UNK        -0.4116 
     60 C         -50.7034  -27.1261   10.6521 C.2       5 UNK         0.5034 
     61 O         -51.4630  -27.6153   11.4899 O.2       5 UNK        -0.5045 
     62 CA        -49.3800  -27.8371   10.3176 C.3       5 UNK         0.0224 
     63 CB        -49.6298  -28.9983    9.3501 C.3       5 UNK        -0.1978 
     64 N         -48.3576  -26.9485    9.7473 N.am      5 UNK        -0.4737 
     65 C         -47.7932  -25.9281   10.4045 C.2       4 UNK         0.5027 
     66 O         -48.1150  -25.6031   11.5465 O.2       4 UNK        -0.5211 
     67 CA        -46.7507  -25.0926    9.6474 C.3       4 UNK         0.0297 
     68 CB        -45.4703  -25.9103    9.4083 C.3       4 UNK        -0.1993 
     69 N         -47.2212  -24.5323    8.3754 N.am      4 UNK        -0.4486 
     70 C         -48.3412  -23.8197    8.1765 C.2       3 UNK         0.4961 
     71 O         -49.1951  -23.6301    9.0409 O.2       3 UNK        -0.5105 
     72 CA        -48.5468  -23.1813    6.7877 C.3       3 UNK         0.0299 
     73 CB        -48.5062  -21.6484    6.9047 C.3       3 UNK        -0.1972 
     74 N         -47.5378  -23.5980    5.8063 N.am      3 UNK        -0.4305 
     75 C         -47.5438  -24.6880    5.0257 C.2       2 UNK         0.5006 
     76 O         -46.5931  -24.9475    4.2874 O.2       2 UNK        -0.5106 
     77 CA        -48.7727  -25.6198    5.0000 C.3       2 UNK         0.0296 
     78 CB        -49.7100  -25.2401    3.8419 C.3       2 UNK        -0.2002 
     79 N         -48.3482  -27.0097    4.8403 N.am      2 UNK        -0.4032 
     80 C         -47.9114  -27.7660    5.8551 C.2       1 UNK         0.5000 
     81 O         -47.8686  -27.3640    7.0219 O.2       1 UNK        -0.5238 
     82 H82       -46.1193  -30.9929    8.8287 H         1 UNK         0.0889 
     83 H83       -45.0932  -29.6160    9.2341 H         1 UNK         0.0889 
     84 H84       -44.4278  -30.9764    8.3245 H         1 UNK         0.0889 
     85 H85       -47.5446  -30.4810    7.1798 H         1 UNK         0.3028 
     86 H86       -46.7041  -29.1299    4.7495 H         1 UNK         0.0864 
     87 H87       -48.9870  -29.6070    3.9560 H         1 UNK         0.0720 
     88 H88       -48.2637  -31.0318    4.6162 H         1 UNK         0.0720 
     89 H89       -51.9036  -29.7487    4.5693 H         1 UNK         0.0814 
     90 H90       -50.8202  -28.3927    4.7501 H         1 UNK         0.0814 
     91 H91       -52.1842  -26.6205    5.4729 H         1 UNK         0.1469 
     92 H92       -54.7606  -27.0366    8.8642 H         1 UNK         0.1381 
     93 H93       -52.5875  -30.4273    7.4010 H         1 UNK         0.1206 
     94 H94       -55.0404  -30.3769    8.9275 H         1 UNK         0.0813 
     95 H95       -54.8892  -29.0617   10.0698 H         1 UNK         0.0813 
     96 H96       -53.8436  -32.1073   12.0392 H         1 UNK         0.0638 
     97 H97       -55.0629  -30.9361   11.6463 H         1 UNK         0.0638 
     98 H98       -54.2482  -30.4651   13.8700 H         1 UNK         0.0568 
     99 H99       -51.2971  -28.7975   13.0027 H         1 UNK         0.3450 
    100 H100      -50.2728  -29.9238   13.8715 H         1 UNK         0.3450 
    101 H101      -53.0547  -28.3433   12.1681 H         1 UNK         0.2987 
    102 H102      -53.7287  -26.3029   12.3918 H         1 UNK         0.0766 
    103 H103      -55.7133  -25.2584   11.3686 H         1 UNK         0.0798 
    104 H104      -56.7911  -26.3708   12.2172 H         1 UNK         0.0798 
    105 H105      -55.7127  -26.9673   10.9690 H         1 UNK         0.0798 
    106 H106      -55.7853  -25.1594   14.0623 H         1 UNK         0.3198 
    107 H107      -54.6382  -23.4503   15.6479 H         1 UNK         0.0843 
    108 H108      -56.3487  -25.2407   16.2884 H         1 UNK         0.0831 
    109 H109      -55.7586  -24.4157   17.7112 H         1 UNK         0.0831 
    110 H110      -55.1441  -26.0168   17.3065 H         1 UNK         0.0831 
    111 H111      -52.3483  -24.7767   16.4094 H         1 UNK         0.3133 
    112 H112      -50.8486  -23.1964   18.2360 H         1 UNK         0.0566 
    113 H113      -50.5112  -24.0893   20.5737 H         1 UNK         0.0814 
    114 H114      -51.7317  -22.8298   20.4845 H         1 UNK         0.0814 
    115 H115      -52.2241  -24.5057   20.6412 H         1 UNK         0.0814 
    116 H116      -50.2980  -25.1571   17.4080 H         1 UNK         0.3091 
    117 H117      -50.3212  -28.2589   18.1305 H         1 UNK         0.0702 
    118 H118      -51.7844  -29.3587   16.4361 H         1 UNK         0.0785 
    119 H119      -52.8631  -27.9653   16.4464 H         1 UNK         0.0785 
    120 H120      -52.6781  -28.9524   17.8878 H         1 UNK         0.0785 
    121 H121      -50.7852  -26.9192   15.5215 H         1 UNK         0.2998 
    122 H122      -47.4137  -25.8694   15.2939 H         1 UNK         0.0697 
    123 H123      -48.5852  -28.2168   13.7192 H         1 UNK         0.0825 
    124 H124      -47.1621  -28.3293   14.7451 H         1 UNK         0.0825 
    125 H125      -47.1305  -27.2982   13.3303 H         1 UNK         0.0825 
    126 H126      -49.0004  -25.7356   13.1610 H         1 UNK         0.3029 
    127 H127      -51.3381  -23.2272   13.9349 H         1 UNK         0.0897 
    128 H128      -50.0063  -21.6858   12.5074 H         1 UNK         0.0792 
    129 H129      -49.2694  -21.8359   14.0950 H         1 UNK         0.0792 
    130 H130      -48.5727  -22.6893   12.7218 H         1 UNK         0.0792 
    131 H131      -49.9370  -24.8025   11.8067 H         1 UNK         0.3086 
    132 H132      -52.9138  -25.7138   10.4306 H         1 UNK         0.0583 
    133 H133      -52.0784  -23.1136    9.2483 H         1 UNK         0.1020 
    134 H134      -51.7026  -24.4387    8.2056 H         1 UNK         0.1020 
    135 H135      -54.9175  -25.2085    6.4966 H         1 UNK         0.0694 
    136 H136      -53.2644  -24.6856    6.3061 H         1 UNK         0.0694 
    137 H137      -50.2036  -25.6037    9.4201 H         1 UNK         0.2989 
    138 H138      -48.9861  -28.2460   11.2498 H         1 UNK         0.1055 
    139 H139      -50.3234  -29.7226    9.7765 H         1 UNK         0.0806 
    140 H140      -48.7083  -29.5299    9.1152 H         1 UNK         0.0806 
    141 H141      -50.0627  -28.6420    8.4153 H         1 UNK         0.0806 
    142 H142      -48.0913  -27.1146    8.7748 H         1 UNK         0.3061 
    143 H143      -46.4940  -24.2472   10.2889 H         1 UNK         0.0734 
    144 H144      -45.1060  -26.3488   10.3385 H         1 UNK         0.0832 
    145 H145      -45.6368  -26.7283    8.7056 H         1 UNK         0.0832 
    146 H146      -44.6689  -25.2871    9.0116 H         1 UNK         0.0832 
    147 H147      -46.6066  -24.6586    7.5849 H         1 UNK         0.3156 
    148 H148      -49.5460  -23.4443    6.4386 H         1 UNK         0.0589 
    149 H149      -47.5428  -21.2946    7.2743 H         1 UNK         0.0808 
    150 H150      -48.6930  -21.1713    5.9424 H         1 UNK         0.0808 
    151 H151      -49.2707  -21.2877    7.5946 H         1 UNK         0.0808 
    152 H152      -46.7252  -23.0003    5.7517 H         1 UNK         0.3098 
    153 H153      -49.3346  -25.5557    5.9320 H         1 UNK         0.0720 
    154 H154      -50.5711  -25.9057    3.7884 H         1 UNK         0.0791 
    155 H155      -49.1987  -25.2785    2.8789 H         1 UNK         0.0791 
    156 H156      -50.0917  -24.2260    3.9667 H         1 UNK         0.0791 
    157 H157      -48.3051  -27.3663    3.8970 H         1 UNK         0.3028 
@<TRIPOS>BOND
     1    1    2 1    
     2    1   82 1    
     3    1   83 1    
     4    1   84 1    
     5    2    3 2    
     6    2    4 am   BACKBONE|DICT|INTERRES
     7    4    5 1    
     8    4   85 1    
     9    5    6 1    
    10    5   80 1    
    11    5   86 1    
    12    6    7 1    
    13    6   87 1    
    14    6   88 1    
    15    7    8 1    
    16    8    9 1    
    17    8   89 1    
    18    8   90 1    
    19    9   10 ar   
    20    9   14 ar   
    21   10   11 ar   
    22   10   91 1    
    23   11   12 ar   
    24   11   58 1    
    25   12   13 ar   
    26   12   92 1    
    27   13   14 ar   
    28   13   15 1    
    29   14   93 1    
    30   15   16 1    
    31   15   94 1    
    32   15   95 1    
    33   16   17 1    
    34   17   18 1    
    35   17   96 1    
    36   17   97 1    
    37   18   19 1    
    38   18   22 1    
    39   18   98 1    
    40   19   20 am   BACKBONE|DICT|INTERRES
    41   19   21 2    
    42   20   99 1    
    43   20  100 1    
    44   22   23 am   BACKBONE|DICT|INTERRES
    45   22  101 1    
    46   23   24 2    
    47   23   25 1    
    48   25   26 1    
    49   25   27 1    
    50   25  102 1    
    51   26  103 1    
    52   26  104 1    
    53   26  105 1    
    54   27   28 am   BACKBONE|DICT|INTERRES
    55   27  106 1    
    56   28   29 2    
    57   28   30 1    
    58   30   31 1    
    59   30   32 1    
    60   30  107 1    
    61   31  108 1    
    62   31  109 1    
    63   31  110 1    
    64   32   33 am   BACKBONE|DICT|INTERRES
    65   32  111 1    
    66   33   34 2    
    67   33   35 1    
    68   35   36 1    
    69   35   37 1    
    70   35  112 1    
    71   36  113 1    
    72   36  114 1    
    73   36  115 1    
    74   37   38 am   BACKBONE|DICT|INTERRES
    75   37  116 1    
    76   38   39 2    
    77   38   40 1    
    78   40   41 1    
    79   40   42 1    
    80   40  117 1    
    81   41  118 1    
    82   41  119 1    
    83   41  120 1    
    84   42   43 am   BACKBONE|DICT|INTERRES
    85   42  121 1    
    86   43   44 2    
    87   43   45 1    
    88   45   46 1    
    89   45   47 1    
    90   45  122 1    
    91   46  123 1    
    92   46  124 1    
    93   46  125 1    
    94   47   48 am   BACKBONE|DICT|INTERRES
    95   47  126 1    
    96   48   49 2    
    97   48   50 1    
    98   50   51 1    
    99   50   52 1    
   100   50  127 1    
   101   51  128 1    
   102   51  129 1    
   103   51  130 1    
   104   52   53 am   BACKBONE|DICT|INTERRES
   105   52  131 1    
   106   53   54 2    
   107   53   55 1    
   108   55   56 1    
   109   55   59 1    
   110   55  132 1    
   111   56   57 1    
   112   56  133 1    
   113   56  134 1    
   114   57   58 1    
   115   58  135 1    
   116   58  136 1    
   117   59   60 am   BACKBONE|DICT|INTERRES
   118   59  137 1    
   119   60   61 2    
   120   60   62 1    
   121   62   63 1    
   122   62   64 1    
   123   62  138 1    
   124   63  139 1    
   125   63  140 1    
   126   63  141 1    
   127   64   65 am   BACKBONE|DICT|INTERRES
   128   64  142 1    
   129   65   66 2    
   130   65   67 1    
   131   67   68 1    
   132   67   69 1    
   133   67  143 1    
   134   68  144 1    
   135   68  145 1    
   136   68  146 1    
   137   69   70 am   BACKBONE|DICT|INTERRES
   138   69  147 1    
   139   70   71 2    
   140   70   72 1    
   141   72   73 1    
   142   72   74 1    
   143   72  148 1    
   144   73  149 1    
   145   73  150 1    
   146   73  151 1    
   147   74   75 am   BACKBONE|DICT|INTERRES
   148   74  152 1    
   149   75   76 2    
   150   75   77 1    
   151   77   78 1    
   152   77   79 1    
   153   77  153 1    
   154   78  154 1    
   155   78  155 1    
   156   78  156 1    
   157   79   80 am   BACKBONE|DICT|INTERRES
   158   79  157 1    
   159   80   81 2    
@<TRIPOS>SUBSTRUCTURE
     1 UNK         1 GROUP             0       ****    0 ROOT    
