@<TRIPOS>MOLECULE
3R207
157   159    1
SMALL
USER_CHARGES


@<TRIPOS>ATOM
      1 CA        -48.8775  -30.2426    9.0663 C.3       0 UNK        -0.1975 
      2 C         -48.6547  -29.9807    7.5871 C.2       0 UNK         0.4852 
      3 O         -47.5765  -30.2611    7.0630 O.2       0 UNK        -0.5216 
      4 N         -49.6813  -29.4522    6.9116 N.am      1 UNK        -0.4461 
      5 CA        -49.7045  -29.2397    5.4581 C.3       1 UNK         0.0864 
      6 C6        -51.1534  -29.1534    4.9196 C.3       14 UNK        -0.0898 
      7 S7        -52.1204  -30.6408    5.3530 S.3       14 UNK        -0.2598 
      8 C8        -53.5586  -29.9394    6.2229 C.3       14 UNK         0.0286 
      9 C9        -53.1996  -29.2067    7.5115 C.ar      14 UNK        -0.0844 
     10 C10       -53.4112  -27.8291    7.6126 C.ar      14 UNK        -0.0881 
     11 C11       -53.1826  -27.1514    8.8131 C.ar      14 UNK        -0.0643 
     12 C12       -52.7312  -27.8779    9.9233 C.ar      14 UNK        -0.0930 
     13 C13       -52.5047  -29.2547    9.8423 C.ar      14 UNK        -0.0827 
     14 C14       -52.7285  -29.9100    8.6241 C.ar      14 UNK        -0.1249 
     15 C15       -52.0165  -30.0071   11.0805 C.3       14 UNK         0.0141 
     16 S16       -52.8067  -31.6382   11.2965 S.3       14 UNK        -0.2313 
     17 C17       -53.7894  -31.4241   12.8169 C.3       14 UNK        -0.0915 
     18 CA        -55.2455  -30.9715   12.5308 C.3       13 UNK         0.0968 
     19 C         -56.1785  -31.2911   13.7374 C.2       13 UNK         0.5732 
     20 N         -56.7852  -30.3113   14.3973 N.am      13 UNK        -0.7310 
     21 O         -56.3641  -32.4579   14.0754 O.2       13 UNK        -0.5035 
     22 N         -55.2823  -29.5687   12.0922 N.am      13 UNK        -0.4233 
     23 C         -56.2863  -28.9821   11.4338 C.2       13 UNK         0.4989 
     24 O         -57.2869  -29.5801   11.0342 O.2       13 UNK        -0.4996 
     25 CA        -56.1634  -27.4565   11.2434 C.3       12 UNK         0.0216 
     26 CB        -57.2915  -26.8698   10.3750 C.3       12 UNK        -0.1964 
     27 N         -56.1247  -26.7470   12.5268 N.am      12 UNK        -0.4276 
     28 C         -55.0714  -26.6932   13.3521 C.2       12 UNK         0.5020 
     29 O         -53.9873  -27.2397   13.1237 O.2       12 UNK        -0.5489 
     30 CA        -55.2859  -25.9679   14.6830 C.3       11 UNK         0.0294 
     31 CB        -55.9884  -26.8980   15.6925 C.3       11 UNK        -0.2019 
     32 N         -53.9800  -25.5605   15.1871 N.am      11 UNK        -0.4493 
     33 C         -53.7430  -24.7085   16.1906 C.2       11 UNK         0.4932 
     34 O         -54.6353  -24.1434   16.8253 O.2       11 UNK        -0.5029 
     35 CA        -52.2687  -24.4092   16.5268 C.3       10 UNK         0.0280 
     36 CB        -52.0363  -24.1431   18.0291 C.3       10 UNK        -0.1976 
     37 N         -51.3292  -25.4095   16.0094 N.am      10 UNK        -0.4242 
     38 C         -51.1737  -26.6870   16.3869 C.2       10 UNK         0.5072 
     39 O         -51.8258  -27.2354   17.2760 O.2       10 UNK        -0.5224 
     40 CA        -50.0988  -27.4937   15.6346 C.3       9 UNK         0.0343 
     41 CB        -50.7072  -28.1694   14.3932 C.3       9 UNK        -0.2003 
     42 N         -48.9456  -26.6791   15.2343 N.am      9 UNK        -0.4272 
     43 C         -48.0701  -26.1223   16.0856 C.2       9 UNK         0.4988 
     44 O         -48.0860  -26.3079   17.3031 O.2       9 UNK        -0.5108 
     45 CA        -47.0068  -25.1842   15.4854 C.3       8 UNK         0.0248 
     46 CB        -45.8303  -25.9855   14.9052 C.3       8 UNK        -0.2001 
     47 N         -47.5523  -24.2838   14.4650 N.am      8 UNK        -0.4140 
     48 C         -48.4355  -23.3043   14.7132 C.2       8 UNK         0.5028 
     49 O         -48.8269  -23.0034   15.8410 O.2       8 UNK        -0.5428 
     50 CA        -49.0089  -22.5491   13.5007 C.3       7 UNK         0.0264 
     51 CB        -48.0720  -21.4092   13.0713 C.3       7 UNK        -0.1988 
     52 N         -49.2891  -23.4219   12.3570 N.am      7 UNK        -0.4454 
     53 C         -50.1827  -24.4229   12.3691 C.2       7 UNK         0.5027 
     54 O         -50.8952  -24.6822   13.3380 O.2       7 UNK        -0.5083 
     55 CA        -50.2505  -25.3259   11.1202 C.3       6 UNK         0.0844 
     56 C56       -51.0908  -24.6924    9.9850 C.3       14 UNK        -0.0967 
     57 S57       -52.8832  -24.7422   10.3216 S.3       14 UNK        -0.2604 
     58 C58       -53.5076  -25.6558    8.8682 C.3       14 UNK         0.0134 
     59 N         -48.9159  -25.7053   10.6570 N.am      6 UNK        -0.4116 
     60 C         -48.0232  -26.4133   11.3615 C.2       5 UNK         0.5034 
     61 O         -48.2555  -26.9081   12.4629 O.2       5 UNK        -0.5045 
     62 CA        -46.6131  -26.5374   10.7631 C.3       5 UNK         0.0224 
     63 CB        -46.5308  -27.6899    9.7535 C.3       5 UNK        -0.1978 
     64 N         -46.1785  -25.2934   10.1263 N.am      5 UNK        -0.4737 
     65 C         -45.8672  -24.1775   10.7988 C.2       4 UNK         0.5027 
     66 O         -45.8762  -24.0961   12.0265 O.2       4 UNK        -0.5211 
     67 CA        -45.5281  -22.9377    9.9554 C.3       4 UNK         0.0297 
     68 CB        -44.0524  -22.9621    9.5274 C.3       4 UNK        -0.1993 
     69 N         -46.3840  -22.8078    8.7720 N.am      4 UNK        -0.4486 
     70 C         -47.7008  -22.5615    8.8196 C.2       3 UNK         0.4961 
     71 O         -48.3308  -22.4018    9.8642 O.2       3 UNK        -0.5105 
     72 CA        -48.4519  -22.5356    7.4779 C.3       3 UNK         0.0299 
     73 CB        -48.2852  -21.1713    6.7903 C.3       3 UNK        -0.1972 
     74 N         -48.0612  -23.6087    6.5554 N.am      3 UNK        -0.4305 
     75 C         -48.1673  -24.9169    6.8229 C.2       2 UNK         0.5006 
     76 O         -48.5299  -25.3701    7.9108 O.2       2 UNK        -0.5106 
     77 CA        -47.7825  -25.8897    5.7074 C.3       2 UNK         0.0296 
     78 CB        -46.2698  -26.1735    5.7243 C.3       2 UNK        -0.2002 
     79 N         -48.5248  -27.1258    5.9296 N.am      2 UNK        -0.4032 
     80 C         -48.8706  -28.0225    4.9995 C.2       1 UNK         0.5000 
     81 O         -48.5618  -27.9197    3.8103 O.2       1 UNK        -0.5238 
     82 H82       -47.9673  -30.6135    9.5366 H         1 UNK         0.0889 
     83 H83       -49.6534  -30.9962    9.1982 H         1 UNK         0.0889 
     84 H84       -49.1818  -29.3292    9.5770 H         1 UNK         0.0889 
     85 H85       -50.5550  -29.2727    7.3894 H         1 UNK         0.3028 
     86 H86       -49.2383  -30.1120    4.9941 H         1 UNK         0.0864 
     87 H87       -51.6521  -28.2583    5.2949 H         1 UNK         0.0720 
     88 H88       -51.1527  -29.0666    3.8313 H         1 UNK         0.0720 
     89 H89       -54.2475  -30.7506    6.4628 H         1 UNK         0.0814 
     90 H90       -54.0972  -29.2824    5.5381 H         1 UNK         0.0814 
     91 H91       -53.7894  -27.2828    6.7590 H         1 UNK         0.1469 
     92 H92       -52.5862  -27.3825   10.8715 H         1 UNK         0.1381 
     93 H93       -52.5662  -30.9762    8.5448 H         1 UNK         0.1206 
     94 H94       -50.9401  -30.1512   11.0106 H         1 UNK         0.0813 
     95 H95       -52.1744  -29.4033   11.9751 H         1 UNK         0.0813 
     96 H96       -53.7782  -32.3950   13.3159 H         1 UNK         0.0638 
     97 H97       -53.2899  -30.7357   13.5009 H         1 UNK         0.0638 
     98 H98       -55.6277  -31.5788   11.7081 H         1 UNK         0.0568 
     99 H99       -56.6572  -29.3543   14.1182 H         1 UNK         0.3450 
    100 H100      -57.3892  -30.5404   15.1707 H         1 UNK         0.3450 
    101 H101      -54.5342  -28.9679   12.4254 H         1 UNK         0.2987 
    102 H102      -55.2256  -27.2704   10.7236 H         1 UNK         0.0766 
    103 H103      -57.1426  -25.8041   10.1997 H         1 UNK         0.0798 
    104 H104      -58.2708  -27.0022   10.8367 H         1 UNK         0.0798 
    105 H105      -57.3219  -27.3544    9.3981 H         1 UNK         0.0798 
    106 H106      -56.9845  -26.2999   12.8126 H         1 UNK         0.3198 
    107 H107      -55.8912  -25.0758   14.5091 H         1 UNK         0.0843 
    108 H108      -55.3947  -27.7908   15.8947 H         1 UNK         0.0831 
    109 H109      -56.9596  -27.2252   15.3198 H         1 UNK         0.0831 
    110 H110      -56.1677  -26.3972   16.6438 H         1 UNK         0.0831 
    111 H111      -53.2017  -25.9608   14.6746 H         1 UNK         0.3133 
    112 H112      -52.0267  -23.4883   15.9943 H         1 UNK         0.0566 
    113 H113      -50.9875  -23.9268   18.2335 H         1 UNK         0.0814 
    114 H114      -52.6152  -23.2835   18.3686 H         1 UNK         0.0814 
    115 H115      -52.3311  -24.9945   18.6429 H         1 UNK         0.0814 
    116 H116      -50.8137  -25.1091   15.1853 H         1 UNK         0.3091 
    117 H117      -49.7395  -28.2751   16.3073 H         1 UNK         0.0702 
    118 H118      -51.5540  -28.8008   14.6664 H         1 UNK         0.0785 
    119 H119      -49.9780  -28.8031   13.8881 H         1 UNK         0.0785 
    120 H120      -51.0700  -27.4376   13.6706 H         1 UNK         0.0785 
    121 H121      -48.8067  -26.5454   14.2355 H         1 UNK         0.2998 
    122 H122      -46.6198  -24.5637   16.2965 H         1 UNK         0.0697 
    123 H123      -46.1445  -26.6372   14.0905 H         1 UNK         0.0825 
    124 H124      -45.3759  -26.6171   15.6696 H         1 UNK         0.0825 
    125 H125      -45.0507  -25.3257   14.5236 H         1 UNK         0.0825 
    126 H126      -47.2177  -24.4080   13.5144 H         1 UNK         0.3029 
    127 H127      -49.9577  -22.1068   13.8123 H         1 UNK         0.0897 
    128 H128      -48.5079  -20.8211   12.2634 H         1 UNK         0.0792 
    129 H129      -47.1081  -21.7847   12.7279 H         1 UNK         0.0792 
    130 H130      -47.8802  -20.7283   13.9016 H         1 UNK         0.0792 
    131 H131      -48.7852  -23.2219   11.4953 H         1 UNK         0.3086 
    132 H132      -50.7316  -26.2554   11.4266 H         1 UNK         0.0583 
    133 H133      -50.7904  -23.6605    9.7946 H         1 UNK         0.1020 
    134 H134      -50.9067  -25.2275    9.0525 H         1 UNK         0.1020 
    135 H135      -54.5927  -25.5467    8.8482 H         1 UNK         0.0694 
    136 H136      -53.1350  -25.1664    7.9668 H         1 UNK         0.0694 
    137 H137      -48.6564  -25.3935    9.7237 H         1 UNK         0.2989 
    138 H138      -45.9251  -26.7565   11.5828 H         1 UNK         0.1055 
    139 H139      -46.7665  -28.6374   10.2376 H         1 UNK         0.0806 
    140 H140      -45.5272  -27.7847    9.3385 H         1 UNK         0.0806 
    141 H141      -47.2247  -27.5570    8.9234 H         1 UNK         0.0806 
    142 H142      -46.1904  -25.2629    9.1176 H         1 UNK         0.3061 
    143 H143      -45.6861  -22.0580   10.5832 H         1 UNK         0.0734 
    144 H144      -43.7768  -22.0491    8.9993 H         1 UNK         0.0832 
    145 H145      -43.3974  -23.0412   10.3964 H         1 UNK         0.0832 
    146 H146      -43.8312  -23.8083    8.8757 H         1 UNK         0.0832 
    147 H147      -45.9482  -22.9269    7.8690 H         1 UNK         0.3156 
    148 H148      -49.5126  -22.6718    7.6993 H         1 UNK         0.0589 
    149 H149      -47.2508  -20.9866    6.4978 H         1 UNK         0.0808 
    150 H150      -48.9053  -21.0984    5.8967 H         1 UNK         0.0808 
    151 H151      -48.5851  -20.3603    7.4558 H         1 UNK         0.0808 
    152 H152      -47.7409  -23.3247    5.6402 H         1 UNK         0.3098 
    153 H153      -48.0719  -25.4575    4.7471 H         1 UNK         0.0720 
    154 H154      -45.9882  -26.8618    4.9272 H         1 UNK         0.0791 
    155 H155      -45.9532  -26.6146    6.6705 H         1 UNK         0.0791 
    156 H156      -45.6944  -25.2585    5.5783 H         1 UNK         0.0791 
    157 H157      -48.8527  -27.2463    6.8795 H         1 UNK         0.3028 
@<TRIPOS>BOND
     1    1    2 1    
     2    1   82 1    
     3    1   83 1    
     4    1   84 1    
     5    2    3 2    
     6    2    4 am   BACKBONE|DICT|INTERRES
     7    4    5 1    
     8    4   85 1    
     9    5    6 1    
    10    5   80 1    
    11    5   86 1    
    12    6    7 1    
    13    6   87 1    
    14    6   88 1    
    15    7    8 1    
    16    8    9 1    
    17    8   89 1    
    18    8   90 1    
    19    9   10 ar   
    20    9   14 ar   
    21   10   11 ar   
    22   10   91 1    
    23   11   12 ar   
    24   11   58 1    
    25   12   13 ar   
    26   12   92 1    
    27   13   14 ar   
    28   13   15 1    
    29   14   93 1    
    30   15   16 1    
    31   15   94 1    
    32   15   95 1    
    33   16   17 1    
    34   17   18 1    
    35   17   96 1    
    36   17   97 1    
    37   18   19 1    
    38   18   22 1    
    39   18   98 1    
    40   19   20 am   BACKBONE|DICT|INTERRES
    41   19   21 2    
    42   20   99 1    
    43   20  100 1    
    44   22   23 am   BACKBONE|DICT|INTERRES
    45   22  101 1    
    46   23   24 2    
    47   23   25 1    
    48   25   26 1    
    49   25   27 1    
    50   25  102 1    
    51   26  103 1    
    52   26  104 1    
    53   26  105 1    
    54   27   28 am   BACKBONE|DICT|INTERRES
    55   27  106 1    
    56   28   29 2    
    57   28   30 1    
    58   30   31 1    
    59   30   32 1    
    60   30  107 1    
    61   31  108 1    
    62   31  109 1    
    63   31  110 1    
    64   32   33 am   BACKBONE|DICT|INTERRES
    65   32  111 1    
    66   33   34 2    
    67   33   35 1    
    68   35   36 1    
    69   35   37 1    
    70   35  112 1    
    71   36  113 1    
    72   36  114 1    
    73   36  115 1    
    74   37   38 am   BACKBONE|DICT|INTERRES
    75   37  116 1    
    76   38   39 2    
    77   38   40 1    
    78   40   41 1    
    79   40   42 1    
    80   40  117 1    
    81   41  118 1    
    82   41  119 1    
    83   41  120 1    
    84   42   43 am   BACKBONE|DICT|INTERRES
    85   42  121 1    
    86   43   44 2    
    87   43   45 1    
    88   45   46 1    
    89   45   47 1    
    90   45  122 1    
    91   46  123 1    
    92   46  124 1    
    93   46  125 1    
    94   47   48 am   BACKBONE|DICT|INTERRES
    95   47  126 1    
    96   48   49 2    
    97   48   50 1    
    98   50   51 1    
    99   50   52 1    
   100   50  127 1    
   101   51  128 1    
   102   51  129 1    
   103   51  130 1    
   104   52   53 am   BACKBONE|DICT|INTERRES
   105   52  131 1    
   106   53   54 2    
   107   53   55 1    
   108   55   56 1    
   109   55   59 1    
   110   55  132 1    
   111   56   57 1    
   112   56  133 1    
   113   56  134 1    
   114   57   58 1    
   115   58  135 1    
   116   58  136 1    
   117   59   60 am   BACKBONE|DICT|INTERRES
   118   59  137 1    
   119   60   61 2    
   120   60   62 1    
   121   62   63 1    
   122   62   64 1    
   123   62  138 1    
   124   63  139 1    
   125   63  140 1    
   126   63  141 1    
   127   64   65 am   BACKBONE|DICT|INTERRES
   128   64  142 1    
   129   65   66 2    
   130   65   67 1    
   131   67   68 1    
   132   67   69 1    
   133   67  143 1    
   134   68  144 1    
   135   68  145 1    
   136   68  146 1    
   137   69   70 am   BACKBONE|DICT|INTERRES
   138   69  147 1    
   139   70   71 2    
   140   70   72 1    
   141   72   73 1    
   142   72   74 1    
   143   72  148 1    
   144   73  149 1    
   145   73  150 1    
   146   73  151 1    
   147   74   75 am   BACKBONE|DICT|INTERRES
   148   74  152 1    
   149   75   76 2    
   150   75   77 1    
   151   77   78 1    
   152   77   79 1    
   153   77  153 1    
   154   78  154 1    
   155   78  155 1    
   156   78  156 1    
   157   79   80 am   BACKBONE|DICT|INTERRES
   158   79  157 1    
   159   80   81 2    
@<TRIPOS>SUBSTRUCTURE
     1 UNK         1 GROUP             0       ****    0 ROOT    
