@<TRIPOS>MOLECULE
3R207
157   159    1
SMALL
USER_CHARGES


@<TRIPOS>ATOM
      1 CA        -48.3251  -28.6343    4.6259 C.3       0 UNK        -0.1975 
      2 C         -47.1852  -28.4804    5.6267 C.2       0 UNK         0.4852 
      3 O         -46.0856  -28.0944    5.2351 O.2       0 UNK        -0.5216 
      4 N         -47.3836  -28.7677    6.9176 N.am      1 UNK        -0.4461 
      5 CA        -48.6061  -29.2185    7.5785 C.3       1 UNK         0.0864 
      6 C6        -48.7882  -30.7537    7.4234 C.3       14 UNK        -0.0898 
      7 S7        -50.1887  -31.4906    8.3362 S.3       14 UNK        -0.2598 
      8 C8        -51.4967  -31.5408    7.0718 C.3       14 UNK         0.0286 
      9 C9        -52.2648  -30.2300    7.0274 C.ar      14 UNK        -0.0844 
     10 C10       -51.9377  -29.2414    6.0952 C.ar      14 UNK        -0.0881 
     11 C11       -52.6370  -28.0307    6.0709 C.ar      14 UNK        -0.0643 
     12 C12       -53.6840  -27.8238    6.9731 C.ar      14 UNK        -0.0930 
     13 C13       -54.0286  -28.8099    7.9010 C.ar      14 UNK        -0.0827 
     14 C14       -53.3155  -30.0114    7.9226 C.ar      14 UNK        -0.1249 
     15 C15       -55.1883  -28.5826    8.8578 C.3       14 UNK         0.0141 
     16 S16       -54.6541  -28.6193   10.5961 S.3       14 UNK        -0.2313 
     17 C17       -56.0706  -27.8044   11.4016 C.3       14 UNK        -0.0915 
     18 CA        -55.6554  -26.4505   12.0482 C.3       13 UNK         0.0968 
     19 C         -56.8807  -25.5489   12.3959 C.2       13 UNK         0.5732 
     20 N         -56.8841  -24.8214   13.5066 N.am      13 UNK        -0.7310 
     21 O         -57.8339  -25.4714   11.6242 O.2       13 UNK        -0.5035 
     22 N         -54.6691  -26.6139   13.1333 N.am      13 UNK        -0.4233 
     23 C         -54.8714  -27.2515   14.2942 C.2       13 UNK         0.4989 
     24 O         -55.9244  -27.8113   14.6049 O.2       13 UNK        -0.4996 
     25 CA        -53.7046  -27.2020   15.2923 C.3       12 UNK         0.0216 
     26 CB        -54.1712  -27.2509   16.7617 C.3       12 UNK        -0.1964 
     27 N         -52.6702  -28.2065   15.0405 N.am      12 UNK        -0.4276 
     28 C         -52.7788  -29.5442   15.0680 C.2       12 UNK         0.5020 
     29 O         -53.8357  -30.1569   15.2198 O.2       12 UNK        -0.5489 
     30 CA        -51.4686  -30.3508   14.9485 C.3       11 UNK         0.0294 
     31 CB        -51.2923  -30.9022   13.5245 C.3       11 UNK        -0.2019 
     32 N         -50.2763  -29.5837   15.3285 N.am      11 UNK        -0.4493 
     33 C         -49.9891  -29.1828   16.5759 C.2       11 UNK         0.4932 
     34 O         -50.6440  -29.5047   17.5676 O.2       11 UNK        -0.5029 
     35 CA        -48.7954  -28.2239   16.7512 C.3       10 UNK         0.0280 
     36 CB        -47.7252  -28.3463   15.6434 C.3       10 UNK        -0.1976 
     37 N         -49.2475  -26.8331   16.8942 N.am      10 UNK        -0.4242 
     38 C         -49.9677  -26.1276   16.0101 C.2       10 UNK         0.5072 
     39 O         -50.3124  -26.5538   14.9032 O.2       10 UNK        -0.5224 
     40 CA        -50.3769  -24.7117   16.4346 C.3       9 UNK         0.0343 
     41 CB        -49.2090  -23.7195   16.2956 C.3       9 UNK        -0.2003 
     42 N         -51.4840  -24.2788   15.5897 N.am      9 UNK        -0.4272 
     43 C         -52.4779  -23.4553   15.9373 C.2       9 UNK         0.4988 
     44 O         -52.5533  -22.9077   17.0383 O.2       9 UNK        -0.5108 
     45 CA        -53.5609  -23.1964   14.8660 C.3       8 UNK         0.0248 
     46 CB        -54.5904  -22.1372   15.3019 C.3       8 UNK        -0.2001 
     47 N         -52.9694  -22.7898   13.5890 N.am      8 UNK        -0.4140 
     48 C         -52.4242  -23.6148   12.6863 C.2       8 UNK         0.5028 
     49 O         -52.4535  -24.8445   12.7850 O.2       8 UNK        -0.5428 
     50 CA        -51.6637  -22.9306   11.5433 C.3       7 UNK         0.0264 
     51 CB        -50.3880  -22.2596   12.0841 C.3       7 UNK        -0.1988 
     52 N         -51.2624  -23.8714   10.4997 N.am      7 UNK        -0.4454 
     53 C         -51.8990  -24.0521    9.3344 C.2       7 UNK         0.5027 
     54 O         -52.9914  -23.5465    9.0678 O.2       7 UNK        -0.5083 
     55 CA        -51.1447  -24.8907    8.2729 C.3       6 UNK         0.0844 
     56 C56       -51.7903  -24.8117    6.8609 C.3       14 UNK        -0.0967 
     57 S57       -50.9386  -25.8768    5.6450 S.3       14 UNK        -0.2604 
     58 C58       -52.2784  -26.9579    5.0538 C.3       14 UNK         0.0134 
     59 N         -49.7119  -24.5565    8.2854 N.am      6 UNK        -0.4116 
     60 C         -49.1637  -23.3772    7.9517 C.2       5 UNK         0.5034 
     61 O         -49.7966  -22.4365    7.4707 O.2       5 UNK        -0.5045 
     62 CA        -47.6619  -23.1858    8.2164 C.3       5 UNK         0.0224 
     63 CB        -47.4288  -22.0902    9.2721 C.3       5 UNK        -0.1978 
     64 N         -46.9934  -24.4083    8.6700 N.am      5 UNK        -0.4737 
     65 C         -45.8527  -24.8905    8.1584 C.2       4 UNK         0.5027 
     66 O         -45.2943  -24.4056    7.1735 O.2       4 UNK        -0.5211 
     67 CA        -45.2219  -26.1184    8.8507 C.3       4 UNK         0.0297 
     68 CB        -43.6824  -26.0298    8.9128 C.3       4 UNK        -0.1993 
     69 N         -45.7874  -26.4209   10.1733 N.am      4 UNK        -0.4486 
     70 C         -45.7485  -25.6613   11.2815 C.2       3 UNK         0.4961 
     71 O         -45.1329  -24.5979   11.3611 O.2       3 UNK        -0.5105 
     72 CA        -46.5577  -26.1637   12.4970 C.3       3 UNK         0.0299 
     73 CB        -47.0497  -25.0129   13.3977 C.3       3 UNK        -0.1972 
     74 N         -47.6743  -27.0497   12.1404 N.am      3 UNK        -0.4305 
     75 C         -48.7284  -26.7627   11.3625 C.2       2 UNK         0.5006 
     76 O         -48.9232  -25.6720   10.8185 O.2       2 UNK        -0.5106 
     77 CA        -49.6770  -27.9372   11.0684 C.3       2 UNK         0.0296 
     78 CB        -51.1308  -27.5752   11.4077 C.3       2 UNK        -0.2002 
     79 N         -49.5947  -28.3862    9.6738 N.am      2 UNK        -0.4032 
     80 C         -48.4723  -28.7676    9.0438 C.2       1 UNK         0.5000 
     81 O         -47.3530  -28.7692    9.5689 O.2       1 UNK        -0.5238 
     82 H82       -49.1958  -28.0604    4.9323 H         1 UNK         0.0889 
     83 H83       -48.6085  -29.6792    4.5122 H         1 UNK         0.0889 
     84 H84       -48.0220  -28.2663    3.6459 H         1 UNK         0.0889 
     85 H85       -46.6184  -28.6586    7.5714 H         1 UNK         0.3028 
     86 H86       -49.4605  -28.6947    7.1503 H         1 UNK         0.0864 
     87 H87       -48.8808  -31.0192    6.3710 H         1 UNK         0.0720 
     88 H88       -47.8858  -31.2630    7.7672 H         1 UNK         0.0720 
     89 H89       -52.1828  -32.3540    7.3135 H         1 UNK         0.0814 
     90 H90       -51.0781  -31.7839    6.0942 H         1 UNK         0.0814 
     91 H91       -51.1380  -29.4135    5.3891 H         1 UNK         0.1469 
     92 H92       -54.2420  -26.8986    6.9444 H         1 UNK         0.1381 
     93 H93       -53.5772  -30.7756    8.6421 H         1 UNK         0.1206 
     94 H94       -55.9478  -29.3491    8.6980 H         1 UNK         0.0813 
     95 H95       -55.6649  -27.6235    8.6485 H         1 UNK         0.0813 
     96 H96       -56.4892  -28.4850   12.1434 H         1 UNK         0.0638 
     97 H97       -56.8591  -27.6608   10.6615 H         1 UNK         0.0638 
     98 H98       -55.1297  -25.8784   11.2826 H         1 UNK         0.0568 
     99 H99       -57.6797  -24.2359   13.7053 H         1 UNK         0.3450 
    100 H100      -56.1214  -24.8780   14.1579 H         1 UNK         0.3450 
    101 H101      -53.7816  -26.1386   12.9776 H         1 UNK         0.2987 
    102 H102      -53.2123  -26.2447   15.1484 H         1 UNK         0.0766 
    103 H103      -54.8921  -26.4591   16.9687 H         1 UNK         0.0798 
    104 H104      -53.3336  -27.1155   17.4463 H         1 UNK         0.0798 
    105 H105      -54.6515  -28.1993   17.0049 H         1 UNK         0.0798 
    106 H106      -51.7427  -27.8180   14.8839 H         1 UNK         0.3198 
    107 H107      -51.5505  -31.1995   15.6312 H         1 UNK         0.0843 
    108 H108      -51.1949  -30.1050   12.7901 H         1 UNK         0.0831 
    109 H109      -52.1528  -31.5060   13.2326 H         1 UNK         0.0831 
    110 H110      -50.4112  -31.5398   13.4498 H         1 UNK         0.0831 
    111 H111      -49.6947  -29.2404   14.5793 H         1 UNK         0.3133 
    112 H112      -48.3190  -28.4947   17.6948 H         1 UNK         0.0566 
    113 H113      -46.8522  -27.7368   15.8771 H         1 UNK         0.0814 
    114 H114      -48.0953  -28.0231   14.6725 H         1 UNK         0.0814 
    115 H115      -47.3792  -29.3760   15.5427 H         1 UNK         0.0814 
    116 H116      -49.0381  -26.4032   17.7847 H         1 UNK         0.3091 
    117 H117      -50.7050  -24.7521   17.4755 H         1 UNK         0.0702 
    118 H118      -49.4835  -22.7352   16.6752 H         1 UNK         0.0785 
    119 H119      -48.9069  -23.5989   15.2550 H         1 UNK         0.0785 
    120 H120      -48.3346  -24.0501   16.8574 H         1 UNK         0.0785 
    121 H121      -51.5113  -24.7266   14.6769 H         1 UNK         0.2998 
    122 H122      -54.1021  -24.1311   14.7206 H         1 UNK         0.0697 
    123 H123      -54.1225  -21.1688   15.4834 H         1 UNK         0.0825 
    124 H124      -55.0924  -22.4347   16.2236 H         1 UNK         0.0825 
    125 H125      -55.3636  -22.0003   14.5455 H         1 UNK         0.0825 
    126 H126      -52.8721  -21.7945   13.4469 H         1 UNK         0.3029 
    127 H127      -52.3115  -22.1601   11.1188 H         1 UNK         0.0897 
    128 H128      -49.7031  -22.9895   12.5176 H         1 UNK         0.0792 
    129 H129      -50.6128  -21.5247   12.8579 H         1 UNK         0.0792 
    130 H130      -49.8584  -21.7309   11.2920 H         1 UNK         0.0792 
    131 H131      -50.4123  -24.4003   10.6745 H         1 UNK         0.3086 
    132 H132      -51.2173  -25.9272    8.6035 H         1 UNK         0.0583 
    133 H133      -52.8436  -25.0856    6.9113 H         1 UNK         0.1020 
    134 H134      -51.7788  -23.7879    6.4846 H         1 UNK         0.1020 
    135 H135      -53.1530  -26.3566    4.8006 H         1 UNK         0.0694 
    136 H136      -51.9590  -27.4302    4.1236 H         1 UNK         0.0694 
    137 H137      -49.1186  -25.2390    8.7347 H         1 UNK         0.2989 
    138 H138      -47.2351  -22.8465    7.2699 H         1 UNK         0.1055 
    139 H139      -47.7956  -22.3951   10.2526 H         1 UNK         0.0806 
    140 H140      -47.9348  -21.1619    9.0031 H         1 UNK         0.0806 
    141 H141      -46.3676  -21.8618    9.3728 H         1 UNK         0.0806 
    142 H142      -47.3674  -24.8470    9.5037 H         1 UNK         0.3061 
    143 H143      -45.4702  -26.9712    8.2189 H         1 UNK         0.0734 
    144 H144      -43.3480  -25.1475    9.4590 H         1 UNK         0.0832 
    145 H145      -43.2528  -26.9076    9.3953 H         1 UNK         0.0832 
    146 H146      -43.2534  -25.9709    7.9117 H         1 UNK         0.0832 
    147 H147      -46.3306  -27.2813   10.2099 H         1 UNK         0.3156 
    148 H148      -45.8670  -26.7688   13.0858 H         1 UNK         0.0589 
    149 H149      -47.5952  -25.3976   14.2582 H         1 UNK         0.0808 
    150 H150      -46.2146  -24.4262   13.7817 H         1 UNK         0.0808 
    151 H151      -47.7067  -24.3307   12.8585 H         1 UNK         0.0808 
    152 H152      -47.5761  -28.0039   12.4566 H         1 UNK         0.3098 
    153 H153      -49.3906  -28.7840   11.6946 H         1 UNK         0.0720 
    154 H154      -51.2256  -27.2815   12.4534 H         1 UNK         0.0791 
    155 H155      -51.7972  -28.4213   11.2478 H         1 UNK         0.0791 
    156 H156      -51.5021  -26.7456   10.8086 H         1 UNK         0.0791 
    157 H157      -50.4706  -28.4483    9.1746 H         1 UNK         0.3028 
@<TRIPOS>BOND
     1    1    2 1    
     2    1   82 1    
     3    1   83 1    
     4    1   84 1    
     5    2    3 2    
     6    2    4 am   BACKBONE|DICT|INTERRES
     7    4    5 1    
     8    4   85 1    
     9    5    6 1    
    10    5   80 1    
    11    5   86 1    
    12    6    7 1    
    13    6   87 1    
    14    6   88 1    
    15    7    8 1    
    16    8    9 1    
    17    8   89 1    
    18    8   90 1    
    19    9   10 ar   
    20    9   14 ar   
    21   10   11 ar   
    22   10   91 1    
    23   11   12 ar   
    24   11   58 1    
    25   12   13 ar   
    26   12   92 1    
    27   13   14 ar   
    28   13   15 1    
    29   14   93 1    
    30   15   16 1    
    31   15   94 1    
    32   15   95 1    
    33   16   17 1    
    34   17   18 1    
    35   17   96 1    
    36   17   97 1    
    37   18   19 1    
    38   18   22 1    
    39   18   98 1    
    40   19   20 am   BACKBONE|DICT|INTERRES
    41   19   21 2    
    42   20   99 1    
    43   20  100 1    
    44   22   23 am   BACKBONE|DICT|INTERRES
    45   22  101 1    
    46   23   24 2    
    47   23   25 1    
    48   25   26 1    
    49   25   27 1    
    50   25  102 1    
    51   26  103 1    
    52   26  104 1    
    53   26  105 1    
    54   27   28 am   BACKBONE|DICT|INTERRES
    55   27  106 1    
    56   28   29 2    
    57   28   30 1    
    58   30   31 1    
    59   30   32 1    
    60   30  107 1    
    61   31  108 1    
    62   31  109 1    
    63   31  110 1    
    64   32   33 am   BACKBONE|DICT|INTERRES
    65   32  111 1    
    66   33   34 2    
    67   33   35 1    
    68   35   36 1    
    69   35   37 1    
    70   35  112 1    
    71   36  113 1    
    72   36  114 1    
    73   36  115 1    
    74   37   38 am   BACKBONE|DICT|INTERRES
    75   37  116 1    
    76   38   39 2    
    77   38   40 1    
    78   40   41 1    
    79   40   42 1    
    80   40  117 1    
    81   41  118 1    
    82   41  119 1    
    83   41  120 1    
    84   42   43 am   BACKBONE|DICT|INTERRES
    85   42  121 1    
    86   43   44 2    
    87   43   45 1    
    88   45   46 1    
    89   45   47 1    
    90   45  122 1    
    91   46  123 1    
    92   46  124 1    
    93   46  125 1    
    94   47   48 am   BACKBONE|DICT|INTERRES
    95   47  126 1    
    96   48   49 2    
    97   48   50 1    
    98   50   51 1    
    99   50   52 1    
   100   50  127 1    
   101   51  128 1    
   102   51  129 1    
   103   51  130 1    
   104   52   53 am   BACKBONE|DICT|INTERRES
   105   52  131 1    
   106   53   54 2    
   107   53   55 1    
   108   55   56 1    
   109   55   59 1    
   110   55  132 1    
   111   56   57 1    
   112   56  133 1    
   113   56  134 1    
   114   57   58 1    
   115   58  135 1    
   116   58  136 1    
   117   59   60 am   BACKBONE|DICT|INTERRES
   118   59  137 1    
   119   60   61 2    
   120   60   62 1    
   121   62   63 1    
   122   62   64 1    
   123   62  138 1    
   124   63  139 1    
   125   63  140 1    
   126   63  141 1    
   127   64   65 am   BACKBONE|DICT|INTERRES
   128   64  142 1    
   129   65   66 2    
   130   65   67 1    
   131   67   68 1    
   132   67   69 1    
   133   67  143 1    
   134   68  144 1    
   135   68  145 1    
   136   68  146 1    
   137   69   70 am   BACKBONE|DICT|INTERRES
   138   69  147 1    
   139   70   71 2    
   140   70   72 1    
   141   72   73 1    
   142   72   74 1    
   143   72  148 1    
   144   73  149 1    
   145   73  150 1    
   146   73  151 1    
   147   74   75 am   BACKBONE|DICT|INTERRES
   148   74  152 1    
   149   75   76 2    
   150   75   77 1    
   151   77   78 1    
   152   77   79 1    
   153   77  153 1    
   154   78  154 1    
   155   78  155 1    
   156   78  156 1    
   157   79   80 am   BACKBONE|DICT|INTERRES
   158   79  157 1    
   159   80   81 2    
@<TRIPOS>SUBSTRUCTURE
     1 UNK         1 GROUP             0       ****    0 ROOT    
