@<TRIPOS>MOLECULE
3R207
157   159    1
SMALL
USER_CHARGES


@<TRIPOS>ATOM
      1 CA        -48.7983  -30.1134    0.8536 C.3       0 UNK        -0.1975 
      2 C         -49.2494  -29.1460    1.9387 C.2       0 UNK         0.4852 
      3 O         -49.7446  -28.0636    1.6201 O.2       0 UNK        -0.5216 
      4 N         -49.0858  -29.5359    3.2093 N.am      1 UNK        -0.4461 
      5 CA        -49.4183  -28.7351    4.3923 C.3       1 UNK         0.0864 
      6 C6        -50.1615  -29.5714    5.4680 C.3       14 UNK        -0.0898 
      7 S7        -51.7556  -30.2230    4.8595 S.3       14 UNK        -0.2598 
      8 C8        -52.1781  -31.4396    6.1492 C.3       14 UNK         0.0286 
      9 C9        -52.4319  -30.7682    7.4908 C.ar      14 UNK        -0.0844 
     10 C10       -51.3831  -30.6058    8.3982 C.ar      14 UNK        -0.0881 
     11 C11       -51.5850  -29.9363    9.6067 C.ar      14 UNK        -0.0643 
     12 C12       -52.8594  -29.4594    9.9266 C.ar      14 UNK        -0.0930 
     13 C13       -53.9247  -29.6412    9.0387 C.ar      14 UNK        -0.0827 
     14 C14       -53.7047  -30.2926    7.8201 C.ar      14 UNK        -0.1249 
     15 C15       -55.3097  -29.1207    9.3880 C.3       14 UNK         0.0141 
     16 S16       -56.2089  -30.3102   10.4288 S.3       14 UNK        -0.2313 
     17 C17       -57.8713  -29.5549   10.4820 C.3       14 UNK        -0.0915 
     18 CA        -58.2811  -29.0041   11.8737 C.3       13 UNK         0.0968 
     19 C         -58.5052  -30.1317   12.9255 C.2       13 UNK         0.5732 
     20 N         -57.8080  -30.1398   14.0558 N.am      13 UNK        -0.7310 
     21 O         -59.3430  -31.0067   12.7183 O.2       13 UNK        -0.5035 
     22 N         -57.3991  -27.9094   12.3080 N.am      13 UNK        -0.4233 
     23 C         -57.7484  -26.9360   13.1565 C.2       13 UNK         0.4989 
     24 O         -58.8702  -26.8364   13.6574 O.2       13 UNK        -0.4996 
     25 CA        -56.6499  -25.9169   13.5147 C.3       12 UNK         0.0216 
     26 CB        -57.1781  -24.7452   14.3640 C.3       12 UNK        -0.1964 
     27 N         -55.5362  -26.5464   14.2259 N.am      12 UNK        -0.4276 
     28 C         -54.5672  -27.2819   13.6698 C.2       12 UNK         0.5020 
     29 O         -54.5161  -27.5298   12.4642 O.2       12 UNK        -0.5489 
     30 CA        -53.4803  -27.8088   14.6240 C.3       11 UNK         0.0294 
     31 CB        -52.4219  -28.6658   13.9069 C.3       11 UNK        -0.2019 
     32 N         -52.8079  -26.7078   15.3151 N.am      11 UNK        -0.4493 
     33 C         -53.2707  -26.0702   16.3988 C.2       11 UNK         0.4932 
     34 O         -54.3539  -26.3366   16.9241 O.2       11 UNK        -0.5029 
     35 CA        -52.3935  -24.9357   16.9641 C.3       10 UNK         0.0280 
     36 CB        -52.7481  -24.5639   18.4193 C.3       10 UNK        -0.1976 
     37 N         -50.9575  -25.1991   16.8176 N.am      10 UNK        -0.4242 
     38 C         -50.2481  -26.2054   17.3544 C.2       10 UNK         0.5072 
     39 O         -50.7153  -27.0311   18.1403 O.2       10 UNK        -0.5224 
     40 CA        -48.7711  -26.3461   16.9317 C.3       9 UNK         0.0343 
     41 CB        -48.5834  -27.6086   16.0730 C.3       9 UNK        -0.2003 
     42 N         -48.2493  -25.1914   16.1951 N.am      9 UNK        -0.4272 
     43 C         -47.9573  -24.0024   16.7408 C.2       9 UNK         0.4988 
     44 O         -48.0187  -23.7694   17.9483 O.2       9 UNK        -0.5108 
     45 CA        -47.5694  -22.8702   15.7732 C.3       8 UNK         0.0248 
     46 CB        -46.0661  -22.9215   15.4579 C.3       8 UNK        -0.2001 
     47 N         -48.3413  -22.8820   14.5244 N.am      8 UNK        -0.4140 
     48 C         -49.6720  -22.7224   14.4468 C.2       8 UNK         0.5028 
     49 O         -50.3936  -22.5187   15.4226 O.2       8 UNK        -0.5428 
     50 CA        -50.3209  -22.8748   13.0603 C.3       7 UNK         0.0264 
     51 CB        -50.0960  -21.6209   12.2012 C.3       7 UNK        -0.1988 
     52 N         -49.8452  -24.0624   12.3485 N.am      7 UNK        -0.4454 
     53 C         -50.0271  -25.3235   12.7692 C.2       7 UNK         0.5027 
     54 O         -50.6823  -25.6252   13.7672 O.2       7 UNK        -0.5083 
     55 CA        -49.3132  -26.4327   11.9771 C.3       6 UNK         0.0844 
     56 C56       -50.1625  -26.9072   10.7741 C.3       14 UNK        -0.0967 
     57 S57       -49.3807  -28.3345    9.9536 S.3       14 UNK        -0.2604 
     58 C58       -50.4080  -29.7158   10.5399 C.3       14 UNK         0.0134 
     59 N         -47.9669  -26.0118   11.5808 N.am      6 UNK        -0.4116 
     60 C         -46.9405  -25.8325   12.4221 C.2       5 UNK         0.5034 
     61 O         -47.0044  -26.0251   13.6357 O.2       5 UNK        -0.5045 
     62 CA        -45.6348  -25.3032   11.8068 C.3       5 UNK         0.0224 
     63 CB        -44.8261  -26.4481   11.1805 C.3       5 UNK        -0.1978 
     64 N         -45.8736  -24.2603   10.8046 N.am      5 UNK        -0.4737 
     65 C         -46.3681  -23.0494   11.0994 C.2       4 UNK         0.5027 
     66 O         -46.6255  -22.6797   12.2437 O.2       4 UNK        -0.5211 
     67 CA        -46.6750  -22.1060    9.9255 C.3       4 UNK         0.0297 
     68 CB        -45.4418  -21.2547    9.5866 C.3       4 UNK        -0.1993 
     69 N         -47.1436  -22.7901    8.7180 N.am      4 UNK        -0.4486 
     70 C         -48.2114  -23.5963    8.6367 C.2       3 UNK         0.4961 
     71 O         -48.9282  -23.8847    9.5957 O.2       3 UNK        -0.5105 
     72 CA        -48.5351  -24.1896    7.2545 C.3       3 UNK         0.0299 
     73 CB        -48.0031  -23.3396    6.0786 C.3       3 UNK        -0.1972 
     74 N         -48.0989  -25.5826    7.1050 N.am      3 UNK        -0.4305 
     75 C         -46.8648  -26.0879    7.2710 C.2       2 UNK         0.5006 
     76 O         -45.9195  -25.4519    7.7408 O.2       2 UNK        -0.5106 
     77 CA        -46.6264  -27.5434    6.8151 C.3       2 UNK         0.0296 
     78 CB        -46.1179  -28.4253    7.9671 C.3       2 UNK        -0.2002 
     79 N         -47.8036  -28.1693    6.1947 N.am      2 UNK        -0.4032 
     80 C         -48.1331  -28.0382    4.8985 C.2       1 UNK         0.5000 
     81 O         -47.4609  -27.3756    4.1044 O.2       1 UNK        -0.5238 
     82 H82       -48.3939  -31.0356    1.2705 H         1 UNK         0.0889 
     83 H83       -48.0263  -29.6526    0.2379 H         1 UNK         0.0889 
     84 H84       -49.6384  -30.3730    0.2099 H         1 UNK         0.0889 
     85 H85       -48.6549  -30.4298    3.3974 H         1 UNK         0.3028 
     86 H86       -50.0911  -27.9242    4.1045 H         1 UNK         0.0864 
     87 H87       -49.5446  -30.4063    5.8056 H         1 UNK         0.0720 
     88 H88       -50.3827  -28.9563    6.3422 H         1 UNK         0.0720 
     89 H89       -51.3781  -32.1768    6.2337 H         1 UNK         0.0814 
     90 H90       -53.0668  -31.9908    5.8379 H         1 UNK         0.0814 
     91 H91       -50.3955  -30.9699    8.1504 H         1 UNK         0.1469 
     92 H92       -53.0248  -28.9436   10.8621 H         1 UNK         0.1381 
     93 H93       -54.5215  -30.4211    7.1227 H         1 UNK         0.1206 
     94 H94       -55.2312  -28.1646    9.9073 H         1 UNK         0.0813 
     95 H95       -55.8777  -28.9316    8.4757 H         1 UNK         0.0813 
     96 H96       -58.5909  -30.3027   10.1442 H         1 UNK         0.0638 
     97 H97       -57.9279  -28.7517    9.7460 H         1 UNK         0.0638 
     98 H98       -59.2713  -28.5652   11.7365 H         1 UNK         0.0568 
     99 H99       -57.9697  -30.8716   14.7292 H         1 UNK         0.3450 
    100 H100      -57.1260  -29.4234   14.2389 H         1 UNK         0.3450 
    101 H101      -56.4303  -27.9564   12.0073 H         1 UNK         0.2987 
    102 H102      -56.2756  -25.5025   12.5759 H         1 UNK         0.0766 
    103 H103      -56.3981  -24.0060   14.5480 H         1 UNK         0.0798 
    104 H104      -57.5540  -25.0828   15.3309 H         1 UNK         0.0798 
    105 H105      -57.9956  -24.2312   13.8566 H         1 UNK         0.0798 
    106 H106      -55.4884  -26.4023   15.2300 H         1 UNK         0.3198 
    107 H107      -53.9755  -28.4439   15.3618 H         1 UNK         0.0843 
    108 H108      -52.8824  -29.5140   13.3985 H         1 UNK         0.0831 
    109 H109      -51.6918  -29.0657   14.6106 H         1 UNK         0.0831 
    110 H110      -51.8824  -28.0869   13.1589 H         1 UNK         0.0831 
    111 H111      -51.9545  -26.3596   14.8799 H         1 UNK         0.3133 
    112 H112      -52.6000  -24.0624   16.3441 H         1 UNK         0.0566 
    113 H113      -52.1166  -23.7546   18.7859 H         1 UNK         0.0814 
    114 H114      -53.7824  -24.2263   18.4952 H         1 UNK         0.0814 
    115 H115      -52.6342  -25.4121   19.0948 H         1 UNK         0.0814 
    116 H116      -50.4774  -24.5732   16.1814 H         1 UNK         0.3091 
    117 H117      -48.1824  -26.4637   17.8438 H         1 UNK         0.0702 
    118 H118      -47.5359  -27.7589   15.8110 H         1 UNK         0.0785 
    119 H119      -49.1560  -27.5530   15.1468 H         1 UNK         0.0785 
    120 H120      -48.9142  -28.5002   16.6072 H         1 UNK         0.0785 
    121 H121      -48.0912  -25.3230   15.2009 H         1 UNK         0.2998 
    122 H122      -47.7778  -21.9238   16.2763 H         1 UNK         0.0697 
    123 H123      -45.7978  -23.8301   14.9178 H         1 UNK         0.0825 
    124 H124      -45.4727  -22.8971   16.3729 H         1 UNK         0.0825 
    125 H125      -45.7595  -22.0697   14.8505 H         1 UNK         0.0825 
    126 H126      -47.8076  -22.9873   13.6636 H         1 UNK         0.3029 
    127 H127      -51.3964  -22.9933   13.2099 H         1 UNK         0.0897 
    128 H128      -50.5648  -21.7199   11.2218 H         1 UNK         0.0792 
    129 H129      -50.5264  -20.7407   12.6806 H         1 UNK         0.0792 
    130 H130      -49.0366  -21.4194   12.0469 H         1 UNK         0.0792 
    131 H131      -49.3431  -23.9122   11.4767 H         1 UNK         0.3086 
    132 H132      -49.2022  -27.2808   12.6563 H         1 UNK         0.0583 
    133 H133      -51.1743  -27.1721   11.0851 H         1 UNK         0.1020 
    134 H134      -50.2787  -26.1096   10.0387 H         1 UNK         0.1020 
    135 H135      -49.7964  -30.6187   10.5713 H         1 UNK         0.0694 
    136 H136      -50.7391  -29.5389   11.5635 H         1 UNK         0.0694 
    137 H137      -47.8436  -25.7743   10.6073 H         1 UNK         0.2989 
    138 H138      -45.0425  -24.8678   12.6150 H         1 UNK         0.1055 
    139 H139      -44.6078  -27.2213   11.9185 H         1 UNK         0.0806 
    140 H140      -43.8722  -26.0943   10.7890 H         1 UNK         0.0806 
    141 H141      -45.3698  -26.9208   10.3637 H         1 UNK         0.0806 
    142 H142      -45.7137  -24.4977    9.8319 H         1 UNK         0.3061 
    143 H143      -47.4734  -21.4342   10.2451 H         1 UNK         0.0734 
    144 H144      -45.0856  -20.7176   10.4670 H         1 UNK         0.0832 
    145 H145      -44.6156  -21.8667    9.2223 H         1 UNK         0.0832 
    146 H146      -45.6698  -20.5082    8.8256 H         1 UNK         0.0832 
    147 H147      -46.5968  -22.6540    7.8801 H         1 UNK         0.3156 
    148 H148      -49.6237  -24.1995    7.1809 H         1 UNK         0.0589 
    149 H149      -46.9148  -23.3557    6.0109 H         1 UNK         0.0808 
    150 H150      -48.3915  -23.7068    5.1284 H         1 UNK         0.0808 
    151 H151      -48.3172  -22.2985    6.1685 H         1 UNK         0.0808 
    152 H152      -48.8089  -26.2168    6.7714 H         1 UNK         0.3098 
    153 H153      -45.8267  -27.5036    6.0722 H         1 UNK         0.0720 
    154 H154      -45.1464  -28.0756    8.3177 H         1 UNK         0.0791 
    155 H155      -45.9864  -29.4598    7.6496 H         1 UNK         0.0791 
    156 H156      -46.7933  -28.4184    8.8202 H         1 UNK         0.0791 
    157 H157      -48.3901  -28.7251    6.8009 H         1 UNK         0.3028 
@<TRIPOS>BOND
     1    1    2 1    
     2    1   82 1    
     3    1   83 1    
     4    1   84 1    
     5    2    3 2    
     6    2    4 am   BACKBONE|DICT|INTERRES
     7    4    5 1    
     8    4   85 1    
     9    5    6 1    
    10    5   80 1    
    11    5   86 1    
    12    6    7 1    
    13    6   87 1    
    14    6   88 1    
    15    7    8 1    
    16    8    9 1    
    17    8   89 1    
    18    8   90 1    
    19    9   10 ar   
    20    9   14 ar   
    21   10   11 ar   
    22   10   91 1    
    23   11   12 ar   
    24   11   58 1    
    25   12   13 ar   
    26   12   92 1    
    27   13   14 ar   
    28   13   15 1    
    29   14   93 1    
    30   15   16 1    
    31   15   94 1    
    32   15   95 1    
    33   16   17 1    
    34   17   18 1    
    35   17   96 1    
    36   17   97 1    
    37   18   19 1    
    38   18   22 1    
    39   18   98 1    
    40   19   20 am   BACKBONE|DICT|INTERRES
    41   19   21 2    
    42   20   99 1    
    43   20  100 1    
    44   22   23 am   BACKBONE|DICT|INTERRES
    45   22  101 1    
    46   23   24 2    
    47   23   25 1    
    48   25   26 1    
    49   25   27 1    
    50   25  102 1    
    51   26  103 1    
    52   26  104 1    
    53   26  105 1    
    54   27   28 am   BACKBONE|DICT|INTERRES
    55   27  106 1    
    56   28   29 2    
    57   28   30 1    
    58   30   31 1    
    59   30   32 1    
    60   30  107 1    
    61   31  108 1    
    62   31  109 1    
    63   31  110 1    
    64   32   33 am   BACKBONE|DICT|INTERRES
    65   32  111 1    
    66   33   34 2    
    67   33   35 1    
    68   35   36 1    
    69   35   37 1    
    70   35  112 1    
    71   36  113 1    
    72   36  114 1    
    73   36  115 1    
    74   37   38 am   BACKBONE|DICT|INTERRES
    75   37  116 1    
    76   38   39 2    
    77   38   40 1    
    78   40   41 1    
    79   40   42 1    
    80   40  117 1    
    81   41  118 1    
    82   41  119 1    
    83   41  120 1    
    84   42   43 am   BACKBONE|DICT|INTERRES
    85   42  121 1    
    86   43   44 2    
    87   43   45 1    
    88   45   46 1    
    89   45   47 1    
    90   45  122 1    
    91   46  123 1    
    92   46  124 1    
    93   46  125 1    
    94   47   48 am   BACKBONE|DICT|INTERRES
    95   47  126 1    
    96   48   49 2    
    97   48   50 1    
    98   50   51 1    
    99   50   52 1    
   100   50  127 1    
   101   51  128 1    
   102   51  129 1    
   103   51  130 1    
   104   52   53 am   BACKBONE|DICT|INTERRES
   105   52  131 1    
   106   53   54 2    
   107   53   55 1    
   108   55   56 1    
   109   55   59 1    
   110   55  132 1    
   111   56   57 1    
   112   56  133 1    
   113   56  134 1    
   114   57   58 1    
   115   58  135 1    
   116   58  136 1    
   117   59   60 am   BACKBONE|DICT|INTERRES
   118   59  137 1    
   119   60   61 2    
   120   60   62 1    
   121   62   63 1    
   122   62   64 1    
   123   62  138 1    
   124   63  139 1    
   125   63  140 1    
   126   63  141 1    
   127   64   65 am   BACKBONE|DICT|INTERRES
   128   64  142 1    
   129   65   66 2    
   130   65   67 1    
   131   67   68 1    
   132   67   69 1    
   133   67  143 1    
   134   68  144 1    
   135   68  145 1    
   136   68  146 1    
   137   69   70 am   BACKBONE|DICT|INTERRES
   138   69  147 1    
   139   70   71 2    
   140   70   72 1    
   141   72   73 1    
   142   72   74 1    
   143   72  148 1    
   144   73  149 1    
   145   73  150 1    
   146   73  151 1    
   147   74   75 am   BACKBONE|DICT|INTERRES
   148   74  152 1    
   149   75   76 2    
   150   75   77 1    
   151   77   78 1    
   152   77   79 1    
   153   77  153 1    
   154   78  154 1    
   155   78  155 1    
   156   78  156 1    
   157   79   80 am   BACKBONE|DICT|INTERRES
   158   79  157 1    
   159   80   81 2    
@<TRIPOS>SUBSTRUCTURE
     1 UNK         1 GROUP             0       ****    0 ROOT    
