@<TRIPOS>MOLECULE
3R207
157   159    1
SMALL
USER_CHARGES


@<TRIPOS>ATOM
      1 CA        -51.3878  -30.5184    3.2107 C.3       0 UNK        -0.1975 
      2 C         -50.8745  -29.5014    4.2197 C.2       0 UNK         0.4852 
      3 O         -51.4636  -28.4283    4.3595 O.2       0 UNK        -0.5216 
      4 N         -49.7880  -29.8346    4.9279 N.am      1 UNK        -0.4461 
      5 CA        -49.1318  -28.9654    5.9095 C.3       1 UNK         0.0864 
      6 C6        -48.1786  -29.7599    6.8363 C.3       14 UNK        -0.0898 
      7 S7        -49.0692  -30.8973    7.9500 S.3       14 UNK        -0.2598 
      8 C8        -49.1950  -29.9233    9.4886 C.3       14 UNK         0.0286 
      9 C9        -50.6141  -29.4326    9.7284 C.ar      14 UNK        -0.0844 
     10 C10       -51.0224  -28.1700    9.2836 C.ar      14 UNK        -0.0881 
     11 C11       -52.3288  -27.7251    9.5160 C.ar      14 UNK        -0.0643 
     12 C12       -53.2229  -28.5512   10.2036 C.ar      14 UNK        -0.0930 
     13 C13       -52.8274  -29.8162   10.6469 C.ar      14 UNK        -0.0827 
     14 C14       -51.5212  -30.2498   10.4093 C.ar      14 UNK        -0.1249 
     15 C15       -53.8224  -30.7268   11.3479 C.3       14 UNK         0.0141 
     16 S16       -53.7879  -30.5108   13.1542 S.3       14 UNK        -0.2313 
     17 C17       -55.2705  -31.4708   13.6159 C.3       14 UNK        -0.0915 
     18 CA        -56.5138  -30.6068   13.9722 C.3       13 UNK         0.0968 
     19 C         -56.4733  -30.0266   15.4174 C.2       13 UNK         0.5732 
     20 N         -56.7708  -28.7525   15.6449 N.am      13 UNK        -0.7310 
     21 O         -56.1975  -30.7586   16.3653 O.2       13 UNK        -0.5035 
     22 N         -56.8126  -29.6132   12.9287 N.am      13 UNK        -0.4233 
     23 C         -58.0417  -29.2468   12.5457 C.2       13 UNK         0.4989 
     24 O         -59.0722  -29.7776   12.9647 O.2       13 UNK        -0.4996 
     25 CA        -58.1343  -28.0919   11.5226 C.3       12 UNK         0.0216 
     26 CB        -59.5357  -27.4447   11.4893 C.3       12 UNK        -0.1964 
     27 N         -57.1045  -27.0524   11.6823 N.am      12 UNK        -0.4276 
     28 C         -56.8336  -26.3510   12.7926 C.2       12 UNK         0.5020 
     29 O         -57.3981  -26.5222   13.8760 O.2       12 UNK        -0.5489 
     30 CA        -55.7514  -25.2662   12.6730 C.3       11 UNK         0.0294 
     31 CB        -56.3890  -23.8714   12.5737 C.3       11 UNK        -0.2019 
     32 N         -54.8473  -25.3083   13.8230 N.am      11 UNK        -0.4493 
     33 C         -53.9494  -26.2800   14.0195 C.2       11 UNK         0.4932 
     34 O         -53.7461  -27.1935   13.2182 O.2       11 UNK        -0.5029 
     35 CA        -53.1677  -26.2403   15.3364 C.3       10 UNK         0.0280 
     36 CB        -53.9936  -26.8252   16.4965 C.3       10 UNK        -0.1976 
     37 N         -51.9444  -27.0104   15.1526 N.am      10 UNK        -0.4242 
     38 C         -50.8279  -26.9035   15.8788 C.2       10 UNK         0.5072 
     39 O         -50.7413  -26.1935   16.8828 O.2       10 UNK        -0.5224 
     40 CA        -49.6079  -27.7325   15.4251 C.3       9 UNK         0.0343 
     41 CB        -49.8808  -28.6368   14.2022 C.3       9 UNK        -0.2003 
     42 N         -48.4880  -26.8447   15.1139 N.am      9 UNK        -0.4272 
     43 C         -47.6167  -26.3377   15.9969 C.2       9 UNK         0.4988 
     44 O         -47.5714  -26.6581   17.1857 O.2       9 UNK        -0.5108 
     45 CA        -46.6155  -25.2954   15.4641 C.3       8 UNK         0.0248 
     46 CB        -45.3932  -25.9836   14.8350 C.3       8 UNK        -0.2001 
     47 N         -47.2150  -24.3696   14.4980 N.am      8 UNK        -0.4140 
     48 C         -48.1212  -23.4300   14.8090 C.2       8 UNK         0.5028 
     49 O         -48.4842  -23.1827   15.9596 O.2       8 UNK        -0.5428 
     50 CA        -48.7355  -22.6306   13.6450 C.3       7 UNK         0.0264 
     51 CB        -47.8488  -21.4308   13.2751 C.3       7 UNK        -0.1988 
     52 N         -48.9840  -23.4490   12.4552 N.am      7 UNK        -0.4454 
     53 C         -49.8844  -24.4432   12.3974 C.2       7 UNK         0.5027 
     54 O         -50.6491  -24.7195   13.3199 O.2       7 UNK        -0.5083 
     55 CA        -49.9073  -25.2970   11.1124 C.3       6 UNK         0.0844 
     56 C56       -50.7913  -24.6596   10.0117 C.3       14 UNK        -0.0967 
     57 S57       -52.5609  -25.0424   10.2216 S.3       14 UNK        -0.2604 
     58 C58       -52.7969  -26.3713    8.9983 C.3       14 UNK         0.0134 
     59 N         -48.5572  -25.5755   10.6191 N.am      6 UNK        -0.4116 
     60 C         -47.6265  -26.2904   11.2640 C.2       5 UNK         0.5034 
     61 O         -47.8207  -26.8607   12.3345 O.2       5 UNK        -0.5045 
     62 CA        -46.2232  -26.3252   10.6381 C.3       5 UNK         0.0224 
     63 CB        -46.1208  -27.3970    9.5433 C.3       5 UNK        -0.1978 
     64 N         -45.8360  -25.0241   10.0904 N.am      5 UNK        -0.4737 
     65 C         -45.5542  -23.9499   10.8394 C.2       4 UNK         0.5027 
     66 O         -45.5624  -23.9563   12.0696 O.2       4 UNK        -0.5211 
     67 CA        -45.2470  -22.6444   10.0878 C.3       4 UNK         0.0297 
     68 CB        -43.7624  -22.5848    9.6959 C.3       4 UNK        -0.1993 
     69 N         -46.0798  -22.4646    8.8946 N.am      4 UNK        -0.4486 
     70 C         -47.4050  -22.2658    8.9240 C.2       3 UNK         0.4961 
     71 O         -48.0682  -22.2093    9.9598 O.2       3 UNK        -0.5105 
     72 CA        -48.1175  -22.1685    7.5629 C.3       3 UNK         0.0299 
     73 CB        -47.9038  -20.7820    6.9346 C.3       3 UNK        -0.1972 
     74 N         -47.7315  -23.2154    6.6057 N.am      3 UNK        -0.4305 
     75 C         -47.8378  -24.5296    6.8404 C.2       2 UNK         0.5006 
     76 O         -48.1854  -25.0037    7.9254 O.2       2 UNK        -0.5106 
     77 CA        -47.4905  -25.4901    5.6981 C.3       2 UNK         0.0296 
     78 CB        -45.9677  -25.7011    5.6027 C.3       2 UNK        -0.2002 
     79 N         -48.1623  -26.7431    6.0203 N.am      2 UNK        -0.4032 
     80 C         -48.3778  -27.7997    5.2337 C.2       1 UNK         0.5000 
     81 O         -47.9891  -27.8868    4.0651 O.2       1 UNK        -0.5238 
     82 H82       -52.4136  -30.7982    3.4487 H         1 UNK         0.0889 
     83 H83       -50.7828  -31.4249    3.2014 H         1 UNK         0.0889 
     84 H84       -51.3741  -30.0914    2.2082 H         1 UNK         0.0889 
     85 H85       -49.3388  -30.7237    4.7632 H         1 UNK         0.3028 
     86 H86       -49.9178  -28.5238    6.5260 H         1 UNK         0.0864 
     87 H87       -47.5567  -29.0972    7.4385 H         1 UNK         0.0720 
     88 H88       -47.4775  -30.3476    6.2408 H         1 UNK         0.0720 
     89 H89       -48.8785  -30.5496   10.3242 H         1 UNK         0.0814 
     90 H90       -48.5100  -29.0775    9.4786 H         1 UNK         0.0814 
     91 H91       -50.3257  -27.5329    8.7584 H         1 UNK         0.1469 
     92 H92       -54.2311  -28.2099   10.3907 H         1 UNK         0.1381 
     93 H93       -51.2118  -31.2287   10.7497 H         1 UNK         0.1206 
     94 H94       -53.6086  -31.7695   11.1077 H         1 UNK         0.0813 
     95 H95       -54.8277  -30.5284   10.9737 H         1 UNK         0.0813 
     96 H96       -55.0052  -32.1346   14.4405 H         1 UNK         0.0638 
     97 H97       -55.5268  -32.1382   12.7918 H         1 UNK         0.0638 
     98 H98       -57.3494  -31.3081   14.0047 H         1 UNK         0.0568 
     99 H99       -57.0201  -28.1162   14.8933 H         1 UNK         0.3450 
    100 H100      -56.7591  -28.4165   16.5935 H         1 UNK         0.3450 
    101 H101      -56.0155  -29.0975   12.5844 H         1 UNK         0.2987 
    102 H102      -57.9600  -28.5472   10.5466 H         1 UNK         0.0766 
    103 H103      -59.5922  -26.6575   10.7375 H         1 UNK         0.0798 
    104 H104      -59.7993  -27.0069   12.4529 H         1 UNK         0.0798 
    105 H105      -60.3041  -28.1787   11.2434 H         1 UNK         0.0798 
    106 H106      -56.5763  -26.8371   10.8478 H         1 UNK         0.3198 
    107 H107      -55.1645  -25.4422   11.7688 H         1 UNK         0.0843 
    108 H108      -55.6314  -23.0961   12.4580 H         1 UNK         0.0831 
    109 H109      -56.9830  -23.6345   13.4575 H         1 UNK         0.0831 
    110 H110      -57.0518  -23.8069   11.7096 H         1 UNK         0.0831 
    111 H111      -54.9940  -24.6186   14.5454 H         1 UNK         0.3133 
    112 H112      -52.9072  -25.2015   15.5505 H         1 UNK         0.0566 
    113 H113      -53.4746  -26.7169   17.4487 H         1 UNK         0.0814 
    114 H114      -54.9553  -26.3199   16.5926 H         1 UNK         0.0814 
    115 H115      -54.1925  -27.8866   16.3449 H         1 UNK         0.0814 
    116 H116      -51.9513  -27.5797   14.3139 H         1 UNK         0.3091 
    117 H117      -49.3306  -28.3781   16.2607 H         1 UNK         0.0702 
    118 H118      -50.6796  -29.3520   14.4042 H         1 UNK         0.0785 
    119 H119      -50.1626  -28.0607   13.3191 H         1 UNK         0.0785 
    120 H120      -48.9951  -29.2161   13.9407 H         1 UNK         0.0785 
    121 H121      -48.3948  -26.5736   14.1392 H         1 UNK         0.2998 
    122 H122      -46.2670  -24.7072   16.3157 H         1 UNK         0.0697 
    123 H123      -45.6694  -26.5933   13.9748 H         1 UNK         0.0825 
    124 H124      -44.9028  -26.6399   15.5551 H         1 UNK         0.0825 
    125 H125      -44.6537  -25.2541   14.5040 H         1 UNK         0.0825 
    126 H126      -46.8998  -24.4415   13.5359 H         1 UNK         0.3029 
    127 H127      -49.6987  -22.2451   13.9864 H         1 UNK         0.0897 
    128 H128      -47.6881  -20.7845   14.1390 H         1 UNK         0.0792 
    129 H129      -48.3090  -20.8227   12.4959 H         1 UNK         0.0792 
    130 H130      -46.8687  -21.7460   12.9175 H         1 UNK         0.0792 
    131 H131      -48.4466  -23.2233   11.6227 H         1 UNK         0.3086 
    132 H132      -50.3346  -26.2659   11.3807 H         1 UNK         0.0583 
    133 H133      -50.6598  -23.5762    9.9700 H         1 UNK         0.1020 
    134 H134      -50.4906  -25.0158    9.0273 H         1 UNK         0.1020 
    135 H135      -53.8585  -26.4246    8.7523 H         1 UNK         0.0694 
    136 H136      -52.2907  -26.1216    8.0646 H         1 UNK         0.0694 
    137 H137      -48.3169  -25.1780    9.7134 H         1 UNK         0.2989 
    138 H138      -45.5158  -26.5824   11.4299 H         1 UNK         0.1055 
    139 H139      -46.3183  -28.3880    9.9529 H         1 UNK         0.0806 
    140 H140      -45.1213  -27.4257    9.1090 H         1 UNK         0.0806 
    141 H141      -46.8307  -27.2204    8.7362 H         1 UNK         0.0806 
    142 H142      -45.8534  -24.9215    9.0866 H         1 UNK         0.3061 
    143 H143      -45.4526  -21.8158   10.7690 H         1 UNK         0.0734 
    144 H144      -43.5107  -21.6287    9.2365 H         1 UNK         0.0832 
    145 H145      -43.1242  -22.6978   10.5736 H         1 UNK         0.0832 
    146 H146      -43.4944  -23.3765    8.9951 H         1 UNK         0.0832 
    147 H147      -45.6186  -22.5052    7.9973 H         1 UNK         0.3156 
    148 H148      -49.1864  -22.2878    7.7526 H         1 UNK         0.0589 
    149 H149      -46.8603  -20.6128    6.6662 H         1 UNK         0.0808 
    150 H150      -48.5064  -20.6569    6.0348 H         1 UNK         0.0808 
    151 H151      -48.1943  -19.9908    7.6276 H         1 UNK         0.0808 
    152 H152      -47.4268  -22.9070    5.6931 H         1 UNK         0.3098 
    153 H153      -47.8843  -25.0975    4.7586 H         1 UNK         0.0720 
    154 H154      -45.5569  -26.1019    6.5304 H         1 UNK         0.0791 
    155 H155      -45.4525  -24.7629    5.3937 H         1 UNK         0.0791 
    156 H156      -45.7112  -26.3926    4.8001 H         1 UNK         0.0791 
    157 H157      -48.5318  -26.7337    6.9635 H         1 UNK         0.3028 
@<TRIPOS>BOND
     1    1    2 1    
     2    1   82 1    
     3    1   83 1    
     4    1   84 1    
     5    2    3 2    
     6    2    4 am   BACKBONE|DICT|INTERRES
     7    4    5 1    
     8    4   85 1    
     9    5    6 1    
    10    5   80 1    
    11    5   86 1    
    12    6    7 1    
    13    6   87 1    
    14    6   88 1    
    15    7    8 1    
    16    8    9 1    
    17    8   89 1    
    18    8   90 1    
    19    9   10 ar   
    20    9   14 ar   
    21   10   11 ar   
    22   10   91 1    
    23   11   12 ar   
    24   11   58 1    
    25   12   13 ar   
    26   12   92 1    
    27   13   14 ar   
    28   13   15 1    
    29   14   93 1    
    30   15   16 1    
    31   15   94 1    
    32   15   95 1    
    33   16   17 1    
    34   17   18 1    
    35   17   96 1    
    36   17   97 1    
    37   18   19 1    
    38   18   22 1    
    39   18   98 1    
    40   19   20 am   BACKBONE|DICT|INTERRES
    41   19   21 2    
    42   20   99 1    
    43   20  100 1    
    44   22   23 am   BACKBONE|DICT|INTERRES
    45   22  101 1    
    46   23   24 2    
    47   23   25 1    
    48   25   26 1    
    49   25   27 1    
    50   25  102 1    
    51   26  103 1    
    52   26  104 1    
    53   26  105 1    
    54   27   28 am   BACKBONE|DICT|INTERRES
    55   27  106 1    
    56   28   29 2    
    57   28   30 1    
    58   30   31 1    
    59   30   32 1    
    60   30  107 1    
    61   31  108 1    
    62   31  109 1    
    63   31  110 1    
    64   32   33 am   BACKBONE|DICT|INTERRES
    65   32  111 1    
    66   33   34 2    
    67   33   35 1    
    68   35   36 1    
    69   35   37 1    
    70   35  112 1    
    71   36  113 1    
    72   36  114 1    
    73   36  115 1    
    74   37   38 am   BACKBONE|DICT|INTERRES
    75   37  116 1    
    76   38   39 2    
    77   38   40 1    
    78   40   41 1    
    79   40   42 1    
    80   40  117 1    
    81   41  118 1    
    82   41  119 1    
    83   41  120 1    
    84   42   43 am   BACKBONE|DICT|INTERRES
    85   42  121 1    
    86   43   44 2    
    87   43   45 1    
    88   45   46 1    
    89   45   47 1    
    90   45  122 1    
    91   46  123 1    
    92   46  124 1    
    93   46  125 1    
    94   47   48 am   BACKBONE|DICT|INTERRES
    95   47  126 1    
    96   48   49 2    
    97   48   50 1    
    98   50   51 1    
    99   50   52 1    
   100   50  127 1    
   101   51  128 1    
   102   51  129 1    
   103   51  130 1    
   104   52   53 am   BACKBONE|DICT|INTERRES
   105   52  131 1    
   106   53   54 2    
   107   53   55 1    
   108   55   56 1    
   109   55   59 1    
   110   55  132 1    
   111   56   57 1    
   112   56  133 1    
   113   56  134 1    
   114   57   58 1    
   115   58  135 1    
   116   58  136 1    
   117   59   60 am   BACKBONE|DICT|INTERRES
   118   59  137 1    
   119   60   61 2    
   120   60   62 1    
   121   62   63 1    
   122   62   64 1    
   123   62  138 1    
   124   63  139 1    
   125   63  140 1    
   126   63  141 1    
   127   64   65 am   BACKBONE|DICT|INTERRES
   128   64  142 1    
   129   65   66 2    
   130   65   67 1    
   131   67   68 1    
   132   67   69 1    
   133   67  143 1    
   134   68  144 1    
   135   68  145 1    
   136   68  146 1    
   137   69   70 am   BACKBONE|DICT|INTERRES
   138   69  147 1    
   139   70   71 2    
   140   70   72 1    
   141   72   73 1    
   142   72   74 1    
   143   72  148 1    
   144   73  149 1    
   145   73  150 1    
   146   73  151 1    
   147   74   75 am   BACKBONE|DICT|INTERRES
   148   74  152 1    
   149   75   76 2    
   150   75   77 1    
   151   77   78 1    
   152   77   79 1    
   153   77  153 1    
   154   78  154 1    
   155   78  155 1    
   156   78  156 1    
   157   79   80 am   BACKBONE|DICT|INTERRES
   158   79  157 1    
   159   80   81 2    
@<TRIPOS>SUBSTRUCTURE
     1 UNK         1 GROUP             0       ****    0 ROOT    
