@<TRIPOS>MOLECULE
3R207
157   159    1
SMALL
USER_CHARGES


@<TRIPOS>ATOM
      1 CA        -46.2284  -27.6801   11.9440 C.3       0 UNK        -0.1975 
      2 C         -46.5639  -27.7873   10.4644 C.2       0 UNK         0.4852 
      3 O         -46.7776  -26.7670    9.8145 O.2       0 UNK        -0.5216 
      4 N         -46.5884  -29.0135    9.9204 N.am      1 UNK        -0.4461 
      5 CA        -47.0061  -29.3506    8.5485 C.3       1 UNK         0.0864 
      6 C6        -48.5380  -29.1684    8.3378 C.3       14 UNK        -0.0898 
      7 S7        -49.2767  -30.5122    7.3469 S.3       14 UNK        -0.2598 
      8 C8        -50.7281  -30.9870    8.3586 C.3       14 UNK         0.0286 
      9 C9        -51.8108  -29.9119    8.4878 C.ar      14 UNK        -0.0844 
     10 C10       -52.0013  -28.9330    7.5079 C.ar      14 UNK        -0.0881 
     11 C11       -52.9646  -27.9348    7.6672 C.ar      14 UNK        -0.0643 
     12 C12       -53.7937  -27.9533    8.7931 C.ar      14 UNK        -0.0930 
     13 C13       -53.6471  -28.9476    9.7734 C.ar      14 UNK        -0.0827 
     14 C14       -52.6477  -29.9138    9.6085 C.ar      14 UNK        -0.1249 
     15 C15       -54.5090  -29.0223   11.0396 C.3       14 UNK         0.0141 
     16 S16       -55.8725  -27.8109   11.1708 S.3       14 UNK        -0.2313 
     17 C17       -56.7186  -28.3911   12.6800 C.3       14 UNK        -0.0915 
     18 CA        -57.1545  -27.2425   13.6269 C.3       13 UNK         0.0968 
     19 C         -58.1086  -27.7823   14.7286 C.2       13 UNK         0.5732 
     20 N         -57.6034  -28.2096   15.8784 N.am      13 UNK        -0.7310 
     21 O         -59.3219  -27.8095   14.5356 O.2       13 UNK        -0.5035 
     22 N         -56.0126  -26.4778   14.1572 N.am      13 UNK        -0.4233 
     23 C         -56.1260  -25.2850   14.7602 C.2       13 UNK         0.4989 
     24 O         -57.1957  -24.6899   14.9067 O.2       13 UNK        -0.4996 
     25 CA        -54.8166  -24.6410   15.2529 C.3       12 UNK         0.0216 
     26 CB        -55.0224  -23.3083   16.0073 C.3       12 UNK        -0.1964 
     27 N         -53.9935  -25.5854   16.0147 N.am      12 UNK        -0.4276 
     28 C         -54.2485  -26.0863   17.2309 C.2       12 UNK         0.5020 
     29 O         -55.2250  -25.7765   17.9162 O.2       12 UNK        -0.5489 
     30 CA        -53.2259  -27.1077   17.7697 C.3       11 UNK         0.0294 
     31 CB        -53.7021  -27.7923   19.0690 C.3       11 UNK        -0.2019 
     32 N         -52.8138  -28.1260   16.7934 N.am      11 UNK        -0.4493 
     33 C         -53.6112  -28.9600   16.1080 C.2       11 UNK         0.4932 
     34 O         -54.8393  -28.8806   16.0819 O.2       11 UNK        -0.5029 
     35 CA        -52.8976  -30.0746   15.3334 C.3       10 UNK         0.0280 
     36 CB        -53.8316  -30.9323   14.4598 C.3       10 UNK        -0.1976 
     37 N         -51.8183  -29.5133   14.5246 N.am      10 UNK        -0.4242 
     38 C         -50.6220  -30.0931   14.3566 C.2       10 UNK         0.5072 
     39 O         -50.3197  -31.1879   14.8341 O.2       10 UNK        -0.5224 
     40 CA        -49.5719  -29.3399   13.5197 C.3       9 UNK         0.0343 
     41 CB        -49.5442  -29.9082   12.0950 C.3       9 UNK        -0.2003 
     42 N         -49.7715  -27.8892   13.4541 N.am      9 UNK        -0.4272 
     43 C         -49.7429  -27.0579   14.5089 C.2       9 UNK         0.4988 
     44 O         -49.4806  -27.4197   15.6561 O.2       9 UNK        -0.5108 
     45 CA        -50.1149  -25.5825   14.2648 C.3       8 UNK         0.0248 
     46 CB        -48.8456  -24.7214   14.1706 C.3       8 UNK        -0.2001 
     47 N         -50.9375  -25.3623   13.0717 N.am      8 UNK        -0.4140 
     48 C         -52.1398  -25.9147   12.8465 C.2       8 UNK         0.5028 
     49 O         -52.7233  -26.6322   13.6641 O.2       8 UNK        -0.5428 
     50 CA        -52.7850  -25.6758   11.4720 C.3       7 UNK         0.0264 
     51 CB        -53.9125  -24.6367   11.5450 C.3       7 UNK        -0.1988 
     52 N         -51.8593  -25.2812   10.4143 N.am      7 UNK        -0.4454 
     53 C         -50.8111  -25.9858    9.9633 C.2       7 UNK         0.5027 
     54 O         -50.4346  -27.0517   10.4529 O.2       7 UNK        -0.5083 
     55 CA        -50.0228  -25.3353    8.8048 C.3       6 UNK         0.0844 
     56 C56       -50.5630  -25.7493    7.4095 C.3       14 UNK        -0.0967 
     57 S57       -52.3058  -25.2703    7.0924 S.3       14 UNK        -0.2604 
     58 C58       -53.1017  -26.8436    6.6117 C.3       14 UNK         0.0134 
     59 N         -49.9132  -23.8745    8.9085 N.am      6 UNK        -0.4116 
     60 C         -49.4774  -23.1651    9.9588 C.2       5 UNK         0.5034 
     61 O         -49.2051  -23.6520   11.0576 O.2       5 UNK        -0.5045 
     62 CA        -49.2894  -21.6554    9.7144 C.3       5 UNK         0.0224 
     63 CB        -48.8483  -20.9007   10.9827 C.3       5 UNK        -0.1978 
     64 N         -48.2940  -21.4393    8.6623 N.am      5 UNK        -0.4737 
     65 C         -48.5281  -21.5179    7.3447 C.2       4 UNK         0.5027 
     66 O         -49.6519  -21.6506    6.8601 O.2       4 UNK        -0.5211 
     67 CA        -47.2921  -21.5324    6.4278 C.3       4 UNK         0.0297 
     68 CB        -46.8490  -20.1005    6.0881 C.3       4 UNK        -0.1993 
     69 N         -46.1739  -22.2703    7.0277 N.am      4 UNK        -0.4486 
     70 C         -46.1798  -23.5907    7.2625 C.2       3 UNK         0.4961 
     71 O         -47.0777  -24.3514    6.8942 O.2       3 UNK        -0.5105 
     72 CA        -45.0135  -24.1209    8.1090 C.3       3 UNK         0.0299 
     73 CB        -45.2672  -23.8285    9.5990 C.3       3 UNK        -0.1972 
     74 N         -44.8324  -25.5626    7.9282 N.am      3 UNK        -0.4305 
     75 C         -44.1067  -26.1099    6.9414 C.2       2 UNK         0.5006 
     76 O         -43.5243  -25.4436    6.0835 O.2       2 UNK        -0.5106 
     77 CA        -43.9521  -27.6440    6.9035 C.3       2 UNK         0.0296 
     78 CB        -42.5193  -28.0453    7.2957 C.3       2 UNK        -0.2002 
     79 N         -44.8903  -28.3553    7.7730 N.am      2 UNK        -0.4032 
     80 C         -46.1544  -28.6620    7.4486 C.2       1 UNK         0.5000 
     81 O         -46.6405  -28.4231    6.3411 O.2       1 UNK        -0.5238 
     82 H82       -46.0877  -28.6579   12.4040 H         1 UNK         0.0889 
     83 H83       -47.0352  -27.1715   12.4706 H         1 UNK         0.0889 
     84 H84       -45.3150  -27.1020   12.0808 H         1 UNK         0.0889 
     85 H85       -46.3590  -29.8088   10.5009 H         1 UNK         0.3028 
     86 H86       -46.7758  -30.4131    8.4549 H         1 UNK         0.0864 
     87 H87       -48.7656  -28.2080    7.8763 H         1 UNK         0.0720 
     88 H88       -49.0553  -29.1429    9.2959 H         1 UNK         0.0720 
     89 H89       -50.3753  -31.2823    9.3480 H         1 UNK         0.0814 
     90 H90       -51.1803  -31.8751    7.9159 H         1 UNK         0.0814 
     91 H91       -51.3808  -28.9263    6.6233 H         1 UNK         0.1469 
     92 H92       -54.5374  -27.1771    8.8994 H         1 UNK         0.1381 
     93 H93       -52.5175  -30.6752   10.3657 H         1 UNK         0.1206 
     94 H94       -53.8550  -28.8912   11.9025 H         1 UNK         0.0813 
     95 H95       -54.9326  -30.0252   11.1125 H         1 UNK         0.0813 
     96 H96       -56.0806  -29.0902   13.2195 H         1 UNK         0.0638 
     97 H97       -57.5867  -28.9665   12.3525 H         1 UNK         0.0638 
     98 H98       -57.7474  -26.5470   13.0293 H         1 UNK         0.0568 
     99 H99       -58.2225  -28.5527   16.5941 H         1 UNK         0.3450 
    100 H100      -56.5961  -28.2700   16.0073 H         1 UNK         0.3450 
    101 H101      -55.1026  -26.9117   14.0874 H         1 UNK         0.2987 
    102 H102      -54.2399  -24.3988   14.3624 H         1 UNK         0.0766 
    103 H103      -54.0726  -22.8883   16.3382 H         1 UNK         0.0798 
    104 H104      -55.6619  -23.4252   16.8824 H         1 UNK         0.0798 
    105 H105      -55.4961  -22.5679   15.3616 H         1 UNK         0.0798 
    106 H106      -53.2247  -25.9905   15.4887 H         1 UNK         0.3198 
    107 H107      -52.3294  -26.5341   18.0111 H         1 UNK         0.0843 
    108 H108      -54.6189  -28.3617   18.9106 H         1 UNK         0.0831 
    109 H109      -53.9060  -27.0572   19.8487 H         1 UNK         0.0831 
    110 H110      -52.9469  -28.4741   19.4599 H         1 UNK         0.0831 
    111 H111      -51.8147  -28.2587   16.7019 H         1 UNK         0.3133 
    112 H112      -52.4775  -30.7278   16.1012 H         1 UNK         0.0566 
    113 H113      -54.2671  -30.3538   13.6499 H         1 UNK         0.0814 
    114 H114      -53.2961  -31.7725   14.0177 H         1 UNK         0.0814 
    115 H115      -54.6521  -31.3459   15.0476 H         1 UNK         0.0814 
    116 H116      -51.9894  -28.5968   14.1220 H         1 UNK         0.3091 
    117 H117      -48.5990  -29.5194   13.9817 H         1 UNK         0.0702 
    118 H118      -48.7168  -29.4893   11.5308 H         1 UNK         0.0785 
    119 H119      -50.4648  -29.6855   11.5548 H         1 UNK         0.0785 
    120 H120      -49.4167  -30.9917   12.0995 H         1 UNK         0.0785 
    121 H121      -50.0035  -27.5088   12.5422 H         1 UNK         0.2998 
    122 H122      -50.6945  -25.2471   15.1271 H         1 UNK         0.0697 
    123 H123      -48.2340  -24.9986   13.3108 H         1 UNK         0.0825 
    124 H124      -48.2273  -24.8341   15.0622 H         1 UNK         0.0825 
    125 H125      -49.0894  -23.6629   14.0771 H         1 UNK         0.0825 
    126 H126      -50.5157  -24.8093   12.3328 H         1 UNK         0.3029 
    127 H127      -53.2134  -26.6253   11.1674 H         1 UNK         0.0897 
    128 H128      -54.7269  -24.9921   12.1727 H         1 UNK         0.0792 
    129 H129      -54.3437  -24.4490   10.5613 H         1 UNK         0.0792 
    130 H130      -53.5649  -23.6848   11.9487 H         1 UNK         0.0792 
    131 H131      -52.0703  -24.4192    9.9332 H         1 UNK         0.3086 
    132 H132      -49.0015  -25.7116    8.8796 H         1 UNK         0.0583 
    133 H133      -49.9430  -25.2968    6.6332 H         1 UNK         0.1020 
    134 H134      -50.4380  -26.8193    7.2684 H         1 UNK         0.1020 
    135 H135      -54.1596  -26.6562    6.4222 H         1 UNK         0.0694 
    136 H136      -52.6802  -27.1757    5.6616 H         1 UNK         0.0694 
    137 H137      -50.0915  -23.3624    8.0522 H         1 UNK         0.2989 
    138 H138      -50.2522  -21.2481    9.3965 H         1 UNK         0.1055 
    139 H139      -49.5793  -21.0230   11.7833 H         1 UNK         0.0806 
    140 H140      -48.7518  -19.8312   10.7947 H         1 UNK         0.0806 
    141 H141      -47.8906  -21.2636   11.3586 H         1 UNK         0.0806 
    142 H142      -47.3344  -21.3629    8.9655 H         1 UNK         0.3061 
    143 H143      -47.5716  -22.0351    5.4992 H         1 UNK         0.0734 
    144 H144      -47.6629  -19.5429    5.6223 H         1 UNK         0.0832 
    145 H145      -46.0151  -20.0987    5.3860 H         1 UNK         0.0832 
    146 H146      -46.5428  -19.5469    6.9766 H         1 UNK         0.0832 
    147 H147      -45.3876  -21.7231    7.3490 H         1 UNK         0.3156 
    148 H148      -44.0980  -23.6055    7.8104 H         1 UNK         0.0589 
    149 H149      -46.2336  -24.2121    9.9296 H         1 UNK         0.0808 
    150 H150      -44.4975  -24.2734   10.2299 H         1 UNK         0.0808 
    151 H151      -45.2636  -22.7561    9.7956 H         1 UNK         0.0808 
    152 H152      -45.3862  -26.1570    8.5383 H         1 UNK         0.3098 
    153 H153      -44.1185  -27.9595    5.8712 H         1 UNK         0.0720 
    154 H154      -42.3712  -29.1221    7.2114 H         1 UNK         0.0791 
    155 H155      -42.2828  -27.7515    8.3192 H         1 UNK         0.0791 
    156 H156      -41.7866  -27.5687    6.6428 H         1 UNK         0.0791 
    157 H157      -44.5686  -28.5830    8.7026 H         1 UNK         0.3028 
@<TRIPOS>BOND
     1    1    2 1    
     2    1   82 1    
     3    1   83 1    
     4    1   84 1    
     5    2    3 2    
     6    2    4 am   BACKBONE|DICT|INTERRES
     7    4    5 1    
     8    4   85 1    
     9    5    6 1    
    10    5   80 1    
    11    5   86 1    
    12    6    7 1    
    13    6   87 1    
    14    6   88 1    
    15    7    8 1    
    16    8    9 1    
    17    8   89 1    
    18    8   90 1    
    19    9   10 ar   
    20    9   14 ar   
    21   10   11 ar   
    22   10   91 1    
    23   11   12 ar   
    24   11   58 1    
    25   12   13 ar   
    26   12   92 1    
    27   13   14 ar   
    28   13   15 1    
    29   14   93 1    
    30   15   16 1    
    31   15   94 1    
    32   15   95 1    
    33   16   17 1    
    34   17   18 1    
    35   17   96 1    
    36   17   97 1    
    37   18   19 1    
    38   18   22 1    
    39   18   98 1    
    40   19   20 am   BACKBONE|DICT|INTERRES
    41   19   21 2    
    42   20   99 1    
    43   20  100 1    
    44   22   23 am   BACKBONE|DICT|INTERRES
    45   22  101 1    
    46   23   24 2    
    47   23   25 1    
    48   25   26 1    
    49   25   27 1    
    50   25  102 1    
    51   26  103 1    
    52   26  104 1    
    53   26  105 1    
    54   27   28 am   BACKBONE|DICT|INTERRES
    55   27  106 1    
    56   28   29 2    
    57   28   30 1    
    58   30   31 1    
    59   30   32 1    
    60   30  107 1    
    61   31  108 1    
    62   31  109 1    
    63   31  110 1    
    64   32   33 am   BACKBONE|DICT|INTERRES
    65   32  111 1    
    66   33   34 2    
    67   33   35 1    
    68   35   36 1    
    69   35   37 1    
    70   35  112 1    
    71   36  113 1    
    72   36  114 1    
    73   36  115 1    
    74   37   38 am   BACKBONE|DICT|INTERRES
    75   37  116 1    
    76   38   39 2    
    77   38   40 1    
    78   40   41 1    
    79   40   42 1    
    80   40  117 1    
    81   41  118 1    
    82   41  119 1    
    83   41  120 1    
    84   42   43 am   BACKBONE|DICT|INTERRES
    85   42  121 1    
    86   43   44 2    
    87   43   45 1    
    88   45   46 1    
    89   45   47 1    
    90   45  122 1    
    91   46  123 1    
    92   46  124 1    
    93   46  125 1    
    94   47   48 am   BACKBONE|DICT|INTERRES
    95   47  126 1    
    96   48   49 2    
    97   48   50 1    
    98   50   51 1    
    99   50   52 1    
   100   50  127 1    
   101   51  128 1    
   102   51  129 1    
   103   51  130 1    
   104   52   53 am   BACKBONE|DICT|INTERRES
   105   52  131 1    
   106   53   54 2    
   107   53   55 1    
   108   55   56 1    
   109   55   59 1    
   110   55  132 1    
   111   56   57 1    
   112   56  133 1    
   113   56  134 1    
   114   57   58 1    
   115   58  135 1    
   116   58  136 1    
   117   59   60 am   BACKBONE|DICT|INTERRES
   118   59  137 1    
   119   60   61 2    
   120   60   62 1    
   121   62   63 1    
   122   62   64 1    
   123   62  138 1    
   124   63  139 1    
   125   63  140 1    
   126   63  141 1    
   127   64   65 am   BACKBONE|DICT|INTERRES
   128   64  142 1    
   129   65   66 2    
   130   65   67 1    
   131   67   68 1    
   132   67   69 1    
   133   67  143 1    
   134   68  144 1    
   135   68  145 1    
   136   68  146 1    
   137   69   70 am   BACKBONE|DICT|INTERRES
   138   69  147 1    
   139   70   71 2    
   140   70   72 1    
   141   72   73 1    
   142   72   74 1    
   143   72  148 1    
   144   73  149 1    
   145   73  150 1    
   146   73  151 1    
   147   74   75 am   BACKBONE|DICT|INTERRES
   148   74  152 1    
   149   75   76 2    
   150   75   77 1    
   151   77   78 1    
   152   77   79 1    
   153   77  153 1    
   154   78  154 1    
   155   78  155 1    
   156   78  156 1    
   157   79   80 am   BACKBONE|DICT|INTERRES
   158   79  157 1    
   159   80   81 2    
@<TRIPOS>SUBSTRUCTURE
     1 UNK         1 GROUP             0       ****    0 ROOT    
