@<TRIPOS>MOLECULE
3R207
157   159    1
SMALL
USER_CHARGES


@<TRIPOS>ATOM
      1 CA        -48.0884  -31.8643    8.4919 C.3       0 UNK        -0.1975 
      2 C         -48.1784  -31.3267    7.0713 C.2       0 UNK         0.4852 
      3 O         -47.8207  -32.0346    6.1287 O.2       0 UNK        -0.5216 
      4 N         -48.6473  -30.0840    6.9186 N.am      1 UNK        -0.4461 
      5 CA        -48.7491  -29.3563    5.6511 C.3       1 UNK         0.0864 
      6 C6        -50.2183  -29.1668    5.1788 C.3       14 UNK        -0.0898 
      7 S7        -51.1138  -30.7416    4.9377 S.3       14 UNK        -0.2598 
      8 C8        -52.8219  -30.3054    5.4368 C.3       14 UNK         0.0286 
      9 C9        -52.9862  -29.7827    6.8664 C.ar      14 UNK        -0.0844 
     10 C10       -52.0661  -30.0797    7.8791 C.ar      14 UNK        -0.0881 
     11 C11       -52.2033  -29.5284    9.1543 C.ar      14 UNK        -0.0643 
     12 C12       -53.3091  -28.7271    9.4414 C.ar      14 UNK        -0.0930 
     13 C13       -54.2589  -28.4493    8.4554 C.ar      14 UNK        -0.0827 
     14 C14       -54.0858  -28.9715    7.1692 C.ar      14 UNK        -0.1249 
     15 C15       -55.4474  -27.5511    8.7726 C.3       14 UNK         0.0141 
     16 S16       -57.0327  -28.4492    8.7542 S.3       14 UNK        -0.2313 
     17 C17       -56.8638  -29.5924   10.1662 C.3       14 UNK        -0.0915 
     18 CA        -57.6605  -29.1251   11.4111 C.3       13 UNK         0.0968 
     19 C         -57.7390  -30.2638   12.4651 C.2       13 UNK         0.5732 
     20 N         -58.7583  -31.1085   12.3899 N.am      13 UNK        -0.7310 
     21 O         -56.8675  -30.4112   13.3208 O.2       13 UNK        -0.5035 
     22 N         -57.0864  -27.8986   11.9765 N.am      13 UNK        -0.4233 
     23 C         -57.6504  -27.1405   12.9219 C.2       13 UNK         0.4989 
     24 O         -58.8018  -27.2990   13.3325 O.2       13 UNK        -0.4996 
     25 CA        -56.7516  -26.0429   13.5280 C.3       12 UNK         0.0216 
     26 CB        -57.5159  -25.1082   14.4843 C.3       12 UNK        -0.1964 
     27 N         -55.6091  -26.6210   14.2429 N.am      12 UNK        -0.4276 
     28 C         -54.5373  -27.1828   13.6711 C.2       12 UNK         0.5020 
     29 O         -54.3546  -27.2075   12.4524 O.2       12 UNK        -0.5489 
     30 CA        -53.5054  -27.8044   14.6231 C.3       11 UNK         0.0294 
     31 CB        -52.5118  -28.7301   13.8983 C.3       11 UNK        -0.2019 
     32 N         -52.7601  -26.7534   15.3082 N.am      11 UNK        -0.4493 
     33 C         -53.1607  -26.1170   16.4160 C.2       11 UNK         0.4932 
     34 O         -54.2354  -26.3462   16.9754 O.2       11 UNK        -0.5029 
     35 CA        -52.2046  -25.0453   16.9777 C.3       10 UNK         0.0280 
     36 CB        -52.4863  -24.6963   18.4543 C.3       10 UNK        -0.1976 
     37 N         -50.7900  -25.3811   16.7715 N.am      10 UNK        -0.4242 
     38 C         -50.1198  -26.4419   17.2521 C.2       10 UNK         0.5072 
     39 O         -50.6022  -27.2592   18.0376 O.2       10 UNK        -0.5224 
     40 CA        -48.6737  -26.6611   16.7603 C.3       9 UNK         0.0343 
     41 CB        -48.6017  -27.9073   15.8615 C.3       9 UNK        -0.2003 
     42 N         -48.1130  -25.5206   16.0311 N.am      9 UNK        -0.4272 
     43 C         -47.7207  -24.3700   16.5956 C.2       9 UNK         0.4988 
     44 O         -47.7106  -24.1711   17.8107 O.2       9 UNK        -0.5108 
     45 CA        -47.3070  -23.2355   15.6424 C.3       8 UNK         0.0248 
     46 CB        -45.8196  -23.3563   15.2748 C.3       8 UNK        -0.2001 
     47 N         -48.1199  -23.1785   14.4211 N.am      8 UNK        -0.4140 
     48 C         -49.4408  -22.9415   14.3945 C.2       8 UNK         0.5028 
     49 O         -50.1143  -22.7169   15.4000 O.2       8 UNK        -0.5428 
     50 CA        -50.1463  -23.0255   13.0304 C.3       7 UNK         0.0264 
     51 CB        -49.8759  -21.7682   12.1893 C.3       7 UNK        -0.1988 
     52 N         -49.7716  -24.2242   12.2771 N.am      7 UNK        -0.4454 
     53 C         -50.0196  -25.4805   12.6784 C.2       7 UNK         0.5027 
     54 O         -50.6549  -25.7561   13.6966 O.2       7 UNK        -0.5083 
     55 CA        -49.4099  -26.6259   11.8480 C.3       6 UNK         0.0844 
     56 C56       -50.3425  -27.0787   10.7014 C.3       14 UNK        -0.0967 
     57 S57       -49.7303  -28.6307    9.9549 S.3       14 UNK        -0.2604 
     58 C58       -51.1298  -29.7691   10.2017 C.3       14 UNK         0.0134 
     59 N         -48.0720  -26.2828   11.3633 N.am      6 UNK        -0.4116 
     60 C         -46.9888  -26.1630   12.1398 C.2       5 UNK         0.5034 
     61 O         -46.9924  -26.3266   13.3601 O.2       5 UNK        -0.5045 
     62 CA        -45.6911  -25.7481   11.4292 C.3       5 UNK         0.0224 
     63 CB        -45.0950  -26.9296   10.6457 C.3       5 UNK        -0.1978 
     64 N         -45.8808  -24.6050   10.5302 N.am      5 UNK        -0.4737 
     65 C         -46.2412  -23.3803   10.9374 C.2       4 UNK         0.5027 
     66 O         -46.4520  -23.0841   12.1119 O.2       4 UNK        -0.5211 
     67 CA        -46.4253  -22.3072    9.8535 C.3       4 UNK         0.0297 
     68 CB        -45.0685  -21.6940    9.4721 C.3       4 UNK        -0.1993 
     69 N         -47.1174  -22.7604    8.6417 N.am      4 UNK        -0.4486 
     70 C         -48.3305  -23.3333    8.5999 C.2       3 UNK         0.4961 
     71 O         -48.9621  -23.7006    9.5903 O.2       3 UNK        -0.5105 
     72 CA        -48.9290  -23.5371    7.2067 C.3       3 UNK         0.0299 
     73 CB        -49.2761  -22.1893    6.5426 C.3       3 UNK        -0.1972 
     74 N         -48.0110  -24.3227    6.3854 N.am      3 UNK        -0.4305 
     75 C         -48.3475  -24.9779    5.2694 C.2       2 UNK         0.5006 
     76 O         -49.4529  -24.8987    4.7302 O.2       2 UNK        -0.5106 
     77 CA        -47.2936  -25.9225    4.6570 C.3       2 UNK         0.0296 
     78 CB        -45.8711  -25.7750    5.2492 C.3       2 UNK        -0.2002 
     79 N         -47.7578  -27.3136    4.7308 N.am      2 UNK        -0.4032 
     80 C         -48.0776  -27.9860    5.8480 C.2       1 UNK         0.5000 
     81 O         -47.8963  -27.5505    6.9904 O.2       1 UNK        -0.5238 
     82 H82       -48.1537  -31.0682    9.2325 H         1 UNK         0.0889 
     83 H83       -47.1404  -32.3806    8.6407 H         1 UNK         0.0889 
     84 H84       -48.8958  -32.5722    8.6766 H         1 UNK         0.0889 
     85 H85       -48.8433  -29.5121    7.7322 H         1 UNK         0.3028 
     86 H86       -48.1922  -29.8825    4.8729 H         1 UNK         0.0864 
     87 H87       -50.7626  -28.5417    5.8888 H         1 UNK         0.0720 
     88 H88       -50.2488  -28.6308    4.2286 H         1 UNK         0.0720 
     89 H89       -53.4516  -31.1880    5.3191 H         1 UNK         0.0814 
     90 H90       -53.1979  -29.5629    4.7310 H         1 UNK         0.0814 
     91 H91       -51.2143  -30.7100    7.6720 H         1 UNK         0.1469 
     92 H92       -53.4199  -28.3068   10.4297 H         1 UNK         0.1381 
     93 H93       -54.8114  -28.7397    6.4011 H         1 UNK         0.1206 
     94 H94       -55.3212  -27.0628    9.7401 H         1 UNK         0.0813 
     95 H95       -55.4917  -26.7497    8.0339 H         1 UNK         0.0813 
     96 H96       -55.8115  -29.7384   10.4139 H         1 UNK         0.0638 
     97 H97       -57.2274  -30.5632    9.8242 H         1 UNK         0.0638 
     98 H98       -58.6807  -28.8927   11.0991 H         1 UNK         0.0568 
     99 H99       -59.4717  -31.0049   11.6851 H         1 UNK         0.3450 
    100 H100      -58.8184  -31.8626   13.0561 H         1 UNK         0.3450 
    101 H101      -56.1027  -27.7350   11.7860 H         1 UNK         0.2987 
    102 H102      -56.3749  -25.4370   12.7009 H         1 UNK         0.0766 
    103 H103      -56.8749  -24.3059   14.8508 H         1 UNK         0.0798 
    104 H104      -57.9078  -25.6454   15.3490 H         1 UNK         0.0798 
    105 H105      -58.3619  -24.6398   13.9794 H         1 UNK         0.0798 
    106 H106      -55.6536  -26.6217   15.2553 H         1 UNK         0.3198 
    107 H107      -54.0457  -28.4084   15.3557 H         1 UNK         0.0843 
    108 H108      -53.0371  -29.5204   13.3604 H         1 UNK         0.0831 
    109 H109      -51.8327  -29.2104   14.6028 H         1 UNK         0.0831 
    110 H110      -51.9084  -28.1848   13.1741 H         1 UNK         0.0831 
    111 H111      -51.9087  -26.4343   14.8474 H         1 UNK         0.3133 
    112 H112      -52.3854  -24.1454   16.3884 H         1 UNK         0.0566 
    113 H113      -51.7998  -23.9318   18.8182 H         1 UNK         0.0814 
    114 H114      -53.4978  -24.3073   18.5774 H         1 UNK         0.0814 
    115 H115      -52.3938  -25.5679   19.1027 H         1 UNK         0.0814 
    116 H116      -50.3006  -24.7662   16.1315 H         1 UNK         0.3091 
    117 H117      -48.0546  -26.8407   17.6417 H         1 UNK         0.0702 
    118 H118      -47.5798  -28.1061   15.5379 H         1 UNK         0.0785 
    119 H119      -49.2200  -27.7960   14.9706 H         1 UNK         0.0785 
    120 H120      -48.9518  -28.7941   16.3914 H         1 UNK         0.0785 
    121 H121      -48.0144  -25.6272   15.0267 H         1 UNK         0.2998 
    122 H122      -47.4493  -22.2925   16.1743 H         1 UNK         0.0697 
    123 H123      -45.6189  -24.2599   14.6978 H         1 UNK         0.0825 
    124 H124      -45.1961  -23.3929   16.1691 H         1 UNK         0.0825 
    125 H125      -45.4876  -22.5028   14.6835 H         1 UNK         0.0825 
    126 H126      -47.6230  -23.3062   13.5410 H         1 UNK         0.3029 
    127 H127      -51.2208  -23.0803   13.2187 H         1 UNK         0.0897 
    128 H128      -50.4232  -21.7967   11.2468 H         1 UNK         0.0792 
    129 H129      -50.1901  -20.8689   12.7206 H         1 UNK         0.0792 
    130 H130      -48.8172  -21.6564   11.9569 H         1 UNK         0.0792 
    131 H131      -49.2926  -24.0768   11.3906 H         1 UNK         0.3086 
    132 H132      -49.2992  -27.4712   12.5309 H         1 UNK         0.0583 
    133 H133      -51.3607  -27.2225   11.0655 H         1 UNK         0.1020 
    134 H134      -50.4057  -26.3141    9.9245 H         1 UNK         0.1020 
    135 H135      -50.7679  -30.7955   10.1250 H         1 UNK         0.0694 
    136 H136      -51.5310  -29.6621   11.2098 H         1 UNK         0.0694 
    137 H137      -47.9844  -26.1037   10.3738 H         1 UNK         0.2989 
    138 H138      -44.9769  -25.4529   12.2014 H         1 UNK         0.1055 
    139 H139      -44.9412  -27.7909   11.2976 H         1 UNK         0.0806 
    140 H140      -44.1255  -26.6729   10.2183 H         1 UNK         0.0806 
    141 H141      -45.7465  -27.2503    9.8313 H         1 UNK         0.0806 
    142 H142      -45.7296  -24.7595    9.5445 H         1 UNK         0.3061 
    143 H143      -47.0378  -21.5151   10.2888 H         1 UNK         0.0734 
    144 H144      -44.5403  -21.3352   10.3569 H         1 UNK         0.0832 
    145 H145      -44.4200  -22.4185    8.9781 H         1 UNK         0.0832 
    146 H146      -45.1902  -20.8407    8.8047 H         1 UNK         0.0832 
    147 H147      -46.6974  -22.4824    7.7665 H         1 UNK         0.3156 
    148 H148      -49.8514  -24.1089    7.3326 H         1 UNK         0.0589 
    149 H149      -48.3843  -21.6095    6.3030 H         1 UNK         0.0808 
    150 H150      -49.8358  -22.3328    5.6184 H         1 UNK         0.0808 
    151 H151      -49.8974  -21.5792    7.1998 H         1 UNK         0.0808 
    152 H152      -47.1039  -24.5145    6.7863 H         1 UNK         0.3098 
    153 H153      -47.2359  -25.6675    3.5977 H         1 UNK         0.0720 
    154 H154      -45.1655  -26.4173    4.7221 H         1 UNK         0.0791 
    155 H155      -45.8235  -26.0412    6.3055 H         1 UNK         0.0791 
    156 H156      -45.5052  -24.7525    5.1450 H         1 UNK         0.0791 
    157 H157      -47.9657  -27.7438    3.8402 H         1 UNK         0.3028 
@<TRIPOS>BOND
     1    1    2 1    
     2    1   82 1    
     3    1   83 1    
     4    1   84 1    
     5    2    3 2    
     6    2    4 am   BACKBONE|DICT|INTERRES
     7    4    5 1    
     8    4   85 1    
     9    5    6 1    
    10    5   80 1    
    11    5   86 1    
    12    6    7 1    
    13    6   87 1    
    14    6   88 1    
    15    7    8 1    
    16    8    9 1    
    17    8   89 1    
    18    8   90 1    
    19    9   10 ar   
    20    9   14 ar   
    21   10   11 ar   
    22   10   91 1    
    23   11   12 ar   
    24   11   58 1    
    25   12   13 ar   
    26   12   92 1    
    27   13   14 ar   
    28   13   15 1    
    29   14   93 1    
    30   15   16 1    
    31   15   94 1    
    32   15   95 1    
    33   16   17 1    
    34   17   18 1    
    35   17   96 1    
    36   17   97 1    
    37   18   19 1    
    38   18   22 1    
    39   18   98 1    
    40   19   20 am   BACKBONE|DICT|INTERRES
    41   19   21 2    
    42   20   99 1    
    43   20  100 1    
    44   22   23 am   BACKBONE|DICT|INTERRES
    45   22  101 1    
    46   23   24 2    
    47   23   25 1    
    48   25   26 1    
    49   25   27 1    
    50   25  102 1    
    51   26  103 1    
    52   26  104 1    
    53   26  105 1    
    54   27   28 am   BACKBONE|DICT|INTERRES
    55   27  106 1    
    56   28   29 2    
    57   28   30 1    
    58   30   31 1    
    59   30   32 1    
    60   30  107 1    
    61   31  108 1    
    62   31  109 1    
    63   31  110 1    
    64   32   33 am   BACKBONE|DICT|INTERRES
    65   32  111 1    
    66   33   34 2    
    67   33   35 1    
    68   35   36 1    
    69   35   37 1    
    70   35  112 1    
    71   36  113 1    
    72   36  114 1    
    73   36  115 1    
    74   37   38 am   BACKBONE|DICT|INTERRES
    75   37  116 1    
    76   38   39 2    
    77   38   40 1    
    78   40   41 1    
    79   40   42 1    
    80   40  117 1    
    81   41  118 1    
    82   41  119 1    
    83   41  120 1    
    84   42   43 am   BACKBONE|DICT|INTERRES
    85   42  121 1    
    86   43   44 2    
    87   43   45 1    
    88   45   46 1    
    89   45   47 1    
    90   45  122 1    
    91   46  123 1    
    92   46  124 1    
    93   46  125 1    
    94   47   48 am   BACKBONE|DICT|INTERRES
    95   47  126 1    
    96   48   49 2    
    97   48   50 1    
    98   50   51 1    
    99   50   52 1    
   100   50  127 1    
   101   51  128 1    
   102   51  129 1    
   103   51  130 1    
   104   52   53 am   BACKBONE|DICT|INTERRES
   105   52  131 1    
   106   53   54 2    
   107   53   55 1    
   108   55   56 1    
   109   55   59 1    
   110   55  132 1    
   111   56   57 1    
   112   56  133 1    
   113   56  134 1    
   114   57   58 1    
   115   58  135 1    
   116   58  136 1    
   117   59   60 am   BACKBONE|DICT|INTERRES
   118   59  137 1    
   119   60   61 2    
   120   60   62 1    
   121   62   63 1    
   122   62   64 1    
   123   62  138 1    
   124   63  139 1    
   125   63  140 1    
   126   63  141 1    
   127   64   65 am   BACKBONE|DICT|INTERRES
   128   64  142 1    
   129   65   66 2    
   130   65   67 1    
   131   67   68 1    
   132   67   69 1    
   133   67  143 1    
   134   68  144 1    
   135   68  145 1    
   136   68  146 1    
   137   69   70 am   BACKBONE|DICT|INTERRES
   138   69  147 1    
   139   70   71 2    
   140   70   72 1    
   141   72   73 1    
   142   72   74 1    
   143   72  148 1    
   144   73  149 1    
   145   73  150 1    
   146   73  151 1    
   147   74   75 am   BACKBONE|DICT|INTERRES
   148   74  152 1    
   149   75   76 2    
   150   75   77 1    
   151   77   78 1    
   152   77   79 1    
   153   77  153 1    
   154   78  154 1    
   155   78  155 1    
   156   78  156 1    
   157   79   80 am   BACKBONE|DICT|INTERRES
   158   79  157 1    
   159   80   81 2    
@<TRIPOS>SUBSTRUCTURE
     1 UNK         1 GROUP             0       ****    0 ROOT    
