@<TRIPOS>MOLECULE
3R207
157   159    1
SMALL
USER_CHARGES


@<TRIPOS>ATOM
      1 CA        -52.3925  -26.8667    2.5342 C.3       0 UNK        -0.1975 
      2 C         -52.3843  -26.3922    3.9798 C.2       0 UNK         0.4852 
      3 O         -53.3948  -26.5209    4.6720 O.2       0 UNK        -0.5216 
      4 N         -51.2547  -25.8452    4.4373 N.am      1 UNK        -0.4461 
      5 CA        -51.0398  -25.3353    5.7898 C.3       1 UNK         0.0864 
      6 C6        -50.8559  -26.4622    6.8441 C.3       14 UNK        -0.0898 
      7 S7        -49.4965  -27.6232    6.4612 S.3       14 UNK        -0.2598 
      8 C8        -50.4044  -29.1780    6.1822 C.3       14 UNK         0.0286 
      9 C9        -50.9410  -29.7654    7.4811 C.ar      14 UNK        -0.0844 
     10 C10       -50.0543  -30.2465    8.4478 C.ar      14 UNK        -0.0881 
     11 C11       -50.5258  -30.7759    9.6523 C.ar      14 UNK        -0.0643 
     12 C12       -51.9057  -30.8661    9.8654 C.ar      14 UNK        -0.0930 
     13 C13       -52.8044  -30.3960    8.9030 C.ar      14 UNK        -0.0827 
     14 C14       -52.3171  -29.8397    7.7158 C.ar      14 UNK        -0.1249 
     15 C15       -54.3017  -30.5040    9.1392 C.3       14 UNK         0.0141 
     16 S16       -54.9348  -29.1015   10.1118 S.3       14 UNK        -0.2313 
     17 C17       -56.7242  -29.4725   10.0793 C.3       14 UNK        -0.0915 
     18 CA        -57.3151  -29.9945   11.4165 C.3       13 UNK         0.0968 
     19 C         -56.6925  -31.3449   11.8761 C.2       13 UNK         0.5732 
     20 N         -56.9969  -32.4318   11.1792 N.am      13 UNK        -0.7310 
     21 O         -55.9233  -31.4170   12.8334 O.2       13 UNK        -0.5035 
     22 N         -57.3034  -28.9570   12.4561 N.am      13 UNK        -0.4233 
     23 C         -58.0511  -28.9881   13.5653 C.2       13 UNK         0.4989 
     24 O         -58.8783  -29.8700   13.8070 O.2       13 UNK        -0.4996 
     25 CA        -57.8323  -27.8429   14.5719 C.3       12 UNK         0.0216 
     26 CB        -58.8188  -27.8929   15.7547 C.3       12 UNK        -0.1964 
     27 N         -56.4651  -27.8464   15.0957 N.am      12 UNK        -0.4276 
     28 C         -55.4041  -27.3241   14.4710 C.2       12 UNK         0.5020 
     29 O         -55.4581  -26.7956   13.3571 O.2       12 UNK        -0.5489 
     30 CA        -54.0536  -27.4440   15.1958 C.3       11 UNK         0.0294 
     31 CB        -53.1999  -28.5473   14.5507 C.3       11 UNK        -0.2019 
     32 N         -53.3128  -26.1822   15.1697 N.am      11 UNK        -0.4493 
     33 C         -53.6966  -25.0520   15.7793 C.2       11 UNK         0.4932 
     34 O         -54.7113  -24.9561   16.4732 O.2       11 UNK        -0.5029 
     35 CA        -52.7625  -23.8409   15.5960 C.3       10 UNK         0.0280 
     36 CB        -53.2289  -22.5835   16.3601 C.3       10 UNK        -0.1976 
     37 N         -51.3718  -24.1717   15.9221 N.am      10 UNK        -0.4242 
     38 C         -50.8765  -24.5885   17.0981 C.2       10 UNK         0.5072 
     39 O         -51.5375  -24.6873   18.1328 O.2       10 UNK        -0.5224 
     40 CA        -49.3878  -24.9856   17.1316 C.3       9 UNK         0.0343 
     41 CB        -49.2514  -26.5172   17.1385 C.3       9 UNK        -0.2003 
     42 N         -48.6098  -24.4488   16.0125 N.am      9 UNK        -0.4272 
     43 C         -48.2705  -23.1618   15.8535 C.2       9 UNK         0.4988 
     44 O         -48.5106  -22.2799   16.6784 O.2       9 UNK        -0.5108 
     45 CA        -47.5781  -22.7946   14.5297 C.3       8 UNK         0.0248 
     46 CB        -46.0716  -23.0952   14.5941 C.3       8 UNK        -0.2001 
     47 N         -48.1743  -23.4858   13.3822 N.am      8 UNK        -0.4140 
     48 C         -49.4050  -23.2452   12.9060 C.2       8 UNK         0.5028 
     49 O         -50.1550  -22.3759   13.3487 O.2       8 UNK        -0.5428 
     50 CA        -49.9012  -24.1538   11.7714 C.3       7 UNK         0.0264 
     51 CB        -49.4256  -23.6351   10.4078 C.3       7 UNK        -0.1988 
     52 N         -49.4703  -25.5413   11.9497 N.am      7 UNK        -0.4454 
     53 C         -50.0210  -26.3777   12.8439 C.2       7 UNK         0.5027 
     54 O         -50.9591  -26.0629   13.5767 O.2       7 UNK        -0.5083 
     55 CA        -49.4269  -27.7974   12.9654 C.3       6 UNK         0.0844 
     56 C56       -50.1618  -28.7497   11.9947 C.3       14 UNK        -0.0967 
     57 S57       -49.8490  -30.5089   12.3676 S.3       14 UNK        -0.2604 
     58 C58       -49.5322  -31.2286   10.7184 C.3       14 UNK         0.0134 
     59 N         -47.9761  -27.8313   12.7606 N.am      6 UNK        -0.4116 
     60 C         -47.0672  -27.1151   13.4371 C.2       5 UNK         0.5034 
     61 O         -47.3365  -26.4058   14.4050 O.2       5 UNK        -0.5045 
     62 CA        -45.6241  -27.1324   12.9008 C.3       5 UNK         0.0224 
     63 CB        -44.7736  -28.1395   13.6902 C.3       5 UNK        -0.1978 
     64 N         -45.5189  -27.4240   11.4639 N.am      5 UNK        -0.4737 
     65 C         -46.0916  -26.7131   10.4816 C.2       4 UNK         0.5027 
     66 O         -46.7984  -25.7214   10.6740 O.2       4 UNK        -0.5211 
     67 CA        -45.9342  -27.2868    9.0683 C.3       4 UNK         0.0297 
     68 CB        -46.9661  -28.4023    8.8497 C.3       4 UNK        -0.1993 
     69 N         -46.1098  -26.2651    8.0344 N.am      4 UNK        -0.4486 
     70 C         -45.1337  -25.4506    7.6147 C.2       3 UNK         0.4961 
     71 O         -43.9938  -25.4507    8.0822 O.2       3 UNK        -0.5105 
     72 CA        -45.4591  -24.5056    6.4457 C.3       3 UNK         0.0299 
     73 CB        -45.2087  -25.2131    5.1040 C.3       3 UNK        -0.1972 
     74 N         -46.8262  -23.9830    6.4605 N.am      3 UNK        -0.4305 
     75 C         -47.2736  -23.0264    7.2816 C.2       2 UNK         0.5006 
     76 O         -46.5948  -22.5276    8.1794 O.2       2 UNK        -0.5106 
     77 CA        -48.7065  -22.5031    7.0539 C.3       2 UNK         0.0296 
     78 CB        -48.7227  -21.4142    5.9625 C.3       2 UNK        -0.2002 
     79 N         -49.7293  -23.5318    6.8002 N.am      2 UNK        -0.4032 
     80 C         -49.8478  -24.3627    5.7542 C.2       1 UNK         0.5000 
     81 O         -49.0555  -24.3996    4.8063 O.2       1 UNK        -0.5238 
     82 H82       -53.1618  -26.3399    1.9703 H         1 UNK         0.0889 
     83 H83       -52.6081  -27.9339    2.4916 H         1 UNK         0.0889 
     84 H84       -51.4343  -26.6948    2.0440 H         1 UNK         0.0889 
     85 H85       -50.4498  -25.7211    3.8343 H         1 UNK         0.3028 
     86 H86       -51.9175  -24.7453    6.0635 H         1 UNK         0.0864 
     87 H87       -50.6730  -26.0417    7.8342 H         1 UNK         0.0720 
     88 H88       -51.7888  -27.0185    6.9421 H         1 UNK         0.0720 
     89 H89       -49.7311  -29.8995    5.7175 H         1 UNK         0.0814 
     90 H90       -51.2088  -29.0048    5.4656 H         1 UNK         0.0814 
     91 H91       -48.9916  -30.1927    8.2617 H         1 UNK         0.1469 
     92 H92       -52.2796  -31.2834   10.7906 H         1 UNK         0.1381 
     93 H93       -53.0102  -29.4698    6.9722 H         1 UNK         0.1206 
     94 H94       -54.8249  -30.5483    8.1827 H         1 UNK         0.0813 
     95 H95       -54.5278  -31.4373    9.6569 H         1 UNK         0.0813 
     96 H96       -57.2426  -28.5575    9.7886 H         1 UNK         0.0638 
     97 H97       -56.9353  -30.1825    9.2781 H         1 UNK         0.0638 
     98 H98       -58.3683  -30.2075   11.2219 H         1 UNK         0.0568 
     99 H99       -56.5995  -33.3155   11.4563 H         1 UNK         0.3450 
    100 H100      -57.6257  -32.3908   10.3926 H         1 UNK         0.3450 
    101 H101      -56.5996  -28.2315   12.3698 H         1 UNK         0.2987 
    102 H102      -58.0073  -26.9060   14.0382 H         1 UNK         0.0766 
    103 H103      -58.6800  -27.0425   16.4227 H         1 UNK         0.0798 
    104 H104      -58.7026  -28.8043   16.3429 H         1 UNK         0.0798 
    105 H105      -59.8512  -27.8604   15.4039 H         1 UNK         0.0798 
    106 H106      -56.3292  -28.3003   15.9880 H         1 UNK         0.3198 
    107 H107      -54.2266  -27.7046   16.2422 H         1 UNK         0.0843 
    108 H108      -53.0280  -28.3455   13.4933 H         1 UNK         0.0831 
    109 H109      -53.6970  -29.5162   14.6170 H         1 UNK         0.0831 
    110 H110      -52.2296  -28.6432   15.0384 H         1 UNK         0.0831 
    111 H111      -52.4732  -26.1562   14.5928 H         1 UNK         0.3133 
    112 H112      -52.7750  -23.6014   14.5315 H         1 UNK         0.0566 
    113 H113      -52.5580  -21.7428   16.1832 H         1 UNK         0.0814 
    114 H114      -54.2243  -22.2785   16.0354 H         1 UNK         0.0814 
    115 H115      -53.2772  -22.7541   17.4359 H         1 UNK         0.0814 
    116 H116      -50.7376  -24.1655   15.1349 H         1 UNK         0.3091 
    117 H117      -48.9632  -24.5969   18.0595 H         1 UNK         0.0702 
    118 H118      -49.7785  -26.9541   17.9877 H         1 UNK         0.0785 
    119 H119      -49.6669  -26.9607   16.2327 H         1 UNK         0.0785 
    120 H120      -48.2075  -26.8230   17.2120 H         1 UNK         0.0785 
    121 H121      -48.2877  -25.1233   15.3210 H         1 UNK         0.2998 
    122 H122      -47.7028  -21.7205   14.3759 H         1 UNK         0.0697 
    123 H123      -45.8728  -24.1550   14.7549 H         1 UNK         0.0825 
    124 H124      -45.6027  -22.5500   15.4144 H         1 UNK         0.0825 
    125 H125      -45.5667  -22.7940   13.6761 H         1 UNK         0.0825 
    126 H126      -47.6349  -24.2300   12.9631 H         1 UNK         0.3029 
    127 H127      -50.9936  -24.1295   11.7777 H         1 UNK         0.0897 
    128 H128      -49.7603  -24.2870    9.6021 H         1 UNK         0.0792 
    129 H129      -48.3383  -23.5667   10.3533 H         1 UNK         0.0792 
    130 H130      -49.8246  -22.6385   10.2157 H         1 UNK         0.0792 
    131 H131      -48.6579  -25.8351   11.4147 H         1 UNK         0.3086 
    132 H132      -49.6158  -28.1302   13.9880 H         1 UNK         0.0583 
    133 H133      -51.2427  -28.6062   12.0401 H         1 UNK         0.1020 
    134 H134      -49.8791  -28.5220   10.9653 H         1 UNK         0.1020 
    135 H135      -48.5123  -30.9739   10.4267 H         1 UNK         0.0694 
    136 H136      -49.5669  -32.3159   10.7959 H         1 UNK         0.0694 
    137 H137      -47.6487  -28.4049   11.9989 H         1 UNK         0.2989 
    138 H138      -45.2132  -26.1335   13.0623 H         1 UNK         0.1055 
    139 H139      -44.8149  -27.9307   14.7604 H         1 UNK         0.0806 
    140 H140      -43.7251  -28.0926   13.3950 H         1 UNK         0.0806 
    141 H141      -45.1195  -29.1638   13.5450 H         1 UNK         0.0806 
    142 H142      -44.9700  -28.2345   11.2123 H         1 UNK         0.3061 
    143 H143      -44.9351  -27.7183    8.9736 H         1 UNK         0.0734 
    144 H144      -46.9033  -28.8080    7.8397 H         1 UNK         0.0832 
    145 H145      -46.8026  -29.2317    9.5385 H         1 UNK         0.0832 
    146 H146      -47.9837  -28.0424    9.0075 H         1 UNK         0.0832 
    147 H147      -47.0298  -26.1728    7.6294 H         1 UNK         0.3156 
    148 H148      -44.7737  -23.6576    6.5097 H         1 UNK         0.0589 
    149 H149      -45.8859  -26.0561    4.9595 H         1 UNK         0.0808 
    150 H150      -45.3406  -24.5300    4.2647 H         1 UNK         0.0808 
    151 H151      -44.1898  -25.5992    5.0492 H         1 UNK         0.0808 
    152 H152      -47.4626  -24.3037    5.7332 H         1 UNK         0.3098 
    153 H153      -49.0053  -22.0195    7.9846 H         1 UNK         0.0720 
    154 H154      -49.7141  -20.9739    5.8565 H         1 UNK         0.0791 
    155 H155      -48.4232  -21.8039    4.9891 H         1 UNK         0.0791 
    156 H156      -48.0345  -20.6050    6.2109 H         1 UNK         0.0791 
    157 H157      -50.4321  -23.6032    7.5223 H         1 UNK         0.3028 
@<TRIPOS>BOND
     1    1    2 1    
     2    1   82 1    
     3    1   83 1    
     4    1   84 1    
     5    2    3 2    
     6    2    4 am   BACKBONE|DICT|INTERRES
     7    4    5 1    
     8    4   85 1    
     9    5    6 1    
    10    5   80 1    
    11    5   86 1    
    12    6    7 1    
    13    6   87 1    
    14    6   88 1    
    15    7    8 1    
    16    8    9 1    
    17    8   89 1    
    18    8   90 1    
    19    9   10 ar   
    20    9   14 ar   
    21   10   11 ar   
    22   10   91 1    
    23   11   12 ar   
    24   11   58 1    
    25   12   13 ar   
    26   12   92 1    
    27   13   14 ar   
    28   13   15 1    
    29   14   93 1    
    30   15   16 1    
    31   15   94 1    
    32   15   95 1    
    33   16   17 1    
    34   17   18 1    
    35   17   96 1    
    36   17   97 1    
    37   18   19 1    
    38   18   22 1    
    39   18   98 1    
    40   19   20 am   BACKBONE|DICT|INTERRES
    41   19   21 2    
    42   20   99 1    
    43   20  100 1    
    44   22   23 am   BACKBONE|DICT|INTERRES
    45   22  101 1    
    46   23   24 2    
    47   23   25 1    
    48   25   26 1    
    49   25   27 1    
    50   25  102 1    
    51   26  103 1    
    52   26  104 1    
    53   26  105 1    
    54   27   28 am   BACKBONE|DICT|INTERRES
    55   27  106 1    
    56   28   29 2    
    57   28   30 1    
    58   30   31 1    
    59   30   32 1    
    60   30  107 1    
    61   31  108 1    
    62   31  109 1    
    63   31  110 1    
    64   32   33 am   BACKBONE|DICT|INTERRES
    65   32  111 1    
    66   33   34 2    
    67   33   35 1    
    68   35   36 1    
    69   35   37 1    
    70   35  112 1    
    71   36  113 1    
    72   36  114 1    
    73   36  115 1    
    74   37   38 am   BACKBONE|DICT|INTERRES
    75   37  116 1    
    76   38   39 2    
    77   38   40 1    
    78   40   41 1    
    79   40   42 1    
    80   40  117 1    
    81   41  118 1    
    82   41  119 1    
    83   41  120 1    
    84   42   43 am   BACKBONE|DICT|INTERRES
    85   42  121 1    
    86   43   44 2    
    87   43   45 1    
    88   45   46 1    
    89   45   47 1    
    90   45  122 1    
    91   46  123 1    
    92   46  124 1    
    93   46  125 1    
    94   47   48 am   BACKBONE|DICT|INTERRES
    95   47  126 1    
    96   48   49 2    
    97   48   50 1    
    98   50   51 1    
    99   50   52 1    
   100   50  127 1    
   101   51  128 1    
   102   51  129 1    
   103   51  130 1    
   104   52   53 am   BACKBONE|DICT|INTERRES
   105   52  131 1    
   106   53   54 2    
   107   53   55 1    
   108   55   56 1    
   109   55   59 1    
   110   55  132 1    
   111   56   57 1    
   112   56  133 1    
   113   56  134 1    
   114   57   58 1    
   115   58  135 1    
   116   58  136 1    
   117   59   60 am   BACKBONE|DICT|INTERRES
   118   59  137 1    
   119   60   61 2    
   120   60   62 1    
   121   62   63 1    
   122   62   64 1    
   123   62  138 1    
   124   63  139 1    
   125   63  140 1    
   126   63  141 1    
   127   64   65 am   BACKBONE|DICT|INTERRES
   128   64  142 1    
   129   65   66 2    
   130   65   67 1    
   131   67   68 1    
   132   67   69 1    
   133   67  143 1    
   134   68  144 1    
   135   68  145 1    
   136   68  146 1    
   137   69   70 am   BACKBONE|DICT|INTERRES
   138   69  147 1    
   139   70   71 2    
   140   70   72 1    
   141   72   73 1    
   142   72   74 1    
   143   72  148 1    
   144   73  149 1    
   145   73  150 1    
   146   73  151 1    
   147   74   75 am   BACKBONE|DICT|INTERRES
   148   74  152 1    
   149   75   76 2    
   150   75   77 1    
   151   77   78 1    
   152   77   79 1    
   153   77  153 1    
   154   78  154 1    
   155   78  155 1    
   156   78  156 1    
   157   79   80 am   BACKBONE|DICT|INTERRES
   158   79  157 1    
   159   80   81 2    
@<TRIPOS>SUBSTRUCTURE
     1 UNK         1 GROUP             0       ****    0 ROOT    
