@<TRIPOS>MOLECULE
3R207
157   159    1
SMALL
USER_CHARGES


@<TRIPOS>ATOM
      1 CA        -48.7208  -30.5836    8.6454 C.3       0 UNK        -0.1975 
      2 C         -48.8990  -30.3630    7.1524 C.2       0 UNK         0.4852 
      3 O         -48.1082  -30.8735    6.3592 O.2       0 UNK        -0.5216 
      4 N         -49.9132  -29.5786    6.7622 N.am      1 UNK        -0.4461 
      5 CA        -50.2382  -29.2491    5.3638 C.3       1 UNK         0.0864 
      6 C6        -51.7337  -28.8780    5.1867 C.3       14 UNK        -0.0898 
      7 S7        -52.8555  -30.1908    5.7795 S.3       14 UNK        -0.2598 
      8 C8        -53.8343  -29.3182    7.0436 C.3       14 UNK         0.0286 
      9 C9        -52.9970  -28.8978    8.2434 C.ar      14 UNK        -0.0844 
     10 C10       -52.6702  -27.5526    8.4407 C.ar      14 UNK        -0.0881 
     11 C11       -51.9477  -27.1588    9.5697 C.ar      14 UNK        -0.0643 
     12 C12       -51.5387  -28.1240   10.4965 C.ar      14 UNK        -0.0930 
     13 C13       -51.8571  -29.4724   10.3126 C.ar      14 UNK        -0.0827 
     14 C14       -52.5809  -29.8518    9.1768 C.ar      14 UNK        -0.1249 
     15 C15       -51.3718  -30.5123   11.3184 C.3       14 UNK         0.0141 
     16 S16       -52.6570  -31.6984   11.8307 S.3       14 UNK        -0.2313 
     17 C17       -53.5377  -30.8130   13.1588 C.3       14 UNK        -0.0915 
     18 CA        -54.9824  -30.4266   12.7348 C.3       13 UNK         0.0968 
     19 C         -55.9800  -30.4530   13.9318 C.2       13 UNK         0.5732 
     20 N         -56.7503  -29.4068   14.2073 N.am      13 UNK        -0.7310 
     21 O         -56.0759  -31.4640   14.6236 O.2       13 UNK        -0.5035 
     22 N         -54.9903  -29.1644   11.9845 N.am      13 UNK        -0.4233 
     23 C         -55.8600  -28.8576   11.0141 C.2       13 UNK         0.4989 
     24 O         -56.6802  -29.6552   10.5551 O.2       13 UNK        -0.4996 
     25 CA        -55.8214  -27.4083   10.4827 C.3       12 UNK         0.0216 
     26 CB        -57.1245  -26.9967    9.7651 C.3       12 UNK        -0.1964 
     27 N         -55.4592  -26.4191   11.5067 N.am      12 UNK        -0.4276 
     28 C         -56.0961  -26.1872   12.6630 C.2       12 UNK         0.5020 
     29 O         -57.1187  -26.7733   13.0241 O.2       12 UNK        -0.5489 
     30 CA        -55.4453  -25.1621   13.6062 C.3       11 UNK         0.0294 
     31 CB        -56.4518  -24.0731   14.0142 C.3       11 UNK        -0.2019 
     32 N         -54.8927  -25.7871   14.8116 N.am      11 UNK        -0.4493 
     33 C         -53.9927  -26.7800   14.8415 C.2       11 UNK         0.4932 
     34 O         -53.5445  -27.3463   13.8413 O.2       11 UNK        -0.5029 
     35 CA        -53.5325  -27.2307   16.2394 C.3       10 UNK         0.0280 
     36 CB        -54.4213  -28.3708   16.7604 C.3       10 UNK        -0.1976 
     37 N         -52.1398  -27.6805   16.2242 N.am      10 UNK        -0.4242 
     38 C         -51.0881  -26.8848   15.9923 C.2       10 UNK         0.5072 
     39 O         -51.1624  -25.6574   15.8962 O.2       10 UNK        -0.5224 
     40 CA        -49.7420  -27.6031   15.7996 C.3       9 UNK         0.0343 
     41 CB        -49.7251  -28.3493   14.4529 C.3       9 UNK        -0.2003 
     42 N         -48.6138  -26.6723   15.8310 N.am      9 UNK        -0.4272 
     43 C         -48.0865  -26.1354   16.9391 C.2       9 UNK         0.4988 
     44 O         -48.4708  -26.4032   18.0785 O.2       9 UNK        -0.5108 
     45 CA        -46.9263  -25.1452   16.7539 C.3       8 UNK         0.0248 
     46 CB        -45.6196  -25.8962   16.4461 C.3       8 UNK        -0.2001 
     47 N         -47.1970  -24.1856   15.6803 N.am      8 UNK        -0.4140 
     48 C         -47.2533  -22.8530   15.8311 C.2       8 UNK         0.5028 
     49 O         -47.0712  -22.2762   16.9044 O.2       8 UNK        -0.5428 
     50 CA        -47.5513  -22.0030   14.5778 C.3       7 UNK         0.0264 
     51 CB        -46.2486  -21.4284   13.9990 C.3       7 UNK        -0.1988 
     52 N         -48.2541  -22.7559   13.5363 N.am      7 UNK        -0.4454 
     53 C         -49.5407  -23.1302   13.6288 C.2       7 UNK         0.5027 
     54 O         -50.3001  -22.6853   14.4901 O.2       7 UNK        -0.5083 
     55 CA        -50.0708  -24.2016   12.6459 C.3       6 UNK         0.0844 
     56 C56       -51.3019  -23.7078   11.8394 C.3       14 UNK        -0.0967 
     57 S57       -52.3758  -25.0921   11.3356 S.3       14 UNK        -0.2604 
     58 C58       -51.6104  -25.6934    9.7989 C.3       14 UNK         0.0134 
     59 N         -49.0344  -24.7476   11.7624 N.am      6 UNK        -0.4116 
     60 C         -48.0246  -25.5467   12.1346 C.2       5 UNK         0.5034 
     61 O         -47.8170  -25.8866   13.2985 O.2       5 UNK        -0.5045 
     62 CA        -47.0418  -25.9906   11.0372 C.3       5 UNK         0.0224 
     63 CB        -47.5034  -27.3234   10.4228 C.3       5 UNK        -0.1978 
     64 N         -46.8626  -25.0016    9.9686 N.am      5 UNK        -0.4737 
     65 C         -46.4745  -23.7279   10.1365 C.2       4 UNK         0.5027 
     66 O         -46.1665  -23.2482   11.2269 O.2       4 UNK        -0.5211 
     67 CA        -46.4852  -22.8239    8.8901 C.3       4 UNK         0.0297 
     68 CB        -45.0743  -22.7267    8.2895 C.3       4 UNK        -0.1993 
     69 N         -47.4233  -23.2552    7.8470 N.am      4 UNK        -0.4486 
     70 C         -48.7492  -23.3902    7.9819 C.2       3 UNK         0.4961 
     71 O         -49.3529  -23.1623    9.0293 O.2       3 UNK        -0.5105 
     72 CA        -49.5266  -23.9380    6.7722 C.3       3 UNK         0.0299 
     73 CB        -49.7796  -22.8412    5.7199 C.3       3 UNK        -0.1972 
     74 N         -48.9254  -25.1458    6.1845 N.am      3 UNK        -0.4305 
     75 C         -47.7677  -25.2758    5.5162 C.2       2 UNK         0.5006 
     76 O         -47.0226  -24.3301    5.2555 O.2       2 UNK        -0.5106 
     77 CA        -47.3224  -26.6984    5.1293 C.3       2 UNK         0.0296 
     78 CB        -45.9722  -27.0331    5.7889 C.3       2 UNK        -0.2002 
     79 N         -48.2902  -27.7305    5.5108 N.am      2 UNK        -0.4032 
     80 C         -49.3191  -28.1553    4.7637 C.2       1 UNK         0.5000 
     81 O         -49.5659  -27.7034    3.6440 O.2       1 UNK        -0.5238 
     82 H82       -47.6629  -30.5730    8.9069 H         1 UNK         0.0889 
     83 H83       -49.1337  -31.5503    8.9316 H         1 UNK         0.0889 
     84 H84       -49.2144  -29.8054    9.2258 H         1 UNK         0.0889 
     85 H85       -50.5635  -29.2257    7.4524 H         1 UNK         0.3028 
     86 H86       -50.0583  -30.1439    4.7635 H         1 UNK         0.0864 
     87 H87       -51.9590  -27.9364    5.6890 H         1 UNK         0.0720 
     88 H88       -51.9648  -28.7159    4.1321 H         1 UNK         0.0720 
     89 H89       -54.6357  -29.9763    7.3830 H         1 UNK         0.0814 
     90 H90       -54.3251  -28.4564    6.5887 H         1 UNK         0.0814 
     91 H91       -52.9978  -26.8089    7.7271 H         1 UNK         0.1469 
     92 H92       -50.9796  -27.8157   11.3692 H         1 UNK         0.1381 
     93 H93       -52.8289  -30.8928    9.0205 H         1 UNK         0.1206 
     94 H94       -50.9467  -30.0369   12.2026 H         1 UNK         0.0813 
     95 H95       -50.5604  -31.0786   10.8630 H         1 UNK         0.0813 
     96 H96       -52.9712  -29.9371   13.4776 H         1 UNK         0.0638 
     97 H97       -53.5378  -31.4888   14.0157 H         1 UNK         0.0638 
     98 H98       -55.3514  -31.2139   12.0749 H         1 UNK         0.0568 
     99 H99       -56.7329  -28.5615   13.6450 H         1 UNK         0.3450 
    100 H100      -57.3931  -29.4714   14.9794 H         1 UNK         0.3450 
    101 H101      -54.3781  -28.4406   12.3476 H         1 UNK         0.2987 
    102 H102      -55.0233  -27.3831    9.7438 H         1 UNK         0.0766 
    103 H103      -57.3267  -27.6495    8.9151 H         1 UNK         0.0798 
    104 H104      -57.0611  -25.9787    9.3810 H         1 UNK         0.0798 
    105 H105      -57.9867  -27.0519   10.4305 H         1 UNK         0.0798 
    106 H106      -54.5805  -25.9380   11.3503 H         1 UNK         0.3198 
    107 H107      -54.6218  -24.6714   13.0864 H         1 UNK         0.0843 
    108 H108      -57.2822  -24.4850   14.5894 H         1 UNK         0.0831 
    109 H109      -56.8761  -23.5867   13.1347 H         1 UNK         0.0831 
    110 H110      -55.9780  -23.2965   14.6147 H         1 UNK         0.0831 
    111 H111      -55.2229  -25.4181   15.6914 H         1 UNK         0.3133 
    112 H112      -53.6094  -26.3847   16.9257 H         1 UNK         0.0566 
    113 H113      -54.3341  -29.2641   16.1414 H         1 UNK         0.0814 
    114 H114      -55.4726  -28.0797   16.7647 H         1 UNK         0.0814 
    115 H115      -54.1579  -28.6444   17.7822 H         1 UNK         0.0814 
    116 H116      -51.9912  -28.6780   16.2578 H         1 UNK         0.3091 
    117 H117      -49.6170  -28.3288   16.6061 H         1 UNK         0.0702 
    118 H118      -48.7609  -28.8245   14.2713 H         1 UNK         0.0785 
    119 H119      -49.9295  -27.6761   13.6195 H         1 UNK         0.0785 
    120 H120      -50.4814  -29.1343   14.4284 H         1 UNK         0.0785 
    121 H121      -48.2556  -26.3890   14.9215 H         1 UNK         0.2998 
    122 H122      -46.7963  -24.6242   17.7048 H         1 UNK         0.0697 
    123 H123      -44.7736  -25.2106   16.3961 H         1 UNK         0.0825 
    124 H124      -45.6726  -26.4309   15.4967 H         1 UNK         0.0825 
    125 H125      -45.3972  -26.6290   17.2231 H         1 UNK         0.0825 
    126 H126      -47.3817  -24.5785   14.7639 H         1 UNK         0.3029 
    127 H127      -48.1831  -21.1676   14.8879 H         1 UNK         0.0897 
    128 H128      -45.5576  -22.2174   13.6995 H         1 UNK         0.0792 
    129 H129      -45.7352  -20.8083   14.7351 H         1 UNK         0.0792 
    130 H130      -46.4419  -20.8038   13.1266 H         1 UNK         0.0792 
    131 H131      -47.6857  -23.1116   12.7753 H         1 UNK         0.3086 
    132 H132      -50.4021  -25.0205   13.2885 H         1 UNK         0.0583 
    133 H133      -51.9286  -23.0518   12.4469 H         1 UNK         0.1020 
    134 H134      -51.0112  -23.1130   10.9734 H         1 UNK         0.1020 
    135 H135      -51.9537  -25.0719    8.9709 H         1 UNK         0.0694 
    136 H136      -50.5283  -25.5932    9.8318 H         1 UNK         0.0694 
    137 H137      -49.0778  -24.4441   10.7971 H         1 UNK         0.2989 
    138 H138      -46.0711  -26.1425   11.5142 H         1 UNK         0.1055 
    139 H139      -46.7701  -27.7102    9.7149 H         1 UNK         0.0806 
    140 H140      -48.4556  -27.2225    9.9004 H         1 UNK         0.0806 
    141 H141      -47.6358  -28.0836   11.1944 H         1 UNK         0.0806 
    142 H142      -47.0861  -25.2985    9.0308 H         1 UNK         0.3061 
    143 H143      -46.7920  -21.8279    9.2158 H         1 UNK         0.0734 
    144 H144      -44.7274  -23.6910    7.9158 H         1 UNK         0.0832 
    145 H145      -45.0422  -22.0155    7.4639 H         1 UNK         0.0832 
    146 H146      -44.3544  -22.3871    9.0358 H         1 UNK         0.0832 
    147 H147      -47.0327  -23.4864    6.9359 H         1 UNK         0.3156 
    148 H148      -50.5023  -24.2524    7.1451 H         1 UNK         0.0589 
    149 H149      -50.3738  -23.2203    4.8884 H         1 UNK         0.0808 
    150 H150      -48.8530  -22.4367    5.3121 H         1 UNK         0.0808 
    151 H151      -50.3293  -22.0064    6.1567 H         1 UNK         0.0808 
    152 H152      -49.4404  -25.9970    6.3537 H         1 UNK         0.3098 
    153 H153      -47.1864  -26.7126    4.0458 H         1 UNK         0.0720 
    154 H154      -45.2002  -26.3232    5.4883 H         1 UNK         0.0791 
    155 H155      -45.6246  -28.0247    5.4977 H         1 UNK         0.0791 
    156 H156      -46.0335  -27.0058    6.8777 H         1 UNK         0.0791 
    157 H157      -48.1459  -28.1819    6.4022 H         1 UNK         0.3028 
@<TRIPOS>BOND
     1    1    2 1    
     2    1   82 1    
     3    1   83 1    
     4    1   84 1    
     5    2    3 2    
     6    2    4 am   BACKBONE|DICT|INTERRES
     7    4    5 1    
     8    4   85 1    
     9    5    6 1    
    10    5   80 1    
    11    5   86 1    
    12    6    7 1    
    13    6   87 1    
    14    6   88 1    
    15    7    8 1    
    16    8    9 1    
    17    8   89 1    
    18    8   90 1    
    19    9   10 ar   
    20    9   14 ar   
    21   10   11 ar   
    22   10   91 1    
    23   11   12 ar   
    24   11   58 1    
    25   12   13 ar   
    26   12   92 1    
    27   13   14 ar   
    28   13   15 1    
    29   14   93 1    
    30   15   16 1    
    31   15   94 1    
    32   15   95 1    
    33   16   17 1    
    34   17   18 1    
    35   17   96 1    
    36   17   97 1    
    37   18   19 1    
    38   18   22 1    
    39   18   98 1    
    40   19   20 am   BACKBONE|DICT|INTERRES
    41   19   21 2    
    42   20   99 1    
    43   20  100 1    
    44   22   23 am   BACKBONE|DICT|INTERRES
    45   22  101 1    
    46   23   24 2    
    47   23   25 1    
    48   25   26 1    
    49   25   27 1    
    50   25  102 1    
    51   26  103 1    
    52   26  104 1    
    53   26  105 1    
    54   27   28 am   BACKBONE|DICT|INTERRES
    55   27  106 1    
    56   28   29 2    
    57   28   30 1    
    58   30   31 1    
    59   30   32 1    
    60   30  107 1    
    61   31  108 1    
    62   31  109 1    
    63   31  110 1    
    64   32   33 am   BACKBONE|DICT|INTERRES
    65   32  111 1    
    66   33   34 2    
    67   33   35 1    
    68   35   36 1    
    69   35   37 1    
    70   35  112 1    
    71   36  113 1    
    72   36  114 1    
    73   36  115 1    
    74   37   38 am   BACKBONE|DICT|INTERRES
    75   37  116 1    
    76   38   39 2    
    77   38   40 1    
    78   40   41 1    
    79   40   42 1    
    80   40  117 1    
    81   41  118 1    
    82   41  119 1    
    83   41  120 1    
    84   42   43 am   BACKBONE|DICT|INTERRES
    85   42  121 1    
    86   43   44 2    
    87   43   45 1    
    88   45   46 1    
    89   45   47 1    
    90   45  122 1    
    91   46  123 1    
    92   46  124 1    
    93   46  125 1    
    94   47   48 am   BACKBONE|DICT|INTERRES
    95   47  126 1    
    96   48   49 2    
    97   48   50 1    
    98   50   51 1    
    99   50   52 1    
   100   50  127 1    
   101   51  128 1    
   102   51  129 1    
   103   51  130 1    
   104   52   53 am   BACKBONE|DICT|INTERRES
   105   52  131 1    
   106   53   54 2    
   107   53   55 1    
   108   55   56 1    
   109   55   59 1    
   110   55  132 1    
   111   56   57 1    
   112   56  133 1    
   113   56  134 1    
   114   57   58 1    
   115   58  135 1    
   116   58  136 1    
   117   59   60 am   BACKBONE|DICT|INTERRES
   118   59  137 1    
   119   60   61 2    
   120   60   62 1    
   121   62   63 1    
   122   62   64 1    
   123   62  138 1    
   124   63  139 1    
   125   63  140 1    
   126   63  141 1    
   127   64   65 am   BACKBONE|DICT|INTERRES
   128   64  142 1    
   129   65   66 2    
   130   65   67 1    
   131   67   68 1    
   132   67   69 1    
   133   67  143 1    
   134   68  144 1    
   135   68  145 1    
   136   68  146 1    
   137   69   70 am   BACKBONE|DICT|INTERRES
   138   69  147 1    
   139   70   71 2    
   140   70   72 1    
   141   72   73 1    
   142   72   74 1    
   143   72  148 1    
   144   73  149 1    
   145   73  150 1    
   146   73  151 1    
   147   74   75 am   BACKBONE|DICT|INTERRES
   148   74  152 1    
   149   75   76 2    
   150   75   77 1    
   151   77   78 1    
   152   77   79 1    
   153   77  153 1    
   154   78  154 1    
   155   78  155 1    
   156   78  156 1    
   157   79   80 am   BACKBONE|DICT|INTERRES
   158   79  157 1    
   159   80   81 2    
@<TRIPOS>SUBSTRUCTURE
     1 UNK         1 GROUP             0       ****    0 ROOT    
