@<TRIPOS>MOLECULE
3R207
157   159    1
SMALL
USER_CHARGES


@<TRIPOS>ATOM
      1 CA        -50.4661  -30.2662    8.3447 C.3       0 UNK        -0.1975 
      2 C         -50.1068  -29.3778    7.1632 C.2       0 UNK         0.4852 
      3 O         -50.0944  -28.1586    7.3047 O.2       0 UNK        -0.5216 
      4 N         -49.7989  -29.9833    6.0079 N.am      1 UNK        -0.4461 
      5 CA        -49.5253  -29.3690    4.6959 C.3       1 UNK         0.0864 
      6 C6        -50.7231  -28.5749    4.1092 C.3       14 UNK        -0.0898 
      7 S7        -52.1993  -29.6247    3.8759 S.3       14 UNK        -0.2598 
      8 C8        -53.5597  -28.4679    4.2397 C.3       14 UNK         0.0286 
      9 C9        -53.6267  -28.1024    5.7157 C.ar      14 UNK        -0.0844 
     10 C10       -53.2355  -26.8322    6.1463 C.ar      14 UNK        -0.0881 
     11 C11       -53.2703  -26.5013    7.5032 C.ar      14 UNK        -0.0643 
     12 C12       -53.7199  -27.4473    8.4300 C.ar      14 UNK        -0.0930 
     13 C13       -54.1474  -28.7156    8.0122 C.ar      14 UNK        -0.0827 
     14 C14       -54.0882  -29.0330    6.6511 C.ar      14 UNK        -0.1249 
     15 C15       -54.6619  -29.7775    8.9872 C.3       14 UNK         0.0141 
     16 S16       -55.4017  -29.1272   10.5259 S.3       14 UNK        -0.2313 
     17 C17       -53.9407  -29.0133   11.6148 C.3       14 UNK        -0.0915 
     18 CA        -53.9491  -30.1089   12.7135 C.3       13 UNK         0.0968 
     19 C         -52.5914  -30.1645   13.4758 C.2       13 UNK         0.5732 
     20 N         -52.5362  -29.9148   14.7800 N.am      13 UNK        -0.7310 
     21 O         -51.5645  -30.4547   12.8677 O.2       13 UNK        -0.5035 
     22 N         -55.1319  -29.9943   13.5817 N.am      13 UNK        -0.4233 
     23 C         -55.6081  -30.9811   14.3499 C.2       13 UNK         0.4989 
     24 O         -55.1563  -32.1281   14.3395 O.2       13 UNK        -0.4996 
     25 CA        -56.7852  -30.6290   15.2857 C.3       12 UNK         0.0216 
     26 CB        -56.8925  -31.6044   16.4779 C.3       12 UNK        -0.1964 
     27 N         -56.8002  -29.2405   15.7775 N.am      12 UNK        -0.4276 
     28 C         -55.8215  -28.6012   16.4350 C.2       12 UNK         0.5020 
     29 O         -54.6819  -29.0510   16.5964 O.2       12 UNK        -0.5489 
     30 CA        -56.1841  -27.2327   17.0276 C.3       11 UNK         0.0294 
     31 CB        -57.1016  -27.3998   18.2566 C.3       11 UNK        -0.2019 
     32 N         -54.9416  -26.5678   17.4047 N.am      11 UNK        -0.4493 
     33 C         -54.7827  -25.2883   17.7637 C.2       11 UNK         0.4932 
     34 O         -55.7032  -24.4743   17.8423 O.2       11 UNK        -0.5029 
     35 CA        -53.3444  -24.8375   18.0779 C.3       10 UNK         0.0280 
     36 CB        -53.0094  -25.0910   19.5566 C.3       10 UNK        -0.1976 
     37 N         -52.3590  -25.5129   17.2293 N.am      10 UNK        -0.4242 
     38 C         -52.1744  -25.2394   15.9313 C.2       10 UNK         0.5072 
     39 O         -52.7203  -24.3042   15.3423 O.2       10 UNK        -0.5224 
     40 CA        -51.2527  -26.1951   15.1556 C.3       9 UNK         0.0343 
     41 CB        -51.9076  -26.6193   13.8303 C.3       9 UNK        -0.2003 
     42 N         -49.9387  -25.6154   14.8792 N.am      9 UNK        -0.4272 
     43 C         -49.0301  -25.2638   15.7993 C.2       9 UNK         0.4988 
     44 O         -49.1974  -25.3924   17.0129 O.2       9 UNK        -0.5108 
     45 CA        -47.6910  -24.7037   15.2875 C.3       8 UNK         0.0248 
     46 CB        -46.6994  -25.8485   15.0256 C.3       8 UNK        -0.2001 
     47 N         -47.8180  -23.8809   14.0812 N.am      8 UNK        -0.4140 
     48 C         -48.3760  -22.6617   14.0514 C.2       8 UNK         0.5028 
     49 O         -48.8248  -22.0890   15.0454 O.2       8 UNK        -0.5428 
     50 CA        -48.4420  -21.9538   12.6862 C.3       7 UNK         0.0264 
     51 CB        -47.1010  -21.2791   12.3552 C.3       7 UNK        -0.1988 
     52 N         -48.8238  -22.8527   11.5951 N.am      7 UNK        -0.4454 
     53 C         -50.0373  -23.4096   11.4638 C.2       7 UNK         0.5027 
     54 O         -50.9861  -23.1598   12.2069 O.2       7 UNK        -0.5083 
     55 CA        -50.2262  -24.4315   10.3236 C.3       6 UNK         0.0844 
     56 C56       -50.6247  -23.7069    9.0144 C.3       14 UNK        -0.0967 
     57 S57       -51.0429  -24.8742    7.6826 S.3       14 UNK        -0.2604 
     58 C58       -52.8228  -25.1223    7.9672 C.3       14 UNK         0.0134 
     59 N         -49.0631  -25.3148   10.1669 N.am      6 UNK        -0.4116 
     60 C         -48.5986  -26.1375   11.1194 C.2       5 UNK         0.5034 
     61 O         -49.1268  -26.2803   12.2198 O.2       5 UNK        -0.5045 
     62 CA        -47.2784  -26.8677   10.8375 C.3       5 UNK         0.0224 
     63 CB        -47.5004  -28.1318    9.9922 C.3       5 UNK        -0.1978 
     64 N         -46.3046  -25.9833   10.1963 N.am      5 UNK        -0.4737 
     65 C         -45.6901  -24.9712   10.8257 C.2       4 UNK         0.5027 
     66 O         -45.8427  -24.7193   12.0203 O.2       4 UNK        -0.5211 
     67 CA        -44.7863  -24.0634    9.9746 C.3       4 UNK         0.0297 
     68 CB        -43.3707  -24.6527    9.8757 C.3       4 UNK        -0.1993 
     69 N         -45.3187  -23.8339    8.6298 N.am      4 UNK        -0.4486 
     70 C         -46.4529  -23.1691    8.3670 C.2       3 UNK         0.4961 
     71 O         -47.1447  -22.6263    9.2282 O.2       3 UNK        -0.5105 
     72 CA        -46.9212  -23.1539    6.9008 C.3       3 UNK         0.0299 
     73 CB        -46.2806  -21.9808    6.1426 C.3       3 UNK        -0.1972 
     74 N         -46.6647  -24.4089    6.1808 N.am      3 UNK        -0.4305 
     75 C         -47.1458  -25.6049    6.5472 C.2       2 UNK         0.5006 
     76 O         -47.8023  -25.7912    7.5713 O.2       2 UNK        -0.5106 
     77 CA        -46.7855  -26.8018    5.6655 C.3       2 UNK         0.0296 
     78 CB        -45.5521  -27.5355    6.2225 C.3       2 UNK        -0.2002 
     79 N         -47.9289  -27.7095    5.6188 N.am      2 UNK        -0.4032 
     80 C         -48.2222  -28.5395    4.6126 C.2       1 UNK         0.5000 
     81 O         -47.5025  -28.6713    3.6199 O.2       1 UNK        -0.5238 
     82 H82       -49.6475  -30.2881    9.0628 H         1 UNK         0.0889 
     83 H83       -50.6804  -31.2886    8.0343 H         1 UNK         0.0889 
     84 H84       -51.3498  -29.8743    8.8480 H         1 UNK         0.0889 
     85 H85       -49.7961  -30.9935    5.9920 H         1 UNK         0.3028 
     86 H86       -49.3591  -30.2188    4.0314 H         1 UNK         0.0864 
     87 H87       -50.4674  -28.1558    3.1341 H         1 UNK         0.0720 
     88 H88       -50.9633  -27.7257    4.7498 H         1 UNK         0.0720 
     89 H89       -53.4506  -27.5763    3.6202 H         1 UNK         0.0814 
     90 H90       -54.5024  -28.9299    3.9434 H         1 UNK         0.0814 
     91 H91       -52.8789  -26.1037    5.4313 H         1 UNK         0.1469 
     92 H92       -53.7376  -27.1842    9.4772 H         1 UNK         0.1381 
     93 H93       -54.3961  -30.0134    6.3135 H         1 UNK         0.1206 
     94 H94       -55.4308  -30.3712    8.4903 H         1 UNK         0.0813 
     95 H95       -53.8548  -30.4707    9.2272 H         1 UNK         0.0813 
     96 H96       -53.9301  -28.0200   12.0647 H         1 UNK         0.0638 
     97 H97       -53.0362  -29.0776   11.0068 H         1 UNK         0.0638 
     98 H98       -54.0216  -31.0701   12.2007 H         1 UNK         0.0568 
     99 H99       -53.3698  -29.6853   15.3129 H         1 UNK         0.3450 
    100 H100      -51.6474  -29.9762   15.2479 H         1 UNK         0.3450 
    101 H101      -55.5576  -29.0823   13.6414 H         1 UNK         0.2987 
    102 H102      -57.6863  -30.7480   14.6822 H         1 UNK         0.0766 
    103 H103      -57.7487  -31.3675   17.1095 H         1 UNK         0.0798 
    104 H104      -55.9981  -31.5752   17.1017 H         1 UNK         0.0798 
    105 H105      -57.0203  -32.6330   16.1383 H         1 UNK         0.0798 
    106 H106      -57.6838  -28.7599   15.6709 H         1 UNK         0.3198 
    107 H107      -56.6855  -26.6374   16.2616 H         1 UNK         0.0843 
    108 H108      -56.6138  -27.9747   19.0448 H         1 UNK         0.0831 
    109 H109      -58.0234  -27.9213   17.9964 H         1 UNK         0.0831 
    110 H110      -57.3916  -26.4373   18.6776 H         1 UNK         0.0831 
    111 H111      -54.1353  -27.1786   17.3408 H         1 UNK         0.3133 
    112 H112      -53.2809  -23.7625   17.8955 H         1 UNK         0.0566 
    113 H113      -52.0137  -24.7238   19.8062 H         1 UNK         0.0814 
    114 H114      -53.7162  -24.5762   20.2090 H         1 UNK         0.0814 
    115 H115      -53.0494  -26.1520   19.8067 H         1 UNK         0.0814 
    116 H116      -51.8248  -26.2608   17.6492 H         1 UNK         0.3091 
    117 H117      -51.1008  -27.0968   15.7525 H         1 UNK         0.0702 
    118 H118      -52.9079  -27.0171   14.0035 H         1 UNK         0.0785 
    119 H119      -52.0024  -25.7804   13.1393 H         1 UNK         0.0785 
    120 H120      -51.3279  -27.3967   13.3328 H         1 UNK         0.0785 
    121 H121      -49.6820  -25.5445   13.8984 H         1 UNK         0.2998 
    122 H122      -47.2761  -24.0746   16.0779 H         1 UNK         0.0697 
    123 H123      -47.0446  -26.5043   14.2256 H         1 UNK         0.0825 
    124 H124      -46.5657  -26.4625   15.9172 H         1 UNK         0.0825 
    125 H125      -45.7176  -25.4667   14.7447 H         1 UNK         0.0825 
    126 H126      -47.4066  -24.2522   13.2303 H         1 UNK         0.3029 
    127 H127      -49.2033  -21.1738   12.7570 H         1 UNK         0.0897 
    128 H128      -47.1609  -20.7141   11.4247 H         1 UNK         0.0792 
    129 H129      -46.2958  -22.0069   12.2519 H         1 UNK         0.0792 
    130 H130      -46.8112  -20.5806   13.1413 H         1 UNK         0.0792 
    131 H131      -48.1217  -23.0359   10.8830 H         1 UNK         0.3086 
    132 H132      -51.0612  -25.0720   10.6157 H         1 UNK         0.0583 
    133 H133      -51.4751  -23.0416    9.1777 H         1 UNK         0.1020 
    134 H134      -49.8087  -23.0718    8.6659 H         1 UNK         0.1020 
    135 H135      -53.0466  -24.9910    9.0269 H         1 UNK         0.0694 
    136 H136      -53.3840  -24.3538    7.4341 H         1 UNK         0.0694 
    137 H137      -48.6069  -25.3155    9.2578 H         1 UNK         0.2989 
    138 H138      -46.8654  -27.1813   11.7989 H         1 UNK         0.1055 
    139 H139      -48.1756  -28.8198   10.5024 H         1 UNK         0.0806 
    140 H140      -46.5654  -28.6640    9.8182 H         1 UNK         0.0806 
    141 H141      -47.9439  -27.9055    9.0234 H         1 UNK         0.0806 
    142 H142      -46.2065  -26.0672    9.1941 H         1 UNK         0.3061 
    143 H143      -44.7198  -23.0968   10.4788 H         1 UNK         0.0734 
    144 H144      -42.6968  -23.9813    9.3432 H         1 UNK         0.0832 
    145 H145      -42.9470  -24.8135   10.8681 H         1 UNK         0.0832 
    146 H146      -43.3658  -25.6142    9.3605 H         1 UNK         0.0832 
    147 H147      -44.8149  -24.2447    7.8575 H         1 UNK         0.3156 
    148 H148      -48.0025  -23.0019    6.9078 H         1 UNK         0.0589 
    149 H149      -45.1983  -22.0907    6.0642 H         1 UNK         0.0808 
    150 H150      -46.6842  -21.8917    5.1338 H         1 UNK         0.0808 
    151 H151      -46.4760  -21.0355    6.6512 H         1 UNK         0.0808 
    152 H152      -46.1159  -24.3423    5.3351 H         1 UNK         0.3098 
    153 H153      -46.5706  -26.4396    4.6579 H         1 UNK         0.0720 
    154 H154      -45.7361  -27.9269    7.2239 H         1 UNK         0.0791 
    155 H155      -44.6909  -26.8690    6.2826 H         1 UNK         0.0791 
    156 H156      -45.2682  -28.3729    5.5849 H         1 UNK         0.0791 
    157 H157      -48.5992  -27.6222    6.3854 H         1 UNK         0.3028 
@<TRIPOS>BOND
     1    1    2 1    
     2    1   82 1    
     3    1   83 1    
     4    1   84 1    
     5    2    3 2    
     6    2    4 am   BACKBONE|DICT|INTERRES
     7    4    5 1    
     8    4   85 1    
     9    5    6 1    
    10    5   80 1    
    11    5   86 1    
    12    6    7 1    
    13    6   87 1    
    14    6   88 1    
    15    7    8 1    
    16    8    9 1    
    17    8   89 1    
    18    8   90 1    
    19    9   10 ar   
    20    9   14 ar   
    21   10   11 ar   
    22   10   91 1    
    23   11   12 ar   
    24   11   58 1    
    25   12   13 ar   
    26   12   92 1    
    27   13   14 ar   
    28   13   15 1    
    29   14   93 1    
    30   15   16 1    
    31   15   94 1    
    32   15   95 1    
    33   16   17 1    
    34   17   18 1    
    35   17   96 1    
    36   17   97 1    
    37   18   19 1    
    38   18   22 1    
    39   18   98 1    
    40   19   20 am   BACKBONE|DICT|INTERRES
    41   19   21 2    
    42   20   99 1    
    43   20  100 1    
    44   22   23 am   BACKBONE|DICT|INTERRES
    45   22  101 1    
    46   23   24 2    
    47   23   25 1    
    48   25   26 1    
    49   25   27 1    
    50   25  102 1    
    51   26  103 1    
    52   26  104 1    
    53   26  105 1    
    54   27   28 am   BACKBONE|DICT|INTERRES
    55   27  106 1    
    56   28   29 2    
    57   28   30 1    
    58   30   31 1    
    59   30   32 1    
    60   30  107 1    
    61   31  108 1    
    62   31  109 1    
    63   31  110 1    
    64   32   33 am   BACKBONE|DICT|INTERRES
    65   32  111 1    
    66   33   34 2    
    67   33   35 1    
    68   35   36 1    
    69   35   37 1    
    70   35  112 1    
    71   36  113 1    
    72   36  114 1    
    73   36  115 1    
    74   37   38 am   BACKBONE|DICT|INTERRES
    75   37  116 1    
    76   38   39 2    
    77   38   40 1    
    78   40   41 1    
    79   40   42 1    
    80   40  117 1    
    81   41  118 1    
    82   41  119 1    
    83   41  120 1    
    84   42   43 am   BACKBONE|DICT|INTERRES
    85   42  121 1    
    86   43   44 2    
    87   43   45 1    
    88   45   46 1    
    89   45   47 1    
    90   45  122 1    
    91   46  123 1    
    92   46  124 1    
    93   46  125 1    
    94   47   48 am   BACKBONE|DICT|INTERRES
    95   47  126 1    
    96   48   49 2    
    97   48   50 1    
    98   50   51 1    
    99   50   52 1    
   100   50  127 1    
   101   51  128 1    
   102   51  129 1    
   103   51  130 1    
   104   52   53 am   BACKBONE|DICT|INTERRES
   105   52  131 1    
   106   53   54 2    
   107   53   55 1    
   108   55   56 1    
   109   55   59 1    
   110   55  132 1    
   111   56   57 1    
   112   56  133 1    
   113   56  134 1    
   114   57   58 1    
   115   58  135 1    
   116   58  136 1    
   117   59   60 am   BACKBONE|DICT|INTERRES
   118   59  137 1    
   119   60   61 2    
   120   60   62 1    
   121   62   63 1    
   122   62   64 1    
   123   62  138 1    
   124   63  139 1    
   125   63  140 1    
   126   63  141 1    
   127   64   65 am   BACKBONE|DICT|INTERRES
   128   64  142 1    
   129   65   66 2    
   130   65   67 1    
   131   67   68 1    
   132   67   69 1    
   133   67  143 1    
   134   68  144 1    
   135   68  145 1    
   136   68  146 1    
   137   69   70 am   BACKBONE|DICT|INTERRES
   138   69  147 1    
   139   70   71 2    
   140   70   72 1    
   141   72   73 1    
   142   72   74 1    
   143   72  148 1    
   144   73  149 1    
   145   73  150 1    
   146   73  151 1    
   147   74   75 am   BACKBONE|DICT|INTERRES
   148   74  152 1    
   149   75   76 2    
   150   75   77 1    
   151   77   78 1    
   152   77   79 1    
   153   77  153 1    
   154   78  154 1    
   155   78  155 1    
   156   78  156 1    
   157   79   80 am   BACKBONE|DICT|INTERRES
   158   79  157 1    
   159   80   81 2    
@<TRIPOS>SUBSTRUCTURE
     1 UNK         1 GROUP             0       ****    0 ROOT    
