@<TRIPOS>MOLECULE
3R207
157   159    1
SMALL
USER_CHARGES


@<TRIPOS>ATOM
      1 CA        -50.9972  -32.4490    8.7268 C.3       0 UNK        -0.1975 
      2 C         -50.4661  -31.2231    7.9997 C.2       0 UNK         0.4852 
      3 O         -50.5397  -31.1672    6.7711 O.2       0 UNK        -0.5216 
      4 N         -49.9225  -30.2540    8.7426 N.am      1 UNK        -0.4461 
      5 CA        -49.2701  -29.0558    8.2166 C.3       1 UNK         0.0864 
      6 C6        -50.2152  -27.8239    8.1800 C.3       14 UNK        -0.0898 
      7 S7        -50.8406  -27.2445    9.8008 S.3       14 UNK        -0.2598 
      8 C8        -52.5905  -26.9893    9.3751 C.3       14 UNK         0.0286 
      9 C9        -53.3617  -26.2480   10.4572 C.ar      14 UNK        -0.0844 
     10 C10       -53.7152  -24.9074   10.2737 C.ar      14 UNK        -0.0881 
     11 C11       -54.4989  -24.2446   11.2224 C.ar      14 UNK        -0.0643 
     12 C12       -54.9278  -24.9325   12.3609 C.ar      14 UNK        -0.0930 
     13 C13       -54.5807  -26.2718   12.5623 C.ar      14 UNK        -0.0827 
     14 C14       -53.7802  -26.9174   11.6112 C.ar      14 UNK        -0.1249 
     15 C15       -55.0627  -26.9846   13.8252 C.3       14 UNK         0.0141 
     16 S16       -55.5427  -28.7207   13.5712 S.3       14 UNK        -0.2313 
     17 C17       -57.0553  -28.5603   12.5634 C.3       14 UNK        -0.0915 
     18 CA        -57.9466  -29.8292   12.6578 C.3       13 UNK         0.0968 
     19 C         -59.2878  -29.6482   11.8912 C.2       13 UNK         0.5732 
     20 N         -59.6249  -30.4960   10.9263 N.am      13 UNK        -0.7310 
     21 O         -60.0458  -28.7274   12.1871 O.2       13 UNK        -0.5035 
     22 N         -57.1886  -31.0326   12.2814 N.am      13 UNK        -0.4233 
     23 C         -57.3616  -32.2572   12.7931 C.2       13 UNK         0.4989 
     24 O         -58.2651  -32.5541   13.5757 O.2       13 UNK        -0.4996 
     25 CA        -56.3439  -33.3379   12.3717 C.3       12 UNK         0.0216 
     26 CB        -56.9588  -34.2741   11.3179 C.3       12 UNK        -0.1964 
     27 N         -55.0848  -32.7863   11.8522 N.am      12 UNK        -0.4276 
     28 C         -54.1729  -32.1357   12.5896 C.2       12 UNK         0.5020 
     29 O         -54.2362  -32.0251   13.8172 O.2       12 UNK        -0.5489 
     30 CA        -53.0142  -31.4790   11.8238 C.3       11 UNK         0.0294 
     31 CB        -53.5063  -30.6402   10.6233 C.3       11 UNK        -0.2019 
     32 N         -52.2488  -30.6455   12.7501 N.am      11 UNK        -0.4493 
     33 C         -50.9926  -30.2294   12.5647 C.2       11 UNK         0.4932 
     34 O         -50.3454  -30.4478   11.5408 O.2       11 UNK        -0.5029 
     35 CA        -50.3534  -29.4373   13.7109 C.3       10 UNK         0.0280 
     36 CB        -48.8428  -29.7156   13.8250 C.3       10 UNK        -0.1976 
     37 N         -50.5464  -28.0082   13.4777 N.am      10 UNK        -0.4242 
     38 C         -51.1919  -27.1763   14.3045 C.2       10 UNK         0.5072 
     39 O         -51.7527  -27.5377   15.3414 O.2       10 UNK        -0.5224 
     40 CA        -51.1619  -25.6838   13.9190 C.3       9 UNK         0.0343 
     41 CB        -52.0004  -24.7933   14.8623 C.3       9 UNK        -0.2003 
     42 N         -49.7919  -25.1670   13.8193 N.am      9 UNK        -0.4272 
     43 C         -48.8558  -25.1299   14.7839 C.2       9 UNK         0.4988 
     44 O         -49.0124  -25.5534   15.9292 O.2       9 UNK        -0.5108 
     45 CA        -47.5110  -24.4900   14.4079 C.3       8 UNK         0.0248 
     46 CB        -46.6605  -25.4757   13.5932 C.3       8 UNK        -0.2001 
     47 N         -47.7226  -23.2642   13.6367 N.am      8 UNK        -0.4140 
     48 C         -47.7887  -22.0332   14.1658 C.2       8 UNK         0.5028 
     49 O         -47.5415  -21.7774   15.3451 O.2       8 UNK        -0.5428 
     50 CA        -48.2206  -20.8882   13.2276 C.3       7 UNK         0.0264 
     51 CB        -46.9931  -20.2235   12.5915 C.3       7 UNK        -0.1988 
     52 N         -49.1439  -21.3369   12.1787 N.am      7 UNK        -0.4454 
     53 C         -50.4006  -21.7382   12.4340 C.2       7 UNK         0.5027 
     54 O         -50.9200  -21.6117   13.5428 O.2       7 UNK        -0.5083 
     55 CA        -51.2079  -22.4229   11.3029 C.3       6 UNK         0.0844 
     56 C56       -52.3861  -21.5423   10.8103 C.3       14 UNK        -0.0967 
     57 S57       -53.8513  -21.6281   11.8964 S.3       14 UNK        -0.2604 
     58 C58       -54.9235  -22.7990   11.0052 C.3       14 UNK         0.0134 
     59 N         -50.3976  -22.8826   10.1706 N.am      6 UNK        -0.4116 
     60 C         -49.4135  -23.7907   10.2026 C.2       5 UNK         0.5034 
     61 O         -49.0114  -24.3339   11.2325 O.2       5 UNK        -0.5045 
     62 CA        -48.7392  -24.1264    8.8589 C.3       5 UNK         0.0224 
     63 CB        -49.5937  -23.7653    7.6251 C.3       5 UNK        -0.1978 
     64 N         -47.3904  -23.5651    8.7032 N.am      5 UNK        -0.4737 
     65 C         -46.9466  -22.3368    9.0207 C.2       4 UNK         0.5027 
     66 O         -47.6395  -21.4778    9.5686 O.2       4 UNK        -0.5211 
     67 CA        -45.4821  -22.0101    8.6599 C.3       4 UNK         0.0297 
     68 CB        -44.7823  -21.1601    9.7346 C.3       4 UNK        -0.1993 
     69 N         -44.6956  -23.2256    8.4343 N.am      4 UNK        -0.4486 
     70 C         -44.0659  -23.5484    7.2973 C.2       3 UNK         0.4961 
     71 O         -43.9953  -22.8114    6.3134 O.2       3 UNK        -0.5105 
     72 CA        -43.4239  -24.9497    7.2352 C.3       3 UNK         0.0299 
     73 CB        -41.9362  -24.8733    7.6149 C.3       3 UNK        -0.1972 
     74 N         -44.0883  -25.9606    8.0717 N.am      3 UNK        -0.4305 
     75 C         -45.3713  -26.3295    7.9543 C.2       2 UNK         0.5006 
     76 O         -46.1540  -25.8404    7.1338 O.2       2 UNK        -0.5106 
     77 CA        -45.8901  -27.3644    8.9585 C.3       2 UNK         0.0296 
     78 CB        -45.9951  -26.7470   10.3668 C.3       2 UNK        -0.2002 
     79 N         -47.2006  -27.7992    8.4863 N.am      2 UNK        -0.4032 
     80 C         -47.9433  -28.8046    8.9585 C.2       1 UNK         0.5000 
     81 O         -47.6033  -29.5246    9.9017 O.2       1 UNK        -0.5238 
     82 H82       -50.6148  -33.3563    8.2601 H         1 UNK         0.0889 
     83 H83       -52.0848  -32.4746    8.6795 H         1 UNK         0.0889 
     84 H84       -50.6929  -32.4593    9.7726 H         1 UNK         0.0889 
     85 H85       -49.8872  -30.3423    9.7592 H         1 UNK         0.3028 
     86 H86       -48.9683  -29.2570    7.1863 H         1 UNK         0.0864 
     87 H87       -49.7311  -26.9830    7.6826 H         1 UNK         0.0720 
     88 H88       -51.0646  -28.0710    7.5414 H         1 UNK         0.0720 
     89 H89       -53.0618  -27.9545    9.1881 H         1 UNK         0.0814 
     90 H90       -52.6498  -26.4378    8.4354 H         1 UNK         0.0814 
     91 H91       -53.3992  -24.3847    9.3815 H         1 UNK         0.1469 
     92 H92       -55.5374  -24.4187   13.0916 H         1 UNK         0.1381 
     93 H93       -53.4890  -27.9465   11.7615 H         1 UNK         0.1206 
     94 H94       -54.2657  -26.9703   14.5660 H         1 UNK         0.0813 
     95 H95       -55.9045  -26.4534   14.2721 H         1 UNK         0.0813 
     96 H96       -57.6048  -27.6807   12.9037 H         1 UNK         0.0638 
     97 H97       -56.7641  -28.3647   11.5298 H         1 UNK         0.0638 
     98 H98       -58.2329  -29.9363   13.7059 H         1 UNK         0.0568 
     99 H99       -60.4999  -30.3703   10.4424 H         1 UNK         0.3450 
    100 H100      -59.0170  -31.2609   10.6832 H         1 UNK         0.3450 
    101 H101      -56.4266  -30.8843   11.6396 H         1 UNK         0.2987 
    102 H102      -56.1130  -33.9285   13.2610 H         1 UNK         0.0766 
    103 H103      -56.2820  -35.0922   11.0703 H         1 UNK         0.0798 
    104 H104      -57.1994  -33.7447   10.3950 H         1 UNK         0.0798 
    105 H105      -57.8827  -34.7227   11.6860 H         1 UNK         0.0798 
    106 H106      -54.9400  -32.8589   10.8553 H         1 UNK         0.3198 
    107 H107      -52.3680  -32.2829   11.4679 H         1 UNK         0.0843 
    108 H108      -54.2582  -29.9103   10.9225 H         1 UNK         0.0831 
    109 H109      -53.9517  -31.2660    9.8502 H         1 UNK         0.0831 
    110 H110      -52.6861  -30.0999   10.1518 H         1 UNK         0.0831 
    111 H111      -52.7188  -30.4789   13.6330 H         1 UNK         0.3133 
    112 H112      -50.8228  -29.7533   14.6448 H         1 UNK         0.0566 
    113 H113      -48.4078  -29.1884   14.6743 H         1 UNK         0.0814 
    114 H114      -48.6522  -30.7798   13.9692 H         1 UNK         0.0814 
    115 H115      -48.3027  -29.4061   12.9285 H         1 UNK         0.0814 
    116 H116      -50.1671  -27.6467   12.6126 H         1 UNK         0.3091 
    117 H117      -51.5938  -25.6062   12.9205 H         1 UNK         0.0702 
    118 H118      -53.0418  -25.1068   14.8847 H         1 UNK         0.0785 
    119 H119      -51.6316  -24.8237   15.8878 H         1 UNK         0.0785 
    120 H120      -51.9940  -23.7552   14.5353 H         1 UNK         0.0785 
    121 H121      -49.5219  -24.8425   12.8928 H         1 UNK         0.2998 
    122 H122      -46.9701  -24.2599   15.3284 H         1 UNK         0.0697 
    123 H123      -47.1872  -25.8082   12.7000 H         1 UNK         0.0825 
    124 H124      -46.4264  -26.3647   14.1803 H         1 UNK         0.0825 
    125 H125      -45.7153  -25.0297   13.2840 H         1 UNK         0.0825 
    126 H126      -47.9832  -23.3878   12.6644 H         1 UNK         0.3029 
    127 H127      -48.7343  -20.1383   13.8335 H         1 UNK         0.0897 
    128 H128      -47.2774  -19.4228   11.9086 H         1 UNK         0.0792 
    129 H129      -46.4008  -20.9479   12.0362 H         1 UNK         0.0792 
    130 H130      -46.3453  -19.7895   13.3543 H         1 UNK         0.0792 
    131 H131      -48.7641  -21.4352   11.2404 H         1 UNK         0.3086 
    132 H132      -51.6258  -23.3312   11.7422 H         1 UNK         0.0583 
    133 H133      -52.0813  -20.4985   10.7106 H         1 UNK         0.1020 
    134 H134      -52.6970  -21.8438    9.8091 H         1 UNK         0.1020 
    135 H135      -55.9468  -22.6682   11.3603 H         1 UNK         0.0694 
    136 H136      -54.9450  -22.5551    9.9420 H         1 UNK         0.0694 
    137 H137      -50.6009  -22.4559    9.2792 H         1 UNK         0.2989 
    138 H138      -48.6173  -25.2095    8.8661 H         1 UNK         0.1055 
    139 H139      -50.5997  -24.1816    7.7013 H         1 UNK         0.0806 
    140 H140      -49.1518  -24.1756    6.7168 H         1 UNK         0.0806 
    141 H141      -49.6813  -22.6873    7.4848 H         1 UNK         0.0806 
    142 H142      -46.7434  -24.1715    8.2113 H         1 UNK         0.3061 
    143 H143      -45.5308  -21.4164    7.7449 H         1 UNK         0.0734 
    144 H144      -43.7818  -20.8702    9.4133 H         1 UNK         0.0832 
    145 H145      -45.3317  -20.2390    9.9330 H         1 UNK         0.0832 
    146 H146      -44.6832  -21.7024   10.6749 H         1 UNK         0.0832 
    147 H147      -44.6774  -23.8932    9.1923 H         1 UNK         0.3156 
    148 H148      -43.4930  -25.2897    6.1997 H         1 UNK         0.0589 
    149 H149      -41.7985  -24.5683    8.6531 H         1 UNK         0.0808 
    150 H150      -41.4400  -25.8342    7.4771 H         1 UNK         0.0808 
    151 H151      -41.4109  -24.1487    6.9908 H         1 UNK         0.0808 
    152 H152      -43.5176  -26.4084    8.7753 H         1 UNK         0.3098 
    153 H153      -45.2122  -28.2200    8.9693 H         1 UNK         0.0720 
    154 H154      -46.3513  -27.4749   11.0956 H         1 UNK         0.0791 
    155 H155      -46.6802  -25.8991   10.3820 H         1 UNK         0.0791 
    156 H156      -45.0270  -26.3940   10.7233 H         1 UNK         0.0791 
    157 H157      -47.5124  -27.2743    7.6770 H         1 UNK         0.3028 
@<TRIPOS>BOND
     1    1    2 1    
     2    1   82 1    
     3    1   83 1    
     4    1   84 1    
     5    2    3 2    
     6    2    4 am   BACKBONE|DICT|INTERRES
     7    4    5 1    
     8    4   85 1    
     9    5    6 1    
    10    5   80 1    
    11    5   86 1    
    12    6    7 1    
    13    6   87 1    
    14    6   88 1    
    15    7    8 1    
    16    8    9 1    
    17    8   89 1    
    18    8   90 1    
    19    9   10 ar   
    20    9   14 ar   
    21   10   11 ar   
    22   10   91 1    
    23   11   12 ar   
    24   11   58 1    
    25   12   13 ar   
    26   12   92 1    
    27   13   14 ar   
    28   13   15 1    
    29   14   93 1    
    30   15   16 1    
    31   15   94 1    
    32   15   95 1    
    33   16   17 1    
    34   17   18 1    
    35   17   96 1    
    36   17   97 1    
    37   18   19 1    
    38   18   22 1    
    39   18   98 1    
    40   19   20 am   BACKBONE|DICT|INTERRES
    41   19   21 2    
    42   20   99 1    
    43   20  100 1    
    44   22   23 am   BACKBONE|DICT|INTERRES
    45   22  101 1    
    46   23   24 2    
    47   23   25 1    
    48   25   26 1    
    49   25   27 1    
    50   25  102 1    
    51   26  103 1    
    52   26  104 1    
    53   26  105 1    
    54   27   28 am   BACKBONE|DICT|INTERRES
    55   27  106 1    
    56   28   29 2    
    57   28   30 1    
    58   30   31 1    
    59   30   32 1    
    60   30  107 1    
    61   31  108 1    
    62   31  109 1    
    63   31  110 1    
    64   32   33 am   BACKBONE|DICT|INTERRES
    65   32  111 1    
    66   33   34 2    
    67   33   35 1    
    68   35   36 1    
    69   35   37 1    
    70   35  112 1    
    71   36  113 1    
    72   36  114 1    
    73   36  115 1    
    74   37   38 am   BACKBONE|DICT|INTERRES
    75   37  116 1    
    76   38   39 2    
    77   38   40 1    
    78   40   41 1    
    79   40   42 1    
    80   40  117 1    
    81   41  118 1    
    82   41  119 1    
    83   41  120 1    
    84   42   43 am   BACKBONE|DICT|INTERRES
    85   42  121 1    
    86   43   44 2    
    87   43   45 1    
    88   45   46 1    
    89   45   47 1    
    90   45  122 1    
    91   46  123 1    
    92   46  124 1    
    93   46  125 1    
    94   47   48 am   BACKBONE|DICT|INTERRES
    95   47  126 1    
    96   48   49 2    
    97   48   50 1    
    98   50   51 1    
    99   50   52 1    
   100   50  127 1    
   101   51  128 1    
   102   51  129 1    
   103   51  130 1    
   104   52   53 am   BACKBONE|DICT|INTERRES
   105   52  131 1    
   106   53   54 2    
   107   53   55 1    
   108   55   56 1    
   109   55   59 1    
   110   55  132 1    
   111   56   57 1    
   112   56  133 1    
   113   56  134 1    
   114   57   58 1    
   115   58  135 1    
   116   58  136 1    
   117   59   60 am   BACKBONE|DICT|INTERRES
   118   59  137 1    
   119   60   61 2    
   120   60   62 1    
   121   62   63 1    
   122   62   64 1    
   123   62  138 1    
   124   63  139 1    
   125   63  140 1    
   126   63  141 1    
   127   64   65 am   BACKBONE|DICT|INTERRES
   128   64  142 1    
   129   65   66 2    
   130   65   67 1    
   131   67   68 1    
   132   67   69 1    
   133   67  143 1    
   134   68  144 1    
   135   68  145 1    
   136   68  146 1    
   137   69   70 am   BACKBONE|DICT|INTERRES
   138   69  147 1    
   139   70   71 2    
   140   70   72 1    
   141   72   73 1    
   142   72   74 1    
   143   72  148 1    
   144   73  149 1    
   145   73  150 1    
   146   73  151 1    
   147   74   75 am   BACKBONE|DICT|INTERRES
   148   74  152 1    
   149   75   76 2    
   150   75   77 1    
   151   77   78 1    
   152   77   79 1    
   153   77  153 1    
   154   78  154 1    
   155   78  155 1    
   156   78  156 1    
   157   79   80 am   BACKBONE|DICT|INTERRES
   158   79  157 1    
   159   80   81 2    
@<TRIPOS>SUBSTRUCTURE
     1 UNK         1 GROUP             0       ****    0 ROOT    
