@<TRIPOS>MOLECULE
3R207
157   159    1
SMALL
USER_CHARGES


@<TRIPOS>ATOM
      1 CA        -44.5839  -31.1952    6.9704 C.3       0 UNK        -0.1975 
      2 C         -45.8167  -30.3463    7.2424 C.2       0 UNK         0.4852 
      3 O         -45.6905  -29.2495    7.7868 O.2       0 UNK        -0.5216 
      4 N         -47.0012  -30.8464    6.8617 N.am      1 UNK        -0.4461 
      5 CA        -48.3321  -30.2353    6.9989 C.3       1 UNK         0.0864 
      6 C6        -48.7700  -29.9799    8.4688 C.3       14 UNK        -0.0898 
      7 S7        -49.5588  -31.4370    9.2318 S.3       14 UNK        -0.2598 
      8 C8        -51.2390  -31.4065    8.5145 C.3       14 UNK         0.0286 
      9 C9        -51.9781  -30.1072    8.8019 C.ar      14 UNK        -0.0844 
     10 C10       -52.0192  -29.0952    7.8390 C.ar      14 UNK        -0.0881 
     11 C11       -52.6505  -27.8792    8.1105 C.ar      14 UNK        -0.0643 
     12 C12       -53.2968  -27.6968    9.3363 C.ar      14 UNK        -0.0930 
     13 C13       -53.2615  -28.7021   10.3066 C.ar      14 UNK        -0.0827 
     14 C14       -52.6034  -29.9055   10.0343 C.ar      14 UNK        -0.1249 
     15 C15       -53.8781  -28.4752   11.6742 C.3       14 UNK         0.0141 
     16 S16       -55.4994  -29.2822   11.8323 S.3       14 UNK        -0.2313 
     17 C17       -56.6511  -27.9761   11.2839 C.3       14 UNK        -0.0915 
     18 CA        -56.7597  -26.7449   12.2327 C.3       13 UNK         0.0968 
     19 C         -57.9818  -25.8630   11.8433 C.2       13 UNK         0.5732 
     20 N         -59.0030  -25.7332   12.6818 N.am      13 UNK        -0.7310 
     21 O         -58.0018  -25.2873   10.7579 O.2       13 UNK        -0.5035 
     22 N         -56.6626  -27.1171   13.6556 N.am      13 UNK        -0.4233 
     23 C         -56.4244  -26.2646   14.6609 C.2       13 UNK         0.4989 
     24 O         -56.4020  -25.0394   14.5389 O.2       13 UNK        -0.4996 
     25 CA        -56.1154  -26.8859   16.0374 C.3       12 UNK         0.0216 
     26 CB        -57.4184  -27.1908   16.7948 C.3       12 UNK        -0.1964 
     27 N         -55.2704  -28.0913   16.0057 N.am      12 UNK        -0.4276 
     28 C         -54.0701  -28.1808   15.4141 C.2       12 UNK         0.5020 
     29 O         -53.5679  -27.2754   14.7416 O.2       12 UNK        -0.5489 
     30 CA        -53.2793  -29.4856   15.6047 C.3       11 UNK         0.0294 
     31 CB        -54.0005  -30.7032   14.9890 C.3       11 UNK        -0.2019 
     32 N         -51.9847  -29.2556   14.9726 N.am      11 UNK        -0.4493 
     33 C         -50.9192  -30.0537   14.8836 C.2       11 UNK         0.4932 
     34 O         -50.8589  -31.1937   15.3444 O.2       11 UNK        -0.5029 
     35 CA        -49.7011  -29.4521   14.1596 C.3       10 UNK         0.0280 
     36 CB        -49.8200  -29.6636   12.6409 C.3       10 UNK        -0.1976 
     37 N         -49.5165  -28.0221   14.4443 N.am      10 UNK        -0.4242 
     38 C         -49.1490  -27.5370   15.6409 C.2       10 UNK         0.5072 
     39 O         -48.8997  -28.2447   16.6180 O.2       10 UNK        -0.5224 
     40 CA        -49.0351  -26.0122   15.7826 C.3       9 UNK         0.0343 
     41 CB        -47.7734  -25.4729   15.0926 C.3       9 UNK        -0.2003 
     42 N         -50.2121  -25.3078   15.2736 N.am      9 UNK        -0.4272 
     43 C         -51.3201  -25.0721   15.9917 C.2       9 UNK         0.4988 
     44 O         -51.4898  -25.5137   17.1299 O.2       9 UNK        -0.5108 
     45 CA        -52.4208  -24.1866   15.3630 C.3       8 UNK         0.0248 
     46 CB        -53.0059  -23.1835   16.3802 C.3       8 UNK        -0.2001 
     47 N         -52.0358  -23.5048   14.1200 N.am      8 UNK        -0.4140 
     48 C         -51.1051  -22.5571   13.9402 C.2       8 UNK         0.5028 
     49 O         -50.3902  -22.1151   14.8410 O.2       8 UNK        -0.5428 
     50 CA        -50.9401  -22.0405   12.4962 C.3       7 UNK         0.0264 
     51 CB        -49.8560  -20.9530   12.3719 C.3       7 UNK        -0.1988 
     52 N         -50.6395  -23.1191   11.5492 N.am      7 UNK        -0.4454 
     53 C         -51.5286  -23.9943   11.0540 C.2       7 UNK         0.5027 
     54 O         -52.7154  -24.0067   11.3851 O.2       7 UNK        -0.5083 
     55 CA        -51.0328  -25.0257   10.0210 C.3       6 UNK         0.0844 
     56 C56       -51.5053  -24.6111    8.6038 C.3       14 UNK        -0.0967 
     57 S57       -51.0494  -25.7913    7.2879 S.3       14 UNK        -0.2604 
     58 C58       -52.5845  -26.7551    7.0903 C.3       14 UNK         0.0134 
     59 N         -49.5879  -25.2482   10.0969 N.am      6 UNK        -0.4116 
     60 C         -48.9725  -25.9240   11.0790 C.2       5 UNK         0.5034 
     61 O         -49.5557  -26.4188   12.0456 O.2       5 UNK        -0.5045 
     62 CA        -47.4392  -26.0276   10.9915 C.3       5 UNK         0.0224 
     63 CB        -47.0274  -27.2805   10.2111 C.3       5 UNK        -0.1978 
     64 N         -46.8261  -24.8437   10.3847 N.am      5 UNK        -0.4737 
     65 C         -46.8412  -23.6279   10.9513 C.2       4 UNK         0.5027 
     66 O         -47.3124  -23.4092   12.0662 O.2       4 UNK        -0.5211 
     67 CA        -46.2785  -22.4475   10.1404 C.3       4 UNK         0.0297 
     68 CB        -44.8559  -22.1062   10.6110 C.3       4 UNK        -0.1993 
     69 N         -46.2705  -22.6512    8.6887 N.am      4 UNK        -0.4486 
     70 C         -47.3458  -22.8811    7.9223 C.2       3 UNK         0.4961 
     71 O         -48.4906  -22.9849    8.3652 O.2       3 UNK        -0.5105 
     72 CA        -47.1117  -23.0344    6.4068 C.3       3 UNK         0.0299 
     73 CB        -45.6511  -22.7905    5.9595 C.3       3 UNK        -0.1972 
     74 N         -47.5827  -24.3268    5.8983 N.am      3 UNK        -0.4305 
     75 C         -47.2169  -25.5469    6.3176 C.2       2 UNK         0.5006 
     76 O         -46.4509  -25.7620    7.2607 O.2       2 UNK        -0.5106 
     77 CA        -47.7705  -26.7162    5.4961 C.3       2 UNK         0.0296 
     78 CB        -46.9817  -26.8836    4.1833 C.3       2 UNK        -0.2002 
     79 N         -47.7075  -27.9577    6.2631 N.am      2 UNK        -0.4032 
     80 C         -48.5365  -28.9948    6.1027 C.2       1 UNK         0.5000 
     81 O         -49.4421  -29.0137    5.2665 O.2       1 UNK        -0.5238 
     82 H82       -44.8353  -32.1398    6.4884 H         1 UNK         0.0889 
     83 H83       -44.0698  -31.4178    7.9050 H         1 UNK         0.0889 
     84 H84       -43.8939  -30.6560    6.3220 H         1 UNK         0.0889 
     85 H85       -47.0086  -31.7478    6.4046 H         1 UNK         0.3028 
     86 H86       -49.0090  -30.9807    6.5792 H         1 UNK         0.0864 
     87 H87       -47.9109  -29.7257    9.0862 H         1 UNK         0.0720 
     88 H88       -49.4408  -29.1255    8.5643 H         1 UNK         0.0720 
     89 H89       -51.8077  -32.2438    8.9216 H         1 UNK         0.0814 
     90 H90       -51.1797  -31.5809    7.4394 H         1 UNK         0.0814 
     91 H91       -51.5232  -29.2361    6.8888 H         1 UNK         0.1469 
     92 H92       -53.7869  -26.7573    9.5519 H         1 UNK         0.1381 
     93 H93       -52.5628  -30.6789   10.7894 H         1 UNK         0.1206 
     94 H94       -53.9511  -27.4111   11.9010 H         1 UNK         0.0813 
     95 H95       -53.2111  -28.8895   12.4294 H         1 UNK         0.0813 
     96 H96       -57.6264  -28.4549   11.1774 H         1 UNK         0.0638 
     97 H97       -56.3622  -27.6572   10.2806 H         1 UNK         0.0638 
     98 H98       -55.8894  -26.1164   12.0360 H         1 UNK         0.0568 
     99 H99       -58.9900  -26.1965   13.5759 H         1 UNK         0.3450 
    100 H100      -59.7878  -25.1581   12.4199 H         1 UNK         0.3450 
    101 H101      -56.6479  -28.1078   13.8462 H         1 UNK         0.2987 
    102 H102      -55.5643  -26.1332   16.6055 H         1 UNK         0.0766 
    103 H103      -58.0557  -26.3066   16.8482 H         1 UNK         0.0798 
    104 H104      -57.9946  -27.9793   16.3088 H         1 UNK         0.0798 
    105 H105      -57.2189  -27.5032   17.8201 H         1 UNK         0.0798 
    106 H106      -55.6035  -28.8845   16.5354 H         1 UNK         0.3198 
    107 H107      -53.1267  -29.6421   16.6741 H         1 UNK         0.0843 
    108 H108      -55.0304  -30.7840   15.3371 H         1 UNK         0.0831 
    109 H109      -53.5043  -31.6346   15.2611 H         1 UNK         0.0831 
    110 H110      -54.0240  -30.6538   13.9018 H         1 UNK         0.0831 
    111 H111      -51.9304  -28.3202   14.5806 H         1 UNK         0.3133 
    112 H112      -48.8130  -29.9846   14.5066 H         1 UNK         0.0566 
    113 H113      -48.9084  -29.3620   12.1266 H         1 UNK         0.0814 
    114 H114      -49.9915  -30.7139   12.4010 H         1 UNK         0.0814 
    115 H115      -50.6453  -29.0929   12.2138 H         1 UNK         0.0814 
    116 H116      -49.6573  -27.3785   13.6683 H         1 UNK         0.3091 
    117 H117      -48.9318  -25.7945   16.8482 H         1 UNK         0.0702 
    118 H118      -47.6132  -24.4215   15.3329 H         1 UNK         0.0785 
    119 H119      -47.8419  -25.5529   14.0105 H         1 UNK         0.0785 
    120 H120      -46.8841  -26.0188   15.4104 H         1 UNK         0.0785 
    121 H121      -50.1522  -24.9286   14.3399 H         1 UNK         0.2998 
    122 H122      -53.2334  -24.8536   15.0823 H         1 UNK         0.0697 
    123 H123      -52.2440  -22.5053   16.7656 H         1 UNK         0.0825 
    124 H124      -53.4406  -23.7022   17.2356 H         1 UNK         0.0825 
    125 H125      -53.7985  -22.5829   15.9340 H         1 UNK         0.0825 
    126 H126      -52.5339  -23.8074   13.2858 H         1 UNK         0.3029 
    127 H127      -51.8923  -21.5868   12.2117 H         1 UNK         0.0897 
    128 H128      -49.7771  -20.5837   11.3491 H         1 UNK         0.0792 
    129 H129      -50.0878  -20.0974   13.0075 H         1 UNK         0.0792 
    130 H130      -48.8752  -21.3233   12.6720 H         1 UNK         0.0792 
    131 H131      -49.6723  -23.2085   11.2680 H         1 UNK         0.3086 
    132 H132      -51.5110  -25.9704   10.2780 H         1 UNK         0.0583 
    133 H133      -52.5876  -24.4687    8.5895 H         1 UNK         0.1020 
    134 H134      -51.0813  -23.6420    8.3340 H         1 UNK         0.1020 
    135 H135      -53.4589  -26.1072    7.1649 H         1 UNK         0.0694 
    136 H136      -52.6041  -27.1745    6.0831 H         1 UNK         0.0694 
    137 H137      -49.0336  -24.8186    9.3655 H         1 UNK         0.2989 
    138 H138      -47.0453  -26.1242   12.0037 H         1 UNK         0.1055 
    139 H139      -45.9450  -27.3501   10.1008 H         1 UNK         0.0806 
    140 H140      -47.4663  -27.2967    9.2135 H         1 UNK         0.0806 
    141 H141      -47.3558  -28.1799   10.7312 H         1 UNK         0.0806 
    142 H142      -46.4463  -24.9479    9.4507 H         1 UNK         0.3061 
    143 H143      -46.9208  -21.5878   10.3433 H         1 UNK         0.0734 
    144 H144      -44.8349  -21.9204   11.6861 H         1 UNK         0.0832 
    145 H145      -44.1575  -22.9192   10.4081 H         1 UNK         0.0832 
    146 H146      -44.4790  -21.2071   10.1231 H         1 UNK         0.0832 
    147 H147      -45.3702  -22.6094    8.2332 H         1 UNK         0.3156 
    148 H148      -47.7315  -22.2731    5.9310 H         1 UNK         0.0589 
    149 H149      -44.9616  -23.5244    6.3792 H         1 UNK         0.0808 
    150 H150      -45.5636  -22.8476    4.8743 H         1 UNK         0.0808 
    151 H151      -45.3056  -21.7970    6.2493 H         1 UNK         0.0808 
    152 H152      -48.2498  -24.2705    5.1413 H         1 UNK         0.3098 
    153 H153      -48.8140  -26.4925    5.2635 H         1 UNK         0.0720 
    154 H154      -47.0056  -25.9710    3.5865 H         1 UNK         0.0791 
    155 H155      -47.3992  -27.6806    3.5677 H         1 UNK         0.0791 
    156 H156      -45.9346  -27.1225    4.3744 H         1 UNK         0.0791 
    157 H157      -46.9668  -28.0178    6.9599 H         1 UNK         0.3028 
@<TRIPOS>BOND
     1    1    2 1    
     2    1   82 1    
     3    1   83 1    
     4    1   84 1    
     5    2    3 2    
     6    2    4 am   BACKBONE|DICT|INTERRES
     7    4    5 1    
     8    4   85 1    
     9    5    6 1    
    10    5   80 1    
    11    5   86 1    
    12    6    7 1    
    13    6   87 1    
    14    6   88 1    
    15    7    8 1    
    16    8    9 1    
    17    8   89 1    
    18    8   90 1    
    19    9   10 ar   
    20    9   14 ar   
    21   10   11 ar   
    22   10   91 1    
    23   11   12 ar   
    24   11   58 1    
    25   12   13 ar   
    26   12   92 1    
    27   13   14 ar   
    28   13   15 1    
    29   14   93 1    
    30   15   16 1    
    31   15   94 1    
    32   15   95 1    
    33   16   17 1    
    34   17   18 1    
    35   17   96 1    
    36   17   97 1    
    37   18   19 1    
    38   18   22 1    
    39   18   98 1    
    40   19   20 am   BACKBONE|DICT|INTERRES
    41   19   21 2    
    42   20   99 1    
    43   20  100 1    
    44   22   23 am   BACKBONE|DICT|INTERRES
    45   22  101 1    
    46   23   24 2    
    47   23   25 1    
    48   25   26 1    
    49   25   27 1    
    50   25  102 1    
    51   26  103 1    
    52   26  104 1    
    53   26  105 1    
    54   27   28 am   BACKBONE|DICT|INTERRES
    55   27  106 1    
    56   28   29 2    
    57   28   30 1    
    58   30   31 1    
    59   30   32 1    
    60   30  107 1    
    61   31  108 1    
    62   31  109 1    
    63   31  110 1    
    64   32   33 am   BACKBONE|DICT|INTERRES
    65   32  111 1    
    66   33   34 2    
    67   33   35 1    
    68   35   36 1    
    69   35   37 1    
    70   35  112 1    
    71   36  113 1    
    72   36  114 1    
    73   36  115 1    
    74   37   38 am   BACKBONE|DICT|INTERRES
    75   37  116 1    
    76   38   39 2    
    77   38   40 1    
    78   40   41 1    
    79   40   42 1    
    80   40  117 1    
    81   41  118 1    
    82   41  119 1    
    83   41  120 1    
    84   42   43 am   BACKBONE|DICT|INTERRES
    85   42  121 1    
    86   43   44 2    
    87   43   45 1    
    88   45   46 1    
    89   45   47 1    
    90   45  122 1    
    91   46  123 1    
    92   46  124 1    
    93   46  125 1    
    94   47   48 am   BACKBONE|DICT|INTERRES
    95   47  126 1    
    96   48   49 2    
    97   48   50 1    
    98   50   51 1    
    99   50   52 1    
   100   50  127 1    
   101   51  128 1    
   102   51  129 1    
   103   51  130 1    
   104   52   53 am   BACKBONE|DICT|INTERRES
   105   52  131 1    
   106   53   54 2    
   107   53   55 1    
   108   55   56 1    
   109   55   59 1    
   110   55  132 1    
   111   56   57 1    
   112   56  133 1    
   113   56  134 1    
   114   57   58 1    
   115   58  135 1    
   116   58  136 1    
   117   59   60 am   BACKBONE|DICT|INTERRES
   118   59  137 1    
   119   60   61 2    
   120   60   62 1    
   121   62   63 1    
   122   62   64 1    
   123   62  138 1    
   124   63  139 1    
   125   63  140 1    
   126   63  141 1    
   127   64   65 am   BACKBONE|DICT|INTERRES
   128   64  142 1    
   129   65   66 2    
   130   65   67 1    
   131   67   68 1    
   132   67   69 1    
   133   67  143 1    
   134   68  144 1    
   135   68  145 1    
   136   68  146 1    
   137   69   70 am   BACKBONE|DICT|INTERRES
   138   69  147 1    
   139   70   71 2    
   140   70   72 1    
   141   72   73 1    
   142   72   74 1    
   143   72  148 1    
   144   73  149 1    
   145   73  150 1    
   146   73  151 1    
   147   74   75 am   BACKBONE|DICT|INTERRES
   148   74  152 1    
   149   75   76 2    
   150   75   77 1    
   151   77   78 1    
   152   77   79 1    
   153   77  153 1    
   154   78  154 1    
   155   78  155 1    
   156   78  156 1    
   157   79   80 am   BACKBONE|DICT|INTERRES
   158   79  157 1    
   159   80   81 2    
@<TRIPOS>SUBSTRUCTURE
     1 UNK         1 GROUP             0       ****    0 ROOT    
