@<TRIPOS>MOLECULE
3R207
157   159    1
SMALL
USER_CHARGES


@<TRIPOS>ATOM
      1 CA        -46.8708  -32.2137    5.4286 C.3       0 UNK        -0.1975 
      2 C         -47.7642  -31.0247    5.1084 C.2       0 UNK         0.4852 
      3 O         -47.6328  -30.4313    4.0374 O.2       0 UNK        -0.5216 
      4 N         -48.6711  -30.6726    6.0297 N.am      1 UNK        -0.4461 
      5 CA        -49.6100  -29.5482    5.9134 C.3       1 UNK         0.0864 
      6 C6        -50.8087  -29.6781    6.8884 C.3       14 UNK        -0.0898 
      7 S7        -50.3850  -30.2225    8.5852 S.3       14 UNK        -0.2598 
      8 C8        -50.3841  -28.6703    9.5374 C.3       14 UNK         0.0286 
      9 C9        -51.6784  -27.8822    9.3994 C.ar      14 UNK        -0.0844 
     10 C10       -51.6415  -26.5963    8.8595 C.ar      14 UNK        -0.0881 
     11 C11       -52.8120  -25.8485    8.7162 C.ar      14 UNK        -0.0643 
     12 C12       -54.0351  -26.4115    9.0929 C.ar      14 UNK        -0.0930 
     13 C13       -54.0910  -27.7109    9.6069 C.ar      14 UNK        -0.0827 
     14 C14       -52.9062  -28.4337    9.7783 C.ar      14 UNK        -0.1249 
     15 C15       -55.4385  -28.3510    9.9044 C.3       14 UNK         0.0141 
     16 S16       -56.1326  -27.8086   11.4950 S.3       14 UNK        -0.2313 
     17 C17       -57.8481  -28.4079   11.3000 C.3       14 UNK        -0.0915 
     18 CA        -58.5021  -28.8704   12.6275 C.3       13 UNK         0.0968 
     19 C         -59.9798  -29.2858   12.3877 C.2       13 UNK         0.5732 
     20 N         -60.9155  -28.3552   12.5176 N.am      13 UNK        -0.7310 
     21 O         -60.2780  -30.4281   12.0419 O.2       13 UNK        -0.5035 
     22 N         -57.7066  -29.9215   13.2731 N.am      13 UNK        -0.4233 
     23 C         -57.9236  -30.4368   14.4902 C.2       13 UNK         0.4989 
     24 O         -58.8564  -30.1079   15.2246 O.2       13 UNK        -0.4996 
     25 CA        -56.9063  -31.4812   14.9935 C.3       12 UNK         0.0216 
     26 CB        -57.4371  -32.9046   14.7555 C.3       12 UNK        -0.1964 
     27 N         -55.5701  -31.3551   14.3945 N.am      12 UNK        -0.4276 
     28 C         -54.7709  -30.2861   14.5219 C.2       12 UNK         0.5020 
     29 O         -55.0651  -29.2963   15.1970 O.2       12 UNK        -0.5489 
     30 CA        -53.4369  -30.3092   13.7586 C.3       11 UNK         0.0294 
     31 CB        -53.4976  -31.0782   12.4217 C.3       11 UNK        -0.2019 
     32 N         -53.0293  -28.9259   13.5340 N.am      11 UNK        -0.4493 
     33 C         -51.7766  -28.4877   13.3877 C.2       11 UNK         0.4932 
     34 O         -50.7951  -29.2299   13.3245 O.2       11 UNK        -0.5029 
     35 CA        -51.5603  -26.9627   13.3211 C.3       10 UNK         0.0280 
     36 CB        -52.8508  -26.1295   13.1493 C.3       10 UNK        -0.1976 
     37 N         -50.7761  -26.4957   14.4712 N.am      10 UNK        -0.4242 
     38 C         -51.0889  -26.6258   15.7707 C.2       10 UNK         0.5072 
     39 O         -52.1699  -27.0546   16.1763 O.2       10 UNK        -0.5224 
     40 CA        -50.0195  -26.2565   16.8160 C.3       9 UNK         0.0343 
     41 CB        -49.4119  -27.5327   17.4232 C.3       9 UNK        -0.2003 
     42 N         -48.9313  -25.4186   16.3086 N.am      9 UNK        -0.4272 
     43 C         -49.0010  -24.0919   16.1395 C.2       9 UNK         0.4988 
     44 O         -50.0231  -23.4346   16.3418 O.2       9 UNK        -0.5108 
     45 CA        -47.7129  -23.3664   15.7092 C.3       8 UNK         0.0248 
     46 CB        -46.4696  -24.2761   15.6108 C.3       8 UNK        -0.2001 
     47 N         -47.9376  -22.7367   14.4136 N.am      8 UNK        -0.4140 
     48 C         -48.1758  -21.4362   14.2040 C.2       8 UNK         0.5028 
     49 O         -48.1662  -20.5841   15.0944 O.2       8 UNK        -0.5428 
     50 CA        -48.4590  -20.9910   12.7551 C.3       7 UNK         0.0264 
     51 CB        -47.2377  -20.2621   12.1704 C.3       7 UNK        -0.1988 
     52 N         -48.8268  -22.0836   11.8514 N.am      7 UNK        -0.4454 
     53 C         -49.9664  -22.7883   11.9081 C.2       7 UNK         0.5027 
     54 O         -50.8696  -22.5707   12.7158 O.2       7 UNK        -0.5083 
     55 CA        -50.0911  -23.9545   10.9042 C.3       6 UNK         0.0844 
     56 C56       -50.5140  -23.4189    9.5094 C.3       14 UNK        -0.0967 
     57 S57       -52.3194  -23.1943    9.3601 S.3       14 UNK        -0.2604 
     58 C58       -52.7594  -24.4508    8.1182 C.3       14 UNK         0.0134 
     59 N         -48.8710  -24.7762   10.8388 N.am      6 UNK        -0.4116 
     60 C         -48.2513  -25.3567   11.8803 C.2       5 UNK         0.5034 
     61 O         -48.6610  -25.3165   13.0385 O.2       5 UNK        -0.5045 
     62 CA        -46.9046  -26.0413   11.6085 C.3       5 UNK         0.0224 
     63 CB        -47.0886  -27.4655   11.0626 C.3       5 UNK        -0.1978 
     64 N         -46.0752  -25.2465   10.7034 N.am      5 UNK        -0.4737 
     65 C         -45.4510  -24.1153   11.0638 C.2       4 UNK         0.5027 
     66 O         -45.4215  -23.6867   12.2165 O.2       4 UNK        -0.5211 
     67 CA        -44.7786  -23.3069    9.9411 C.3       4 UNK         0.0297 
     68 CB        -43.3373  -23.7908    9.7174 C.3       4 UNK        -0.1993 
     69 N         -45.5187  -23.3689    8.6775 N.am      4 UNK        -0.4486 
     70 C         -46.7500  -22.8707    8.4919 C.2       3 UNK         0.4961 
     71 O         -47.3742  -22.2502    9.3518 O.2       3 UNK        -0.5105 
     72 CA        -47.4180  -23.1660    7.1378 C.3       3 UNK         0.0299 
     73 CB        -47.0410  -22.0921    6.1057 C.3       3 UNK        -0.1972 
     74 N         -47.0848  -24.4955    6.6141 N.am      3 UNK        -0.4305 
     75 C         -47.4224  -25.6542    7.1978 C.2       2 UNK         0.5006 
     76 O         -48.0761  -25.7336    8.2401 O.2       2 UNK        -0.5106 
     77 CA        -46.8429  -26.9257    6.5575 C.3       2 UNK         0.0296 
     78 CB        -45.5218  -27.3056    7.2474 C.3       2 UNK        -0.2002 
     79 N         -47.7444  -28.0800    6.5938 N.am      2 UNK        -0.4032 
     80 C         -48.9321  -28.1592    5.9748 C.2       1 UNK         0.5000 
     81 O         -49.4694  -27.2084    5.4030 O.2       1 UNK        -0.5238 
     82 H82       -47.0970  -32.6429    6.4045 H         1 UNK         0.0889 
     83 H83       -45.8248  -31.9083    5.4264 H         1 UNK         0.0889 
     84 H84       -47.0002  -32.9927    4.6777 H         1 UNK         0.0889 
     85 H85       -48.7464  -31.2001    6.8893 H         1 UNK         0.3028 
     86 H86       -50.0301  -29.6051    4.9064 H         1 UNK         0.0864 
     87 H87       -51.4008  -28.7623    6.9074 H         1 UNK         0.0720 
     88 H88       -51.4890  -30.4343    6.4939 H         1 UNK         0.0720 
     89 H89       -49.5356  -28.0708    9.2083 H         1 UNK         0.0814 
     90 H90       -50.2130  -28.8978   10.5901 H         1 UNK         0.0814 
     91 H91       -50.6957  -26.1866    8.5379 H         1 UNK         0.1469 
     92 H92       -54.9491  -25.8481    8.9636 H         1 UNK         0.1381 
     93 H93       -52.9380  -29.4405   10.1671 H         1 UNK         0.1206 
     94 H94       -55.3550  -29.4387    9.8997 H         1 UNK         0.0813 
     95 H95       -56.1344  -28.0967    9.1033 H         1 UNK         0.0813 
     96 H96       -58.4273  -27.5974   10.8534 H         1 UNK         0.0638 
     97 H97       -57.8621  -29.2256   10.5765 H         1 UNK         0.0638 
     98 H98       -58.5047  -28.0207   13.3131 H         1 UNK         0.0568 
     99 H99       -60.6803  -27.4124   12.7867 H         1 UNK         0.3450 
    100 H100      -61.8782  -28.6024   12.3499 H         1 UNK         0.3450 
    101 H101      -56.9173  -30.2578   12.7452 H         1 UNK         0.2987 
    102 H102      -56.7986  -31.3324   16.0701 H         1 UNK         0.0766 
    103 H103      -56.7752  -33.6545   15.1892 H         1 UNK         0.0798 
    104 H104      -57.5454  -33.1236   13.6923 H         1 UNK         0.0798 
    105 H105      -58.4174  -33.0370   15.2157 H         1 UNK         0.0798 
    106 H106      -55.2517  -32.1296   13.8299 H         1 UNK         0.3198 
    107 H107      -52.7055  -30.7888   14.4125 H         1 UNK         0.0843 
    108 H108      -54.2778  -30.6876   11.7683 H         1 UNK         0.0831 
    109 H109      -53.6917  -32.1397   12.5764 H         1 UNK         0.0831 
    110 H110      -52.5496  -31.0138   11.8873 H         1 UNK         0.0831 
    111 H111      -53.7680  -28.2489   13.6812 H         1 UNK         0.3133 
    112 H112      -50.9460  -26.7899   12.4371 H         1 UNK         0.0566 
    113 H113      -52.6178  -25.0694   13.0473 H         1 UNK         0.0814 
    114 H114      -53.3877  -26.4240   12.2466 H         1 UNK         0.0814 
    115 H115      -53.5329  -26.2347   13.9934 H         1 UNK         0.0814 
    116 H116      -49.8681  -26.1064   14.2284 H         1 UNK         0.3091 
    117 H117      -50.5272  -25.7136   17.6164 H         1 UNK         0.0702 
    118 H118      -50.1871  -28.1686   17.8533 H         1 UNK         0.0785 
    119 H119      -48.7093  -27.2976   18.2229 H         1 UNK         0.0785 
    120 H120      -48.8851  -28.1248   16.6736 H         1 UNK         0.0785 
    121 H121      -48.0592  -25.8829   16.1012 H         1 UNK         0.2998 
    122 H122      -47.5086  -22.6088   16.4683 H         1 UNK         0.0697 
    123 H123      -46.5894  -25.0627   14.8654 H         1 UNK         0.0825 
    124 H124      -46.2426  -24.7463   16.5686 H         1 UNK         0.0825 
    125 H125      -45.5901  -23.6975   15.3268 H         1 UNK         0.0825 
    126 H126      -48.0253  -23.3726   13.6307 H         1 UNK         0.3029 
    127 H127      -49.2953  -20.2897   12.7905 H         1 UNK         0.0897 
    128 H128      -47.4459  -19.8755   11.1724 H         1 UNK         0.0792 
    129 H129      -46.3730  -20.9234   12.0990 H         1 UNK         0.0792 
    130 H130      -46.9510  -19.4139   12.7935 H         1 UNK         0.0792 
    131 H131      -48.1725  -22.2884   11.0992 H         1 UNK         0.3086 
    132 H132      -50.8724  -24.6222   11.2714 H         1 UNK         0.0583 
    133 H133      -50.0328  -22.4665    9.2782 H         1 UNK         0.1020 
    134 H134      -50.1763  -24.0876    8.7206 H         1 UNK         0.1020 
    135 H135      -53.7310  -24.1917    7.6949 H         1 UNK         0.0694 
    136 H136      -52.0532  -24.4199    7.2869 H         1 UNK         0.0694 
    137 H137      -48.4743  -24.9212    9.9147 H         1 UNK         0.2989 
    138 H138      -46.3850  -26.1223   12.5662 H         1 UNK         0.1055 
    139 H139      -47.7570  -28.0462   11.7005 H         1 UNK         0.0806 
    140 H140      -46.1374  -27.9964   11.0243 H         1 UNK         0.0806 
    141 H141      -47.5085  -27.4690   10.0593 H         1 UNK         0.0806 
    142 H142      -46.0821  -25.5060    9.7282 H         1 UNK         0.3061 
    143 H143      -44.7457  -22.2628   10.2601 H         1 UNK         0.0734 
    144 H144      -42.8216  -23.1765    8.9790 H         1 UNK         0.0832 
    145 H145      -42.7608  -23.7338   10.6420 H         1 UNK         0.0832 
    146 H146      -43.3041  -24.8266    9.3772 H         1 UNK         0.0832 
    147 H147      -45.0748  -23.8489    7.9087 H         1 UNK         0.3156 
    148 H148      -48.4986  -23.1270    7.2834 H         1 UNK         0.0589 
    149 H149      -45.9716  -22.0912    5.8908 H         1 UNK         0.0808 
    150 H150      -47.5731  -22.2406    5.1659 H         1 UNK         0.0808 
    151 H151      -47.3009  -21.0963    6.4682 H         1 UNK         0.0808 
    152 H152      -46.5421  -24.5215    5.7622 H         1 UNK         0.3098 
    153 H153      -46.6344  -26.7165    5.5062 H         1 UNK         0.0720 
    154 H154      -45.0465  -28.1530    6.7525 H         1 UNK         0.0791 
    155 H155      -45.6731  -27.5728    8.2938 H         1 UNK         0.0791 
    156 H156      -44.8089  -26.4804    7.2205 H         1 UNK         0.0791 
    157 H157      -47.3973  -28.9111    7.0479 H         1 UNK         0.3028 
@<TRIPOS>BOND
     1    1    2 1    
     2    1   82 1    
     3    1   83 1    
     4    1   84 1    
     5    2    3 2    
     6    2    4 am   BACKBONE|DICT|INTERRES
     7    4    5 1    
     8    4   85 1    
     9    5    6 1    
    10    5   80 1    
    11    5   86 1    
    12    6    7 1    
    13    6   87 1    
    14    6   88 1    
    15    7    8 1    
    16    8    9 1    
    17    8   89 1    
    18    8   90 1    
    19    9   10 ar   
    20    9   14 ar   
    21   10   11 ar   
    22   10   91 1    
    23   11   12 ar   
    24   11   58 1    
    25   12   13 ar   
    26   12   92 1    
    27   13   14 ar   
    28   13   15 1    
    29   14   93 1    
    30   15   16 1    
    31   15   94 1    
    32   15   95 1    
    33   16   17 1    
    34   17   18 1    
    35   17   96 1    
    36   17   97 1    
    37   18   19 1    
    38   18   22 1    
    39   18   98 1    
    40   19   20 am   BACKBONE|DICT|INTERRES
    41   19   21 2    
    42   20   99 1    
    43   20  100 1    
    44   22   23 am   BACKBONE|DICT|INTERRES
    45   22  101 1    
    46   23   24 2    
    47   23   25 1    
    48   25   26 1    
    49   25   27 1    
    50   25  102 1    
    51   26  103 1    
    52   26  104 1    
    53   26  105 1    
    54   27   28 am   BACKBONE|DICT|INTERRES
    55   27  106 1    
    56   28   29 2    
    57   28   30 1    
    58   30   31 1    
    59   30   32 1    
    60   30  107 1    
    61   31  108 1    
    62   31  109 1    
    63   31  110 1    
    64   32   33 am   BACKBONE|DICT|INTERRES
    65   32  111 1    
    66   33   34 2    
    67   33   35 1    
    68   35   36 1    
    69   35   37 1    
    70   35  112 1    
    71   36  113 1    
    72   36  114 1    
    73   36  115 1    
    74   37   38 am   BACKBONE|DICT|INTERRES
    75   37  116 1    
    76   38   39 2    
    77   38   40 1    
    78   40   41 1    
    79   40   42 1    
    80   40  117 1    
    81   41  118 1    
    82   41  119 1    
    83   41  120 1    
    84   42   43 am   BACKBONE|DICT|INTERRES
    85   42  121 1    
    86   43   44 2    
    87   43   45 1    
    88   45   46 1    
    89   45   47 1    
    90   45  122 1    
    91   46  123 1    
    92   46  124 1    
    93   46  125 1    
    94   47   48 am   BACKBONE|DICT|INTERRES
    95   47  126 1    
    96   48   49 2    
    97   48   50 1    
    98   50   51 1    
    99   50   52 1    
   100   50  127 1    
   101   51  128 1    
   102   51  129 1    
   103   51  130 1    
   104   52   53 am   BACKBONE|DICT|INTERRES
   105   52  131 1    
   106   53   54 2    
   107   53   55 1    
   108   55   56 1    
   109   55   59 1    
   110   55  132 1    
   111   56   57 1    
   112   56  133 1    
   113   56  134 1    
   114   57   58 1    
   115   58  135 1    
   116   58  136 1    
   117   59   60 am   BACKBONE|DICT|INTERRES
   118   59  137 1    
   119   60   61 2    
   120   60   62 1    
   121   62   63 1    
   122   62   64 1    
   123   62  138 1    
   124   63  139 1    
   125   63  140 1    
   126   63  141 1    
   127   64   65 am   BACKBONE|DICT|INTERRES
   128   64  142 1    
   129   65   66 2    
   130   65   67 1    
   131   67   68 1    
   132   67   69 1    
   133   67  143 1    
   134   68  144 1    
   135   68  145 1    
   136   68  146 1    
   137   69   70 am   BACKBONE|DICT|INTERRES
   138   69  147 1    
   139   70   71 2    
   140   70   72 1    
   141   72   73 1    
   142   72   74 1    
   143   72  148 1    
   144   73  149 1    
   145   73  150 1    
   146   73  151 1    
   147   74   75 am   BACKBONE|DICT|INTERRES
   148   74  152 1    
   149   75   76 2    
   150   75   77 1    
   151   77   78 1    
   152   77   79 1    
   153   77  153 1    
   154   78  154 1    
   155   78  155 1    
   156   78  156 1    
   157   79   80 am   BACKBONE|DICT|INTERRES
   158   79  157 1    
   159   80   81 2    
@<TRIPOS>SUBSTRUCTURE
     1 UNK         1 GROUP             0       ****    0 ROOT    
