@<TRIPOS>MOLECULE
3R207
157   159    1
SMALL
USER_CHARGES


@<TRIPOS>ATOM
      1 CA        -48.6892  -30.6497    2.3715 C.3       0 UNK        -0.1975 
      2 C         -48.8631  -29.6165    3.4745 C.2       0 UNK         0.4852 
      3 O         -48.9545  -28.4212    3.1874 O.2       0 UNK        -0.5216 
      4 N         -48.9069  -30.0622    4.7365 N.am      1 UNK        -0.4461 
      5 CA        -49.0653  -29.2197    5.9268 C.3       1 UNK         0.0864 
      6 C6        -49.6577  -30.0108    7.1214 C.3       14 UNK        -0.0898 
      7 S7        -51.3278  -30.6522    6.7626 S.3       14 UNK        -0.2598 
      8 C8        -52.2201  -30.2570    8.3088 C.3       14 UNK         0.0286 
      9 C9        -52.6511  -28.7995    8.5049 C.ar      14 UNK        -0.0844 
     10 C10       -52.3693  -27.7758    7.5894 C.ar      14 UNK        -0.0881 
     11 C11       -52.8001  -26.4653    7.8224 C.ar      14 UNK        -0.0643 
     12 C12       -53.5453  -26.1797    8.9699 C.ar      14 UNK        -0.0930 
     13 C13       -53.8241  -27.1847    9.8995 C.ar      14 UNK        -0.0827 
     14 C14       -53.3734  -28.4856    9.6598 C.ar      14 UNK        -0.1249 
     15 C15       -54.5988  -26.8711   11.1699 C.3       14 UNK         0.0141 
     16 S16       -56.3072  -27.4891   11.0663 S.3       14 UNK        -0.2313 
     17 C17       -56.8629  -27.2829   12.7944 C.3       14 UNK        -0.0915 
     18 CA        -56.9304  -28.6112   13.5973 C.3       13 UNK         0.0968 
     19 C         -58.1338  -29.5069   13.1809 C.2       13 UNK         0.5732 
     20 N         -57.9268  -30.7471   12.7536 N.am      13 UNK        -0.7310 
     21 O         -59.2807  -29.0735   13.2658 O.2       13 UNK        -0.5035 
     22 N         -55.6268  -29.2910   13.6112 N.am      13 UNK        -0.4233 
     23 C         -55.1701  -30.0716   14.5960 C.2       13 UNK         0.4989 
     24 O         -55.8113  -30.3447   15.6116 O.2       13 UNK        -0.4996 
     25 CA        -53.7489  -30.6294   14.4400 C.3       12 UNK         0.0216 
     26 CB        -53.1874  -30.5750   13.0028 C.3       12 UNK        -0.1964 
     27 N         -52.8711  -29.8788   15.3316 N.am      12 UNK        -0.4276 
     28 C         -51.8670  -30.3997   16.0489 C.2       12 UNK         0.5020 
     29 O         -51.5670  -31.5948   16.0293 O.2       12 UNK        -0.5489 
     30 CA        -51.0358  -29.4441   16.9295 C.3       11 UNK         0.0294 
     31 CB        -49.6305  -29.2550   16.3338 C.3       11 UNK        -0.2019 
     32 N         -51.6574  -28.1301   17.1160 N.am      11 UNK        -0.4493 
     33 C         -52.7109  -27.8980   17.9148 C.2       11 UNK         0.4932 
     34 O         -53.2044  -28.7536   18.6497 O.2       11 UNK        -0.5029 
     35 CA        -53.3432  -26.4911   17.8871 C.3       10 UNK         0.0280 
     36 CB        -52.9154  -25.6883   19.1264 C.3       10 UNK        -0.1976 
     37 N         -53.0418  -25.7082   16.6848 N.am      10 UNK        -0.4242 
     38 C         -53.3423  -26.0575   15.4255 C.2       10 UNK         0.5072 
     39 O         -53.9533  -27.0825   15.1276 O.2       10 UNK        -0.5224 
     40 CA        -52.8221  -25.1424   14.3043 C.3       9 UNK         0.0343 
     41 CB        -53.8959  -24.1146   13.9149 C.3       9 UNK        -0.2003 
     42 N         -51.5684  -24.4422   14.6099 N.am      9 UNK        -0.4272 
     43 C         -50.4141  -25.0093   14.9927 C.2       9 UNK         0.4988 
     44 O         -50.3009  -26.2066   15.2625 O.2       9 UNK        -0.5108 
     45 CA        -49.1913  -24.0771   15.1065 C.3       8 UNK         0.0248 
     46 CB        -47.8940  -24.8482   15.4149 C.3       8 UNK        -0.2001 
     47 N         -48.9986  -23.2789   13.8912 N.am      8 UNK        -0.4140 
     48 C         -49.6717  -22.1581   13.5944 C.2       8 UNK         0.5028 
     49 O         -50.5222  -21.6622   14.3351 O.2       8 UNK        -0.5428 
     50 CA        -49.3959  -21.5157   12.2263 C.3       7 UNK         0.0264 
     51 CB        -47.9957  -20.8819   12.1818 C.3       7 UNK        -0.1988 
     52 N         -49.5459  -22.4776   11.1332 N.am      7 UNK        -0.4454 
     53 C         -50.7097  -23.0288   10.7540 C.2       7 UNK         0.5027 
     54 O         -51.8017  -22.6995   11.2176 O.2       7 UNK        -0.5083 
     55 CA        -50.6520  -24.1503    9.6962 C.3       6 UNK         0.0844 
     56 C56       -50.7599  -23.5793    8.2617 C.3       14 UNK        -0.0967 
     57 S57       -50.7164  -24.8534    6.9521 S.3       14 UNK        -0.2604 
     58 C58       -52.4611  -25.3663    6.8244 C.3       14 UNK         0.0134 
     59 N         -49.4940  -25.0238    9.8947 N.am      6 UNK        -0.4116 
     60 C         -49.3621  -25.8569   10.9373 C.2       5 UNK         0.5034 
     61 O         -50.2288  -26.0333   11.7918 O.2       5 UNK        -0.5045 
     62 CA        -48.0283  -26.6031   11.0669 C.3       5 UNK         0.0224 
     63 CB        -48.0869  -27.9320   10.3017 C.3       5 UNK        -0.1978 
     64 N         -46.8996  -25.8003   10.5885 N.am      5 UNK        -0.4737 
     65 C         -46.3895  -24.7579   11.2591 C.2       4 UNK         0.5027 
     66 O         -46.8054  -24.3817   12.3540 O.2       4 UNK        -0.5211 
     67 CA        -45.2537  -23.9759   10.5779 C.3       4 UNK         0.0297 
     68 CB        -43.9086  -24.6930   10.7736 C.3       4 UNK        -0.1993 
     69 N         -45.4899  -23.7507    9.1502 N.am      4 UNK        -0.4486 
     70 C         -46.5083  -23.0341    8.6550 C.2       3 UNK         0.4961 
     71 O         -47.3408  -22.4557    9.3509 O.2       3 UNK        -0.5105 
     72 CA        -46.6540  -22.9815    7.1258 C.3       3 UNK         0.0299 
     73 CB        -45.8746  -21.7858    6.5562 C.3       3 UNK        -0.1972 
     74 N         -46.2583  -24.2061    6.4197 N.am      3 UNK        -0.4305 
     75 C         -46.7420  -25.4341    6.6549 C.2       2 UNK         0.5006 
     76 O         -47.4771  -25.7107    7.6057 O.2       2 UNK        -0.5106 
     77 CA        -46.3167  -26.5181    5.6507 C.3       2 UNK         0.0296 
     78 CB        -44.9498  -27.1303    6.0192 C.3       2 UNK        -0.2002 
     79 N         -47.3677  -27.5274    5.4716 N.am      2 UNK        -0.4032 
     80 C         -47.7316  -28.5306    6.2838 C.2       1 UNK         0.5000 
     81 O         -47.0730  -28.9302    7.2460 O.2       1 UNK        -0.5238 
     82 H82       -49.5307  -30.6052    1.6807 H         1 UNK         0.0889 
     83 H83       -48.6293  -31.6632    2.7679 H         1 UNK         0.0889 
     84 H84       -47.7765  -30.4497    1.8109 H         1 UNK         0.0889 
     85 H85       -48.8169  -31.0520    4.9168 H         1 UNK         0.3028 
     86 H86       -49.7706  -28.4206    5.6891 H         1 UNK         0.0864 
     87 H87       -49.0146  -30.8504    7.3917 H         1 UNK         0.0720 
     88 H88       -49.7116  -29.3707    8.0040 H         1 UNK         0.0720 
     89 H89       -51.6077  -30.5667    9.1572 H         1 UNK         0.0814 
     90 H90       -53.1148  -30.8805    8.3377 H         1 UNK         0.0814 
     91 H91       -51.8134  -27.9811    6.6879 H         1 UNK         0.1469 
     92 H92       -53.8897  -25.1705    9.1496 H         1 UNK         0.1381 
     93 H93       -53.6002  -29.2653   10.3727 H         1 UNK         0.1206 
     94 H94       -54.0895  -27.3200   12.0235 H         1 UNK         0.0813 
     95 H95       -54.6167  -25.7960   11.3552 H         1 UNK         0.0813 
     96 H96       -57.8349  -26.7867   12.7861 H         1 UNK         0.0638 
     97 H97       -56.1922  -26.5899   13.3036 H         1 UNK         0.0638 
     98 H98       -57.1481  -28.3259   14.6283 H         1 UNK         0.0568 
     99 H99       -56.9925  -31.1149   12.6835 H         1 UNK         0.3450 
    100 H100      -58.7161  -31.3174   12.4944 H         1 UNK         0.3450 
    101 H101      -55.0441  -29.1277   12.8057 H         1 UNK         0.2987 
    102 H102      -53.7950  -31.6751   14.7520 H         1 UNK         0.0766 
    103 H103      -53.8635  -31.0497   12.2903 H         1 UNK         0.0798 
    104 H104      -52.2377  -31.1067   12.9401 H         1 UNK         0.0798 
    105 H105      -53.0053  -29.5513   12.6745 H         1 UNK         0.0798 
    106 H106      -53.0955  -28.8920   15.4337 H         1 UNK         0.3198 
    107 H107      -50.9281  -29.9153   17.9089 H         1 UNK         0.0843 
    108 H108      -49.0205  -28.5950   16.9508 H         1 UNK         0.0831 
    109 H109      -49.6726  -28.8311   15.3297 H         1 UNK         0.0831 
    110 H110      -49.1057  -30.2085   16.2616 H         1 UNK         0.0831 
    111 H111      -51.2972  -27.3767   16.5351 H         1 UNK         0.3133 
    112 H112      -54.4262  -26.6255   17.9228 H         1 UNK         0.0566 
    113 H113      -53.4283  -24.7276   19.1757 H         1 UNK         0.0814 
    114 H114      -51.8412  -25.4986   19.1330 H         1 UNK         0.0814 
    115 H115      -53.1559  -26.2278   20.0438 H         1 UNK         0.0814 
    116 H116      -52.5234  -24.8527   16.8204 H         1 UNK         0.3091 
    117 H117      -52.6241  -25.7771   13.4382 H         1 UNK         0.0702 
    118 H118      -53.6003  -23.5479   13.0323 H         1 UNK         0.0785 
    119 H119      -54.0858  -23.4050   14.7211 H         1 UNK         0.0785 
    120 H120      -54.8424  -24.6026   13.6807 H         1 UNK         0.0785 
    121 H121      -51.5495  -23.4437   14.4297 H         1 UNK         0.2998 
    122 H122      -49.3788  -23.4028   15.9446 H         1 UNK         0.0697 
    123 H123      -47.6716  -25.5842   14.6412 H         1 UNK         0.0825 
    124 H124      -47.9724  -25.3846   16.3614 H         1 UNK         0.0825 
    125 H125      -47.0396  -24.1758   15.4923 H         1 UNK         0.0825 
    126 H126      -48.3155  -23.6372   13.2265 H         1 UNK         0.3029 
    127 H127      -50.1305  -20.7210   12.0785 H         1 UNK         0.0897 
    128 H128      -47.2068  -21.6285   12.2778 H         1 UNK         0.0792 
    129 H129      -47.8663  -20.1622   12.9911 H         1 UNK         0.0792 
    130 H130      -47.8344  -20.3486   11.2448 H         1 UNK         0.0792 
    131 H131      -48.6980  -22.7267   10.6288 H         1 UNK         0.3086 
    132 H132      -51.5336  -24.7644    9.8693 H         1 UNK         0.0583 
    133 H133      -51.6742  -22.9928    8.1526 H         1 UNK         0.1020 
    134 H134      -49.9385  -22.8859    8.0728 H         1 UNK         0.1020 
    135 H135      -53.1171  -24.5037    6.9501 H         1 UNK         0.0694 
    136 H136      -52.6405  -25.7370    5.8142 H         1 UNK         0.0694 
    137 H137      -48.7645  -24.9962    9.1913 H         1 UNK         0.2989 
    138 H138      -47.8722  -26.8228   12.1258 H         1 UNK         0.1055 
    139 H139      -48.3041  -27.7683    9.2467 H         1 UNK         0.0806 
    140 H140      -47.1474  -28.4801   10.3717 H         1 UNK         0.0806 
    141 H141      -48.8732  -28.5760   10.6979 H         1 UNK         0.0806 
    142 H142      -46.5741  -25.9884    9.6483 H         1 UNK         0.3061 
    143 H143      -45.1917  -22.9985   11.0615 H         1 UNK         0.0734 
    144 H144      -43.8931  -25.6682   10.2853 H         1 UNK         0.0832 
    145 H145      -43.0824  -24.1037   10.3755 H         1 UNK         0.0832 
    146 H146      -43.7062  -24.8565   11.8331 H         1 UNK         0.0832 
    147 H147      -44.8606  -24.1985    8.5003 H         1 UNK         0.3156 
    148 H148      -47.7132  -22.8248    6.9122 H         1 UNK         0.0589 
    149 H149      -46.0678  -21.6549    5.4913 H         1 UNK         0.0808 
    150 H150      -46.1667  -20.8582    7.0511 H         1 UNK         0.0808 
    151 H151      -44.7987  -21.9023    6.6922 H         1 UNK         0.0808 
    152 H152      -45.6413  -24.0808    5.6297 H         1 UNK         0.3098 
    153 H153      -46.2138  -26.0419    4.6744 H         1 UNK         0.0720 
    154 H154      -44.1574  -26.3850    5.9437 H         1 UNK         0.0791 
    155 H155      -44.6880  -27.9505    5.3508 H         1 UNK         0.0791 
    156 H156      -44.9327  -27.5102    7.0413 H         1 UNK         0.0791 
    157 H157      -47.9707  -27.3756    4.6691 H         1 UNK         0.3028 
@<TRIPOS>BOND
     1    1    2 1    
     2    1   82 1    
     3    1   83 1    
     4    1   84 1    
     5    2    3 2    
     6    2    4 am   BACKBONE|DICT|INTERRES
     7    4    5 1    
     8    4   85 1    
     9    5    6 1    
    10    5   80 1    
    11    5   86 1    
    12    6    7 1    
    13    6   87 1    
    14    6   88 1    
    15    7    8 1    
    16    8    9 1    
    17    8   89 1    
    18    8   90 1    
    19    9   10 ar   
    20    9   14 ar   
    21   10   11 ar   
    22   10   91 1    
    23   11   12 ar   
    24   11   58 1    
    25   12   13 ar   
    26   12   92 1    
    27   13   14 ar   
    28   13   15 1    
    29   14   93 1    
    30   15   16 1    
    31   15   94 1    
    32   15   95 1    
    33   16   17 1    
    34   17   18 1    
    35   17   96 1    
    36   17   97 1    
    37   18   19 1    
    38   18   22 1    
    39   18   98 1    
    40   19   20 am   BACKBONE|DICT|INTERRES
    41   19   21 2    
    42   20   99 1    
    43   20  100 1    
    44   22   23 am   BACKBONE|DICT|INTERRES
    45   22  101 1    
    46   23   24 2    
    47   23   25 1    
    48   25   26 1    
    49   25   27 1    
    50   25  102 1    
    51   26  103 1    
    52   26  104 1    
    53   26  105 1    
    54   27   28 am   BACKBONE|DICT|INTERRES
    55   27  106 1    
    56   28   29 2    
    57   28   30 1    
    58   30   31 1    
    59   30   32 1    
    60   30  107 1    
    61   31  108 1    
    62   31  109 1    
    63   31  110 1    
    64   32   33 am   BACKBONE|DICT|INTERRES
    65   32  111 1    
    66   33   34 2    
    67   33   35 1    
    68   35   36 1    
    69   35   37 1    
    70   35  112 1    
    71   36  113 1    
    72   36  114 1    
    73   36  115 1    
    74   37   38 am   BACKBONE|DICT|INTERRES
    75   37  116 1    
    76   38   39 2    
    77   38   40 1    
    78   40   41 1    
    79   40   42 1    
    80   40  117 1    
    81   41  118 1    
    82   41  119 1    
    83   41  120 1    
    84   42   43 am   BACKBONE|DICT|INTERRES
    85   42  121 1    
    86   43   44 2    
    87   43   45 1    
    88   45   46 1    
    89   45   47 1    
    90   45  122 1    
    91   46  123 1    
    92   46  124 1    
    93   46  125 1    
    94   47   48 am   BACKBONE|DICT|INTERRES
    95   47  126 1    
    96   48   49 2    
    97   48   50 1    
    98   50   51 1    
    99   50   52 1    
   100   50  127 1    
   101   51  128 1    
   102   51  129 1    
   103   51  130 1    
   104   52   53 am   BACKBONE|DICT|INTERRES
   105   52  131 1    
   106   53   54 2    
   107   53   55 1    
   108   55   56 1    
   109   55   59 1    
   110   55  132 1    
   111   56   57 1    
   112   56  133 1    
   113   56  134 1    
   114   57   58 1    
   115   58  135 1    
   116   58  136 1    
   117   59   60 am   BACKBONE|DICT|INTERRES
   118   59  137 1    
   119   60   61 2    
   120   60   62 1    
   121   62   63 1    
   122   62   64 1    
   123   62  138 1    
   124   63  139 1    
   125   63  140 1    
   126   63  141 1    
   127   64   65 am   BACKBONE|DICT|INTERRES
   128   64  142 1    
   129   65   66 2    
   130   65   67 1    
   131   67   68 1    
   132   67   69 1    
   133   67  143 1    
   134   68  144 1    
   135   68  145 1    
   136   68  146 1    
   137   69   70 am   BACKBONE|DICT|INTERRES
   138   69  147 1    
   139   70   71 2    
   140   70   72 1    
   141   72   73 1    
   142   72   74 1    
   143   72  148 1    
   144   73  149 1    
   145   73  150 1    
   146   73  151 1    
   147   74   75 am   BACKBONE|DICT|INTERRES
   148   74  152 1    
   149   75   76 2    
   150   75   77 1    
   151   77   78 1    
   152   77   79 1    
   153   77  153 1    
   154   78  154 1    
   155   78  155 1    
   156   78  156 1    
   157   79   80 am   BACKBONE|DICT|INTERRES
   158   79  157 1    
   159   80   81 2    
@<TRIPOS>SUBSTRUCTURE
     1 UNK         1 GROUP             0       ****    0 ROOT    
