@<TRIPOS>MOLECULE
3R207
157   159    1
SMALL
USER_CHARGES


@<TRIPOS>ATOM
      1 CA        -48.3997  -30.0815    4.1994 C.3       0 UNK        -0.1975 
      2 C         -48.9893  -28.7797    3.6784 C.2       0 UNK         0.4852 
      3 O         -48.6929  -28.3741    2.5542 O.2       0 UNK        -0.5216 
      4 N         -49.7999  -28.0993    4.4982 N.am      1 UNK        -0.4461 
      5 CA        -50.4904  -26.8326    4.2102 C.3       1 UNK         0.0864 
      6 C6        -51.7567  -26.6824    5.0997 C.3       14 UNK        -0.0898 
      7 S7        -51.4249  -26.8409    6.8925 S.3       14 UNK        -0.2598 
      8 C8        -52.0514  -28.5132    7.2362 C.3       14 UNK         0.0286 
      9 C9        -51.6264  -29.0015    8.6141 C.ar      14 UNK        -0.0844 
     10 C10       -50.3167  -29.4422    8.8303 C.ar      14 UNK        -0.0881 
     11 C11       -49.9306  -29.9484   10.0753 C.ar      14 UNK        -0.0643 
     12 C12       -50.8685  -30.0128   11.1102 C.ar      14 UNK        -0.0930 
     13 C13       -52.1833  -29.5757   10.9085 C.ar      14 UNK        -0.0827 
     14 C14       -52.5498  -29.0551    9.6623 C.ar      14 UNK        -0.1249 
     15 C15       -53.1939  -29.6500   12.0469 C.3       14 UNK         0.0141 
     16 S16       -54.7281  -30.5133   11.5845 S.3       14 UNK        -0.2313 
     17 C17       -55.6701  -30.4177   13.1460 C.3       14 UNK        -0.0915 
     18 CA        -56.7613  -29.3131   13.1097 C.3       13 UNK         0.0968 
     19 C         -57.7816  -29.4645   14.2708 C.2       13 UNK         0.5732 
     20 N         -58.5503  -30.5459   14.2769 N.am      13 UNK        -0.7310 
     21 O         -57.8997  -28.6251   15.1611 O.2       13 UNK        -0.5035 
     22 N         -56.1515  -27.9760   13.0945 N.am      13 UNK        -0.4233 
     23 C         -56.3501  -27.0468   12.1517 C.2       13 UNK         0.4989 
     24 O         -57.0943  -27.2088   11.1826 O.2       13 UNK        -0.4996 
     25 CA        -55.5574  -25.7281   12.2701 C.3       12 UNK         0.0216 
     26 CB        -56.3178  -24.5166   11.6889 C.3       12 UNK        -0.1964 
     27 N         -55.0498  -25.4392   13.6160 N.am      12 UNK        -0.4276 
     28 C         -55.7514  -25.1785   14.7268 C.2       12 UNK         0.5020 
     29 O         -56.9816  -25.1118   14.7612 O.2       12 UNK        -0.5489 
     30 CA        -54.9292  -24.9587   16.0160 C.3       11 UNK         0.0294 
     31 CB        -55.7994  -25.0188   17.2891 C.3       11 UNK        -0.2019 
     32 N         -53.7708  -25.8541   16.1609 N.am      11 UNK        -0.4493 
     33 C         -53.7688  -27.1970   16.1284 C.2       11 UNK         0.4932 
     34 O         -54.7637  -27.8705   15.8596 O.2       11 UNK        -0.5029 
     35 CA        -52.4469  -27.9259   16.4438 C.3       10 UNK         0.0280 
     36 CB        -52.2197  -29.1179   15.5040 C.3       10 UNK        -0.1976 
     37 N         -51.2749  -27.0529   16.3702 N.am      10 UNK        -0.4242 
     38 C         -50.7145  -26.4235   17.4103 C.2       10 UNK         0.5072 
     39 O         -51.1220  -26.5104   18.5693 O.2       10 UNK        -0.5224 
     40 CA        -49.5079  -25.5191   17.1020 C.3       9 UNK         0.0343 
     41 CB        -48.2120  -26.3441   17.0687 C.3       9 UNK        -0.2003 
     42 N         -49.6442  -24.7628   15.8522 N.am      9 UNK        -0.4272 
     43 C         -50.6156  -23.8694   15.6075 C.2       9 UNK         0.4988 
     44 O         -51.5130  -23.5934   16.4050 O.2       9 UNK        -0.5108 
     45 CA        -50.6087  -23.1929   14.2283 C.3       8 UNK         0.0248 
     46 CB        -49.5279  -22.1021   14.1620 C.3       8 UNK        -0.2001 
     47 N         -50.4260  -24.1457   13.1320 N.am      8 UNK        -0.4140 
     48 C         -51.2865  -25.1298   12.8339 C.2       8 UNK         0.5028 
     49 O         -52.3430  -25.3194   13.4331 O.2       8 UNK        -0.5428 
     50 CA        -50.8833  -26.1035   11.7180 C.3       7 UNK         0.0264 
     51 CB        -51.0352  -25.4577   10.3357 C.3       7 UNK        -0.1988 
     52 N         -49.5226  -26.6115   11.8861 N.am      7 UNK        -0.4454 
     53 C         -49.1080  -27.3131   12.9521 C.2       7 UNK         0.5027 
     54 O         -49.8374  -27.6346   13.8900 O.2       7 UNK        -0.5083 
     55 CA        -47.6126  -27.6635   13.0269 C.3       6 UNK         0.0844 
     56 C56       -47.2991  -29.0608   12.4371 C.3       14 UNK        -0.0967 
     57 S57       -47.3141  -29.1490   10.6141 S.3       14 UNK        -0.2604 
     58 C58       -48.5154  -30.4754   10.2739 C.3       14 UNK         0.0134 
     59 N         -46.7709  -26.5865   12.4950 N.am      6 UNK        -0.4116 
     60 C         -46.6315  -25.3928   13.0920 C.2       5 UNK         0.5034 
     61 O         -47.1750  -25.0879   14.1552 O.2       5 UNK        -0.5045 
     62 CA        -45.7702  -24.3492   12.3637 C.3       5 UNK         0.0224 
     63 CB        -44.2848  -24.7466   12.3794 C.3       5 UNK        -0.1978 
     64 N         -46.2033  -24.1033   10.9856 N.am      5 UNK        -0.4737 
     65 C         -47.4045  -23.6225   10.6335 C.2       4 UNK         0.5027 
     66 O         -48.2944  -23.3532   11.4374 O.2       4 UNK        -0.5211 
     67 CA        -47.6673  -23.4035    9.1336 C.3       4 UNK         0.0297 
     68 CB        -47.3695  -21.9469    8.7458 C.3       4 UNK        -0.1993 
     69 N         -46.9170  -24.3009    8.2527 N.am      4 UNK        -0.4486 
     70 C         -47.0370  -25.6334    8.2261 C.2       3 UNK         0.4961 
     71 O         -47.7719  -26.2650    8.9857 O.2       3 UNK        -0.5105 
     72 CA        -46.2032  -26.3599    7.1527 C.3       3 UNK         0.0299 
     73 CB        -46.1847  -27.8865    7.3471 C.3       3 UNK        -0.1972 
     74 N         -46.7037  -26.0670    5.8101 N.am      3 UNK        -0.4305 
     75 C         -46.5305  -24.9250    5.1280 C.2       2 UNK         0.5006 
     76 O         -45.8565  -23.9803    5.5426 O.2       2 UNK        -0.5106 
     77 CA        -47.2337  -24.8115    3.7608 C.3       2 UNK         0.0296 
     78 CB        -46.2371  -25.0733    2.6202 C.3       2 UNK        -0.2002 
     79 N         -48.3658  -25.7340    3.6313 N.am      2 UNK        -0.4032 
     80 C         -49.5355  -25.6124    4.2743 C.2       1 UNK         0.5000 
     81 O         -49.8414  -24.6073    4.9189 O.2       1 UNK        -0.5238 
     82 H82       -48.7409  -30.3098    5.2091 H         1 UNK         0.0889 
     83 H83       -47.3117  -30.0215    4.2144 H         1 UNK         0.0889 
     84 H84       -48.6865  -30.9081    3.5500 H         1 UNK         0.0889 
     85 H85       -49.9713  -28.4569    5.4264 H         1 UNK         0.3028 
     86 H86       -50.8370  -26.8737    3.1751 H         1 UNK         0.0864 
     87 H87       -52.2446  -25.7225    4.9207 H         1 UNK         0.0720 
     88 H88       -52.4934  -27.4331    4.8095 H         1 UNK         0.0720 
     89 H89       -51.6869  -29.2110    6.4815 H         1 UNK         0.0814 
     90 H90       -53.1390  -28.5100    7.1480 H         1 UNK         0.0814 
     91 H91       -49.5959  -29.3998    8.0259 H         1 UNK         0.1469 
     92 H92       -50.5738  -30.4089   12.0723 H         1 UNK         0.1381 
     93 H93       -53.5635  -28.7130    9.5038 H         1 UNK         0.1206 
     94 H94       -53.4258  -28.6406   12.3886 H         1 UNK         0.0813 
     95 H95       -52.7624  -30.1892   12.8896 H         1 UNK         0.0813 
     96 H96       -56.1170  -31.4015   13.2977 H         1 UNK         0.0638 
     97 H97       -54.9922  -30.2639   13.9873 H         1 UNK         0.0638 
     98 H98       -57.3449  -29.4559   12.1985 H         1 UNK         0.0568 
     99 H99       -58.4783  -31.2430   13.5524 H         1 UNK         0.3450 
    100 H100      -59.2211  -30.6631   15.0200 H         1 UNK         0.3450 
    101 H101      -55.6168  -27.7393   13.9232 H         1 UNK         0.2987 
    102 H102      -54.6676  -25.8731   11.6555 H         1 UNK         0.0766 
    103 H103      -57.2641  -24.3475   12.2034 H         1 UNK         0.0798 
    104 H104      -55.7262  -23.6042   11.7639 H         1 UNK         0.0798 
    105 H105      -56.5457  -24.6657   10.6328 H         1 UNK         0.0798 
    106 H106      -54.0281  -25.4457   13.6924 H         1 UNK         0.3198 
    107 H107      -54.5211  -23.9494   15.9417 H         1 UNK         0.0843 
    108 H108      -56.2742  -25.9941   17.4038 H         1 UNK         0.0831 
    109 H109      -56.5933  -24.2715   17.2583 H         1 UNK         0.0831 
    110 H110      -55.2087  -24.8245   18.1842 H         1 UNK         0.0831 
    111 H111      -52.8867  -25.3871   16.3255 H         1 UNK         0.3133 
    112 H112      -52.5451  -28.3222   17.4563 H         1 UNK         0.0566 
    113 H113      -51.3134  -29.6638   15.7665 H         1 UNK         0.0814 
    114 H114      -53.0477  -29.8265   15.5410 H         1 UNK         0.0814 
    115 H115      -52.1143  -28.7739   14.4775 H         1 UNK         0.0814 
    116 H116      -50.8450  -26.9609   15.4529 H         1 UNK         0.3091 
    117 H117      -49.4266  -24.7929   17.9134 H         1 UNK         0.0702 
    118 H118      -47.3389  -25.7071   16.9257 H         1 UNK         0.0785 
    119 H119      -48.2254  -27.0802   16.2647 H         1 UNK         0.0785 
    120 H120      -48.0690  -26.8852   18.0049 H         1 UNK         0.0785 
    121 H121      -48.9279  -24.9135   15.1476 H         1 UNK         0.2998 
    122 H122      -51.5808  -22.7151   14.0896 H         1 UNK         0.0697 
    123 H123      -48.5241  -22.5222   14.2397 H         1 UNK         0.0825 
    124 H124      -49.6467  -21.3819   14.9725 H         1 UNK         0.0825 
    125 H125      -49.5837  -21.5479   13.2249 H         1 UNK         0.0825 
    126 H126      -49.5892  -24.0286   12.5624 H         1 UNK         0.3029 
    127 H127      -51.5556  -26.9611   11.7666 H         1 UNK         0.0897 
    128 H128      -50.4774  -24.5258   10.2554 H         1 UNK         0.0792 
    129 H129      -52.0811  -25.2343   10.1225 H         1 UNK         0.0792 
    130 H130      -50.6772  -26.1279    9.5555 H         1 UNK         0.0792 
    131 H131      -48.8646  -26.4226   11.1397 H         1 UNK         0.3086 
    132 H132      -47.3800  -27.7341   14.0916 H         1 UNK         0.0583 
    133 H133      -46.3044  -29.3671   12.7643 H         1 UNK         0.1020 
    134 H134      -47.9775  -29.8065   12.8559 H         1 UNK         0.1020 
    135 H135      -48.2003  -30.9932    9.3667 H         1 UNK         0.0694 
    136 H136      -48.4865  -31.2256   11.0653 H         1 UNK         0.0694 
    137 H137      -46.3389  -26.7509   11.5971 H         1 UNK         0.2989 
    138 H138      -45.8744  -23.4097   12.9115 H         1 UNK         0.1055 
    139 H139      -43.9428  -24.9364   13.3980 H         1 UNK         0.0806 
    140 H140      -43.6585  -23.9516   11.9742 H         1 UNK         0.0806 
    141 H141      -44.0961  -25.6502   11.7985 H         1 UNK         0.0806 
    142 H142      -45.5381  -24.2962   10.2511 H         1 UNK         0.3061 
    143 H143      -48.7281  -23.5904    8.9574 H         1 UNK         0.0734 
    144 H144      -46.3135  -21.7035    8.8698 H         1 UNK         0.0832 
    145 H145      -47.6415  -21.7483    7.7088 H         1 UNK         0.0832 
    146 H146      -47.9391  -21.2540    9.3669 H         1 UNK         0.0832 
    147 H147      -46.3372  -23.8728    7.5379 H         1 UNK         0.3156 
    148 H148      -45.1746  -26.0012    7.2289 H         1 UNK         0.0589 
    149 H149      -47.1886  -28.3130    7.3276 H         1 UNK         0.0808 
    150 H150      -45.5932  -28.3809    6.5764 H         1 UNK         0.0808 
    151 H151      -45.7389  -28.1454    8.3077 H         1 UNK         0.0808 
    152 H152      -47.2979  -26.7690    5.3979 H         1 UNK         0.3098 
    153 H153      -47.6069  -23.7897    3.6654 H         1 UNK         0.0720 
    154 H154      -46.7045  -24.9322    1.6454 H         1 UNK         0.0791 
    155 H155      -45.8371  -26.0875    2.6572 H         1 UNK         0.0791 
    156 H156      -45.3914  -24.3862    2.6752 H         1 UNK         0.0791 
    157 H157      -48.2194  -26.5847    3.0934 H         1 UNK         0.3028 
@<TRIPOS>BOND
     1    1    2 1    
     2    1   82 1    
     3    1   83 1    
     4    1   84 1    
     5    2    3 2    
     6    2    4 am   BACKBONE|DICT|INTERRES
     7    4    5 1    
     8    4   85 1    
     9    5    6 1    
    10    5   80 1    
    11    5   86 1    
    12    6    7 1    
    13    6   87 1    
    14    6   88 1    
    15    7    8 1    
    16    8    9 1    
    17    8   89 1    
    18    8   90 1    
    19    9   10 ar   
    20    9   14 ar   
    21   10   11 ar   
    22   10   91 1    
    23   11   12 ar   
    24   11   58 1    
    25   12   13 ar   
    26   12   92 1    
    27   13   14 ar   
    28   13   15 1    
    29   14   93 1    
    30   15   16 1    
    31   15   94 1    
    32   15   95 1    
    33   16   17 1    
    34   17   18 1    
    35   17   96 1    
    36   17   97 1    
    37   18   19 1    
    38   18   22 1    
    39   18   98 1    
    40   19   20 am   BACKBONE|DICT|INTERRES
    41   19   21 2    
    42   20   99 1    
    43   20  100 1    
    44   22   23 am   BACKBONE|DICT|INTERRES
    45   22  101 1    
    46   23   24 2    
    47   23   25 1    
    48   25   26 1    
    49   25   27 1    
    50   25  102 1    
    51   26  103 1    
    52   26  104 1    
    53   26  105 1    
    54   27   28 am   BACKBONE|DICT|INTERRES
    55   27  106 1    
    56   28   29 2    
    57   28   30 1    
    58   30   31 1    
    59   30   32 1    
    60   30  107 1    
    61   31  108 1    
    62   31  109 1    
    63   31  110 1    
    64   32   33 am   BACKBONE|DICT|INTERRES
    65   32  111 1    
    66   33   34 2    
    67   33   35 1    
    68   35   36 1    
    69   35   37 1    
    70   35  112 1    
    71   36  113 1    
    72   36  114 1    
    73   36  115 1    
    74   37   38 am   BACKBONE|DICT|INTERRES
    75   37  116 1    
    76   38   39 2    
    77   38   40 1    
    78   40   41 1    
    79   40   42 1    
    80   40  117 1    
    81   41  118 1    
    82   41  119 1    
    83   41  120 1    
    84   42   43 am   BACKBONE|DICT|INTERRES
    85   42  121 1    
    86   43   44 2    
    87   43   45 1    
    88   45   46 1    
    89   45   47 1    
    90   45  122 1    
    91   46  123 1    
    92   46  124 1    
    93   46  125 1    
    94   47   48 am   BACKBONE|DICT|INTERRES
    95   47  126 1    
    96   48   49 2    
    97   48   50 1    
    98   50   51 1    
    99   50   52 1    
   100   50  127 1    
   101   51  128 1    
   102   51  129 1    
   103   51  130 1    
   104   52   53 am   BACKBONE|DICT|INTERRES
   105   52  131 1    
   106   53   54 2    
   107   53   55 1    
   108   55   56 1    
   109   55   59 1    
   110   55  132 1    
   111   56   57 1    
   112   56  133 1    
   113   56  134 1    
   114   57   58 1    
   115   58  135 1    
   116   58  136 1    
   117   59   60 am   BACKBONE|DICT|INTERRES
   118   59  137 1    
   119   60   61 2    
   120   60   62 1    
   121   62   63 1    
   122   62   64 1    
   123   62  138 1    
   124   63  139 1    
   125   63  140 1    
   126   63  141 1    
   127   64   65 am   BACKBONE|DICT|INTERRES
   128   64  142 1    
   129   65   66 2    
   130   65   67 1    
   131   67   68 1    
   132   67   69 1    
   133   67  143 1    
   134   68  144 1    
   135   68  145 1    
   136   68  146 1    
   137   69   70 am   BACKBONE|DICT|INTERRES
   138   69  147 1    
   139   70   71 2    
   140   70   72 1    
   141   72   73 1    
   142   72   74 1    
   143   72  148 1    
   144   73  149 1    
   145   73  150 1    
   146   73  151 1    
   147   74   75 am   BACKBONE|DICT|INTERRES
   148   74  152 1    
   149   75   76 2    
   150   75   77 1    
   151   77   78 1    
   152   77   79 1    
   153   77  153 1    
   154   78  154 1    
   155   78  155 1    
   156   78  156 1    
   157   79   80 am   BACKBONE|DICT|INTERRES
   158   79  157 1    
   159   80   81 2    
@<TRIPOS>SUBSTRUCTURE
     1 UNK         1 GROUP             0       ****    0 ROOT    
