@<TRIPOS>MOLECULE
3R207
157   159    1
SMALL
USER_CHARGES


@<TRIPOS>ATOM
      1 CA        -46.3671  -31.4911    3.3186 C.3       0 UNK        -0.1975 
      2 C         -47.4260  -30.6590    4.0272 C.2       0 UNK         0.4852 
      3 O         -48.4382  -30.3140    3.4168 O.2       0 UNK        -0.5216 
      4 N         -47.1998  -30.3447    5.3102 N.am      1 UNK        -0.4461 
      5 CA        -48.0839  -29.5404    6.1615 C.3       1 UNK         0.0864 
      6 C6        -47.6154  -29.5608    7.6395 C.3       14 UNK        -0.0898 
      7 S7        -48.0727  -31.1168    8.4730 S.3       14 UNK        -0.2598 
      8 C8        -48.8701  -30.5074    9.9982 C.3       14 UNK         0.0286 
      9 C9        -50.3663  -30.2375    9.8534 C.ar      14 UNK        -0.0844 
     10 C10       -50.8566  -29.3598    8.8802 C.ar      14 UNK        -0.0881 
     11 C11       -52.2128  -29.0306    8.8308 C.ar      14 UNK        -0.0643 
     12 C12       -53.0972  -29.6148    9.7410 C.ar      14 UNK        -0.0930 
     13 C13       -52.6274  -30.5062   10.7087 C.ar      14 UNK        -0.0827 
     14 C14       -51.2642  -30.8148   10.7579 C.ar      14 UNK        -0.1249 
     15 C15       -53.5853  -31.1169   11.7187 C.3       14 UNK         0.0141 
     16 S16       -53.7097  -30.0754   13.2078 S.3       14 UNK        -0.2313 
     17 C17       -55.4505  -29.5379   13.1832 C.3       14 UNK        -0.0915 
     18 CA        -55.6794  -28.1294   12.5696 C.3       13 UNK         0.0968 
     19 C         -57.2129  -27.8790   12.4297 C.2       13 UNK         0.5732 
     20 N         -57.8386  -27.0238   13.2316 N.am      13 UNK        -0.7310 
     21 O         -57.8511  -28.4842   11.5714 O.2       13 UNK        -0.5035 
     22 N         -54.9309  -27.0813   13.2866 N.am      13 UNK        -0.4233 
     23 C         -54.9069  -25.7812   12.9577 C.2       13 UNK         0.4989 
     24 O         -55.4109  -25.3276   11.9275 O.2       13 UNK        -0.4996 
     25 CA        -54.2632  -24.8210   13.9830 C.3       12 UNK         0.0216 
     26 CB        -54.6269  -23.3421   13.7303 C.3       12 UNK        -0.1964 
     27 N         -54.5448  -25.1821   15.3794 N.am      12 UNK        -0.4276 
     28 C         -55.7417  -25.3703   15.9543 C.2       12 UNK         0.5020 
     29 O         -56.8144  -25.2461   15.3599 O.2       12 UNK        -0.5489 
     30 CA        -55.7274  -25.8337   17.4245 C.3       11 UNK         0.0294 
     31 CB        -57.1391  -26.1209   17.9704 C.3       11 UNK        -0.2019 
     32 N         -54.9092  -27.0394   17.5697 N.am      11 UNK        -0.4493 
     33 C         -53.5880  -27.0543   17.7855 C.2       11 UNK         0.4932 
     34 O         -52.9288  -26.0361   18.0018 O.2       11 UNK        -0.5029 
     35 CA        -52.8701  -28.4196   17.7097 C.3       10 UNK         0.0280 
     36 CB        -53.7755  -29.5817   17.2390 C.3       10 UNK        -0.1976 
     37 N         -51.6584  -28.3701   16.8794 N.am      10 UNK        -0.4242 
     38 C         -51.5588  -27.9215   15.6180 C.2       10 UNK         0.5072 
     39 O         -52.4956  -27.4392   14.9793 O.2       10 UNK        -0.5224 
     40 CA        -50.1806  -28.0682   14.9500 C.3       9 UNK         0.0343 
     41 CB        -50.2736  -28.9200   13.6729 C.3       9 UNK        -0.2003 
     42 N         -49.5865  -26.7731   14.6212 N.am      9 UNK        -0.4272 
     43 C         -49.1373  -25.8860   15.5190 C.2       9 UNK         0.4988 
     44 O         -49.1790  -26.0658   16.7370 O.2       9 UNK        -0.5108 
     45 CA        -48.4908  -24.5974   14.9795 C.3       8 UNK         0.0248 
     46 CB        -46.9880  -24.8134   14.7391 C.3       8 UNK        -0.2001 
     47 N         -49.1138  -24.0940   13.7531 N.am      8 UNK        -0.4140 
     48 C         -50.3239  -23.5192   13.7041 C.2       8 UNK         0.5028 
     49 O         -51.0304  -23.3257   14.6940 O.2       8 UNK        -0.5428 
     50 CA        -50.8340  -23.0713   12.3223 C.3       7 UNK         0.0264 
     51 CB        -50.3164  -21.6644   11.9838 C.3       7 UNK        -0.1988 
     52 N         -50.4830  -23.9961   11.2420 N.am      7 UNK        -0.4454 
     53 C         -50.9439  -25.2525   11.1455 C.2       7 UNK         0.5027 
     54 O         -51.7412  -25.7456   11.9391 O.2       7 UNK        -0.5083 
     55 CA        -50.3782  -26.1295   10.0110 C.3       6 UNK         0.0844 
     56 C56       -51.0495  -25.8554    8.6402 C.3       14 UNK        -0.0967 
     57 S57       -52.8076  -26.3463    8.5563 S.3       14 UNK        -0.2604 
     58 C58       -52.7144  -28.0107    7.8210 C.3       14 UNK         0.0134 
     59 N         -48.9211  -26.0283    9.9181 N.am      6 UNK        -0.4116 
     60 C         -48.0522  -26.3431   10.8877 C.2       5 UNK         0.5034 
     61 O         -48.3711  -26.8289   11.9703 O.2       5 UNK        -0.5045 
     62 CA        -46.5773  -26.0055   10.6245 C.3       5 UNK         0.0224 
     63 CB        -45.8867  -27.1117    9.8114 C.3       5 UNK        -0.1978 
     64 N         -46.4249  -24.7191    9.9418 N.am      5 UNK        -0.4737 
     65 C         -46.6682  -23.5309   10.5106 C.2       4 UNK         0.5027 
     66 O         -47.0044  -23.3925   11.6863 O.2       4 UNK        -0.5211 
     67 CA        -46.5535  -22.2958    9.6012 C.3       4 UNK         0.0297 
     68 CB        -45.0841  -21.8762    9.4385 C.3       4 UNK        -0.1993 
     69 N         -47.1583  -22.5025    8.2812 N.am      4 UNK        -0.4486 
     70 C         -48.4703  -22.6848    8.0776 C.2       3 UNK         0.4961 
     71 O         -49.3086  -22.6873    8.9782 O.2       3 UNK        -0.5105 
     72 CA        -48.9276  -22.9484    6.6316 C.3       3 UNK         0.0299 
     73 CB        -49.0682  -21.6234    5.8654 C.3       3 UNK        -0.1972 
     74 N         -48.0910  -23.8775    5.8588 N.am      3 UNK        -0.4305 
     75 C         -47.6939  -25.0949    6.2554 C.2       2 UNK         0.5006 
     76 O         -47.8438  -25.5284    7.3989 O.2       2 UNK        -0.5106 
     77 CA        -46.9880  -25.9682    5.2010 C.3       2 UNK         0.0296 
     78 CB        -45.5041  -25.5790    5.0984 C.3       2 UNK        -0.2002 
     79 N         -47.0801  -27.4009    5.5075 N.am      2 UNK        -0.4032 
     80 C         -48.2221  -28.0915    5.6543 C.2       1 UNK         0.5000 
     81 O         -49.3438  -27.6343    5.4243 O.2       1 UNK        -0.5238 
     82 H82       -46.8003  -32.4259    2.9638 H         1 UNK         0.0889 
     83 H83       -45.5308  -31.7328    3.9743 H         1 UNK         0.0889 
     84 H84       -45.9772  -30.9478    2.4583 H         1 UNK         0.0889 
     85 H85       -46.3612  -30.6880    5.7565 H         1 UNK         0.3028 
     86 H86       -49.0819  -29.9818    6.1069 H         1 UNK         0.0864 
     87 H87       -48.0263  -28.7209    8.2016 H         1 UNK         0.0720 
     88 H88       -46.5325  -29.4425    7.7047 H         1 UNK         0.0720 
     89 H89       -48.7010  -31.2546   10.7750 H         1 UNK         0.0814 
     90 H90       -48.3730  -29.6018   10.3490 H         1 UNK         0.0814 
     91 H91       -50.1865  -28.8860    8.1822 H         1 UNK         0.1469 
     92 H92       -54.1463  -29.3550    9.7114 H         1 UNK         0.1381 
     93 H93       -50.9002  -31.4836   11.5259 H         1 UNK         0.1206 
     94 H94       -53.2343  -32.1071   12.0125 H         1 UNK         0.0813 
     95 H95       -54.5629  -31.2691   11.2602 H         1 UNK         0.0813 
     96 H96       -55.8089  -29.5515   14.2141 H         1 UNK         0.0638 
     97 H97       -56.0403  -30.2930   12.6606 H         1 UNK         0.0638 
     98 H98       -55.2840  -28.1408   11.5528 H         1 UNK         0.0568 
     99 H99       -57.3357  -26.4828   13.9286 H         1 UNK         0.3450 
    100 H100      -58.8290  -26.8837   13.1162 H         1 UNK         0.3450 
    101 H101      -54.3774  -27.3789   14.0825 H         1 UNK         0.2987 
    102 H102      -53.1853  -24.9232   13.8646 H         1 UNK         0.0766 
    103 H103      -54.1022  -22.6837   14.4227 H         1 UNK         0.0798 
    104 H104      -55.6974  -23.1661   13.8410 H         1 UNK         0.0798 
    105 H105      -54.3493  -23.0357   12.7214 H         1 UNK         0.0798 
    106 H106      -53.7252  -25.3855   15.9406 H         1 UNK         0.3198 
    107 H107      -55.3002  -25.0216   18.0172 H         1 UNK         0.0843 
    108 H108      -57.6377  -26.9124   17.4094 H         1 UNK         0.0831 
    109 H109      -57.7688  -25.2322   17.9092 H         1 UNK         0.0831 
    110 H110      -57.1062  -26.4206   19.0179 H         1 UNK         0.0831 
    111 H111      -55.3665  -27.9173   17.3694 H         1 UNK         0.3133 
    112 H112      -52.5394  -28.6451   18.7243 H         1 UNK         0.0566 
    113 H113      -53.2218  -30.5203   17.2107 H         1 UNK         0.0814 
    114 H114      -54.6168  -29.7355   17.9159 H         1 UNK         0.0814 
    115 H115      -54.1724  -29.4101   16.2377 H         1 UNK         0.0814 
    116 H116      -50.8128  -28.6891   17.3311 H         1 UNK         0.3091 
    117 H117      -49.5055  -28.5793   15.6394 H         1 UNK         0.0702 
    118 H118      -50.7088  -29.8970   13.8852 H         1 UNK         0.0785 
    119 H119      -50.8985  -28.4425   12.9157 H         1 UNK         0.0785 
    120 H120      -49.2910  -29.0916   13.2338 H         1 UNK         0.0785 
    121 H121      -49.4695  -26.5712   13.6335 H         1 UNK         0.2998 
    122 H122      -48.5995  -23.8300   15.7490 H         1 UNK         0.0697 
    123 H123      -46.8075  -25.5630   13.9682 H         1 UNK         0.0825 
    124 H124      -46.4918  -25.1546   15.6487 H         1 UNK         0.0825 
    125 H125      -46.4983  -23.8899   14.4296 H         1 UNK         0.0825 
    126 H126      -48.5645  -24.1499   12.9022 H         1 UNK         0.3029 
    127 H127      -51.9231  -23.0274   12.3756 H         1 UNK         0.0897 
    128 H128      -50.5790  -20.9520   12.7669 H         1 UNK         0.0792 
    129 H129      -50.7483  -21.2971   11.0526 H         1 UNK         0.0792 
    130 H130      -49.2310  -21.6493   11.8767 H         1 UNK         0.0792 
    131 H131      -49.8734  -23.6345   10.5112 H         1 UNK         0.3086 
    132 H132      -50.5882  -27.1592   10.2985 H         1 UNK         0.0583 
    133 H133      -50.9813  -24.7961    8.3897 H         1 UNK         0.1020 
    134 H134      -50.5087  -26.3751    7.8474 H         1 UNK         0.1020 
    135 H135      -53.7083  -28.2981    7.4748 H         1 UNK         0.0694 
    136 H136      -52.0769  -27.9921    6.9353 H         1 UNK         0.0694 
    137 H137      -48.5437  -25.6768    9.0395 H         1 UNK         0.2989 
    138 H138      -46.0804  -25.9387   11.5949 H         1 UNK         0.1055 
    139 H139      -46.0413  -28.0905   10.2682 H         1 UNK         0.0806 
    140 H140      -44.8106  -26.9464    9.7584 H         1 UNK         0.0806 
    141 H141      -46.2644  -27.1607    8.7909 H         1 UNK         0.0806 
    142 H142      -46.2382  -24.7493    8.9490 H         1 UNK         0.3061 
    143 H143      -47.0879  -21.4779   10.0897 H         1 UNK         0.0734 
    144 H144      -44.9962  -20.9500    8.8704 H         1 UNK         0.0832 
    145 H145      -44.6199  -21.7027   10.4105 H         1 UNK         0.0832 
    146 H146      -44.4961  -22.6408    8.9293 H         1 UNK         0.0832 
    147 H147      -46.5393  -22.5262    7.4840 H         1 UNK         0.3156 
    148 H148      -49.9186  -23.4022    6.6902 H         1 UNK         0.0589 
    149 H149      -48.1025  -21.1408    5.7098 H         1 UNK         0.0808 
    150 H150      -49.5296  -21.7748    4.8893 H         1 UNK         0.0808 
    151 H151      -49.6992  -20.9208    6.4120 H         1 UNK         0.0808 
    152 H152      -47.8934  -23.6036    4.9068 H         1 UNK         0.3098 
    153 H153      -47.4704  -25.8030    4.2356 H         1 UNK         0.0720 
    154 H154      -44.9798  -25.7367    6.0422 H         1 UNK         0.0791 
    155 H155      -45.3884  -24.5271    4.8338 H         1 UNK         0.0791 
    156 H156      -44.9934  -26.1597    4.3298 H         1 UNK         0.0791 
    157 H157      -46.2118  -27.8694    5.7174 H         1 UNK         0.3028 
@<TRIPOS>BOND
     1    1    2 1    
     2    1   82 1    
     3    1   83 1    
     4    1   84 1    
     5    2    3 2    
     6    2    4 am   BACKBONE|DICT|INTERRES
     7    4    5 1    
     8    4   85 1    
     9    5    6 1    
    10    5   80 1    
    11    5   86 1    
    12    6    7 1    
    13    6   87 1    
    14    6   88 1    
    15    7    8 1    
    16    8    9 1    
    17    8   89 1    
    18    8   90 1    
    19    9   10 ar   
    20    9   14 ar   
    21   10   11 ar   
    22   10   91 1    
    23   11   12 ar   
    24   11   58 1    
    25   12   13 ar   
    26   12   92 1    
    27   13   14 ar   
    28   13   15 1    
    29   14   93 1    
    30   15   16 1    
    31   15   94 1    
    32   15   95 1    
    33   16   17 1    
    34   17   18 1    
    35   17   96 1    
    36   17   97 1    
    37   18   19 1    
    38   18   22 1    
    39   18   98 1    
    40   19   20 am   BACKBONE|DICT|INTERRES
    41   19   21 2    
    42   20   99 1    
    43   20  100 1    
    44   22   23 am   BACKBONE|DICT|INTERRES
    45   22  101 1    
    46   23   24 2    
    47   23   25 1    
    48   25   26 1    
    49   25   27 1    
    50   25  102 1    
    51   26  103 1    
    52   26  104 1    
    53   26  105 1    
    54   27   28 am   BACKBONE|DICT|INTERRES
    55   27  106 1    
    56   28   29 2    
    57   28   30 1    
    58   30   31 1    
    59   30   32 1    
    60   30  107 1    
    61   31  108 1    
    62   31  109 1    
    63   31  110 1    
    64   32   33 am   BACKBONE|DICT|INTERRES
    65   32  111 1    
    66   33   34 2    
    67   33   35 1    
    68   35   36 1    
    69   35   37 1    
    70   35  112 1    
    71   36  113 1    
    72   36  114 1    
    73   36  115 1    
    74   37   38 am   BACKBONE|DICT|INTERRES
    75   37  116 1    
    76   38   39 2    
    77   38   40 1    
    78   40   41 1    
    79   40   42 1    
    80   40  117 1    
    81   41  118 1    
    82   41  119 1    
    83   41  120 1    
    84   42   43 am   BACKBONE|DICT|INTERRES
    85   42  121 1    
    86   43   44 2    
    87   43   45 1    
    88   45   46 1    
    89   45   47 1    
    90   45  122 1    
    91   46  123 1    
    92   46  124 1    
    93   46  125 1    
    94   47   48 am   BACKBONE|DICT|INTERRES
    95   47  126 1    
    96   48   49 2    
    97   48   50 1    
    98   50   51 1    
    99   50   52 1    
   100   50  127 1    
   101   51  128 1    
   102   51  129 1    
   103   51  130 1    
   104   52   53 am   BACKBONE|DICT|INTERRES
   105   52  131 1    
   106   53   54 2    
   107   53   55 1    
   108   55   56 1    
   109   55   59 1    
   110   55  132 1    
   111   56   57 1    
   112   56  133 1    
   113   56  134 1    
   114   57   58 1    
   115   58  135 1    
   116   58  136 1    
   117   59   60 am   BACKBONE|DICT|INTERRES
   118   59  137 1    
   119   60   61 2    
   120   60   62 1    
   121   62   63 1    
   122   62   64 1    
   123   62  138 1    
   124   63  139 1    
   125   63  140 1    
   126   63  141 1    
   127   64   65 am   BACKBONE|DICT|INTERRES
   128   64  142 1    
   129   65   66 2    
   130   65   67 1    
   131   67   68 1    
   132   67   69 1    
   133   67  143 1    
   134   68  144 1    
   135   68  145 1    
   136   68  146 1    
   137   69   70 am   BACKBONE|DICT|INTERRES
   138   69  147 1    
   139   70   71 2    
   140   70   72 1    
   141   72   73 1    
   142   72   74 1    
   143   72  148 1    
   144   73  149 1    
   145   73  150 1    
   146   73  151 1    
   147   74   75 am   BACKBONE|DICT|INTERRES
   148   74  152 1    
   149   75   76 2    
   150   75   77 1    
   151   77   78 1    
   152   77   79 1    
   153   77  153 1    
   154   78  154 1    
   155   78  155 1    
   156   78  156 1    
   157   79   80 am   BACKBONE|DICT|INTERRES
   158   79  157 1    
   159   80   81 2    
@<TRIPOS>SUBSTRUCTURE
     1 UNK         1 GROUP             0       ****    0 ROOT    
