@<TRIPOS>MOLECULE
3R207
157   159    1
SMALL
USER_CHARGES


@<TRIPOS>ATOM
      1 CA        -46.0779  -31.6868    3.6900 C.3       0 UNK        -0.1975 
      2 C         -46.9034  -30.4232    3.8831 C.2       0 UNK         0.4852 
      3 O         -47.0059  -29.6127    2.9608 O.2       0 UNK        -0.5216 
      4 N         -47.4999  -30.2553    5.0700 N.am      1 UNK        -0.4461 
      5 CA        -48.2887  -29.0811    5.4549 C.3       1 UNK         0.0864 
      6 C6        -49.0947  -29.3319    6.7512 C.3       14 UNK        -0.0898 
      7 S7        -50.3120  -30.6814    6.6000 S.3       14 UNK        -0.2598 
      8 C8        -51.8737  -29.7737    6.3500 C.3       14 UNK         0.0286 
      9 C9        -52.2351  -28.8705    7.5241 C.ar      14 UNK        -0.0844 
     10 C10       -52.3049  -27.4856    7.3473 C.ar      14 UNK        -0.0881 
     11 C11       -52.6525  -26.6465    8.4103 C.ar      14 UNK        -0.0643 
     12 C12       -52.9359  -27.2024    9.6617 C.ar      14 UNK        -0.0930 
     13 C13       -52.8734  -28.5869    9.8509 C.ar      14 UNK        -0.0827 
     14 C14       -52.5215  -29.4150    8.7797 C.ar      14 UNK        -0.1249 
     15 C15       -53.1831  -29.1920   11.2110 C.3       14 UNK         0.0141 
     16 S16       -54.8384  -29.9443   11.2384 S.3       14 UNK        -0.2313 
     17 C17       -54.8382  -30.6675   12.9111 C.3       14 UNK        -0.0915 
     18 CA        -56.2677  -30.9232   13.4546 C.3       13 UNK         0.0968 
     19 C         -56.1966  -31.6706   14.8148 C.2       13 UNK         0.5732 
     20 N         -56.2431  -32.9956   14.7983 N.am      13 UNK        -0.7310 
     21 O         -56.0551  -31.0632   15.8751 O.2       13 UNK        -0.5035 
     22 N         -57.0313  -29.6721   13.5389 N.am      13 UNK        -0.4233 
     23 C         -58.3169  -29.5481   13.8846 C.2       13 UNK         0.4989 
     24 O         -59.0707  -30.5041   14.0786 O.2       13 UNK        -0.4996 
     25 CA        -58.8323  -28.1029   14.0604 C.3       12 UNK         0.0216 
     26 CB        -60.3344  -28.0441   14.3984 C.3       12 UNK        -0.1964 
     27 N         -58.0823  -27.3797   15.0949 N.am      12 UNK        -0.4276 
     28 C         -56.8414  -26.8982   14.9504 C.2       12 UNK         0.5020 
     29 O         -56.2084  -26.9629   13.8919 O.2       12 UNK        -0.5489 
     30 CA        -56.1854  -26.2895   16.1962 C.3       11 UNK         0.0294 
     31 CB        -55.9336  -27.3633   17.2736 C.3       11 UNK        -0.2019 
     32 N         -54.9174  -25.6916   15.7942 N.am      11 UNK        -0.4493 
     33 C         -54.2314  -24.7495   16.4439 C.2       11 UNK         0.4932 
     34 O         -54.5930  -24.2560   17.5137 O.2       11 UNK        -0.5029 
     35 CA        -52.9071  -24.3102   15.7897 C.3       10 UNK         0.0280 
     36 CB        -52.2807  -23.0848   16.4797 C.3       10 UNK        -0.1976 
     37 N         -51.9270  -25.3990   15.7728 N.am      10 UNK        -0.4242 
     38 C         -51.9354  -26.4423   14.9323 C.2       10 UNK         0.5072 
     39 O         -52.7785  -26.6008   14.0471 O.2       10 UNK        -0.5224 
     40 CA        -50.8072  -27.4684   15.1188 C.3       9 UNK         0.0343 
     41 CB        -50.9398  -28.6782   14.1744 C.3       9 UNK        -0.2003 
     42 N         -49.5163  -26.8246   14.8867 N.am      9 UNK        -0.4272 
     43 C         -48.7202  -26.3210   15.8371 C.2       9 UNK         0.4988 
     44 O         -48.9836  -26.3577   17.0396 O.2       9 UNK        -0.5108 
     45 CA        -47.4242  -25.6429   15.3632 C.3       8 UNK         0.0248 
     46 CB        -46.4341  -26.6743   14.7971 C.3       8 UNK        -0.2001 
     47 N         -47.6748  -24.5947   14.3712 N.am      8 UNK        -0.4140 
     48 C         -48.2863  -23.4311   14.6392 C.2       8 UNK         0.5028 
     49 O         -48.6568  -23.0945   15.7642 O.2       8 UNK        -0.5428 
     50 CA        -48.5241  -22.4745   13.4587 C.3       7 UNK         0.0264 
     51 CB        -47.2658  -21.6394   13.1721 C.3       7 UNK        -0.1988 
     52 N         -48.9375  -23.1703   12.2399 N.am      7 UNK        -0.4454 
     53 C         -50.1212  -23.7792   12.0738 C.2       7 UNK         0.5027 
     54 O         -51.0275  -23.7447   12.9044 O.2       7 UNK        -0.5083 
     55 CA        -50.3261  -24.5624   10.7596 C.3       6 UNK         0.0844 
     56 C56       -50.8634  -23.6120    9.6616 C.3       14 UNK        -0.0967 
     57 S57       -51.0905  -24.3969    8.0317 S.3       14 UNK        -0.2604 
     58 C58       -52.7427  -25.1449    8.1842 C.3       14 UNK         0.0134 
     59 N         -49.1171  -25.2942   10.3616 N.am      6 UNK        -0.4116 
     60 C         -48.5488  -26.2681   11.0891 C.2       5 UNK         0.5034 
     61 O         -49.0048  -26.6920   12.1488 O.2       5 UNK        -0.5045 
     62 CA        -47.2135  -26.8307   10.5891 C.3       5 UNK         0.0224 
     63 CB        -47.4462  -27.9352    9.5542 C.3       5 UNK        -0.1978 
     64 N         -46.3640  -25.7833   10.0247 N.am      5 UNK        -0.4737 
     65 C         -45.7310  -24.8631   10.7654 C.2       4 UNK         0.5027 
     66 O         -45.7623  -24.8397   11.9958 O.2       4 UNK        -0.5211 
     67 CA        -44.9791  -23.7572   10.0052 C.3       4 UNK         0.0297 
     68 CB        -43.5733  -24.2335    9.6077 C.3       4 UNK        -0.1993 
     69 N         -45.6988  -23.2978    8.8141 N.am      4 UNK        -0.4486 
     70 C         -46.8992  -22.7023    8.8405 C.2       3 UNK         0.4961 
     71 O         -47.5019  -22.4285    9.8774 O.2       3 UNK        -0.5105 
     72 CA        -47.5618  -22.3871    7.4892 C.3       3 UNK         0.0299 
     73 CB        -47.2132  -20.9572    7.0471 C.3       3 UNK        -0.1972 
     74 N         -47.2473  -23.3239    6.4033 N.am      3 UNK        -0.4305 
     75 C         -47.4537  -24.6492    6.4224 C.2       2 UNK         0.5006 
     76 O         -47.8230  -25.2699    7.4212 O.2       2 UNK        -0.5106 
     77 CA        -47.2089  -25.3726    5.0856 C.3       2 UNK         0.0296 
     78 CB        -45.7120  -25.3848    4.7052 C.3       2 UNK        -0.2002 
     79 N         -47.8057  -26.7159    5.0363 N.am      2 UNK        -0.4032 
     80 C         -47.3782  -27.8451    5.6223 C.2       1 UNK         0.5000 
     81 O         -46.3372  -27.9494    6.2774 O.2       1 UNK        -0.5238 
     82 H82       -46.0854  -32.3185    4.5781 H         1 UNK         0.0889 
     83 H83       -45.0432  -31.4280    3.4668 H         1 UNK         0.0889 
     84 H84       -46.4716  -32.2687    2.8570 H         1 UNK         0.0889 
     85 H85       -47.3741  -30.9480    5.7937 H         1 UNK         0.3028 
     86 H86       -48.9983  -28.8818    4.6486 H         1 UNK         0.0864 
     87 H87       -49.5995  -28.4201    7.0736 H         1 UNK         0.0720 
     88 H88       -48.4191  -29.6058    7.5621 H         1 UNK         0.0720 
     89 H89       -52.6779  -30.4953    6.2003 H         1 UNK         0.0814 
     90 H90       -51.8036  -29.2010    5.4239 H         1 UNK         0.0814 
     91 H91       -52.0889  -27.0526    6.3801 H         1 UNK         0.1469 
     92 H92       -53.2115  -26.5603   10.4874 H         1 UNK         0.1381 
     93 H93       -52.4747  -30.4861    8.9222 H         1 UNK         0.1206 
     94 H94       -52.4336  -29.9464   11.4553 H         1 UNK         0.0813 
     95 H95       -53.1250  -28.4301   11.9901 H         1 UNK         0.0813 
     96 H96       -54.2928  -30.0034   13.5852 H         1 UNK         0.0638 
     97 H97       -54.2699  -31.5986   12.8669 H         1 UNK         0.0638 
     98 H98       -56.7933  -31.5668   12.7466 H         1 UNK         0.0568 
     99 H99       -56.3452  -33.5041   13.9338 H         1 UNK         0.3450 
    100 H100      -56.1820  -33.4976   15.6702 H         1 UNK         0.3450 
    101 H101      -56.4947  -28.8151   13.4396 H         1 UNK         0.2987 
    102 H102      -58.6890  -27.5933   13.1049 H         1 UNK         0.0766 
    103 H103      -60.9275  -28.5412   13.6294 H         1 UNK         0.0798 
    104 H104      -60.6874  -27.0145   14.4601 H         1 UNK         0.0798 
    105 H105      -60.5558  -28.5330   15.3480 H         1 UNK         0.0798 
    106 H106      -58.5209  -27.3174   16.0028 H         1 UNK         0.3198 
    107 H107      -56.8433  -25.5109   16.5881 H         1 UNK         0.0843 
    108 H108      -55.4433  -26.9418   18.1512 H         1 UNK         0.0831 
    109 H109      -55.3041  -28.1702   16.8950 H         1 UNK         0.0831 
    110 H110      -56.8664  -27.8126   17.6156 H         1 UNK         0.0831 
    111 H111      -54.5499  -26.0444   14.9111 H         1 UNK         0.3133 
    112 H112      -53.1317  -24.0278   14.7589 H         1 UNK         0.0566 
    113 H113      -51.3950  -22.7431   15.9436 H         1 UNK         0.0814 
    114 H114      -51.9887  -23.3019   17.5079 H         1 UNK         0.0814 
    115 H115      -52.9820  -22.2498   16.5067 H         1 UNK         0.0814 
    116 H116      -51.1939  -25.3580   16.4680 H         1 UNK         0.3091 
    117 H117      -50.8668  -27.8408   16.1436 H         1 UNK         0.0702 
    118 H118      -50.1471  -29.4054   14.3500 H         1 UNK         0.0785 
    119 H119      -50.8906  -28.3786   13.1270 H         1 UNK         0.0785 
    120 H120      -51.8907  -29.1905   14.3258 H         1 UNK         0.0785 
    121 H121      -49.2521  -26.7139   13.9076 H         1 UNK         0.2998 
    122 H122      -46.9572  -25.1751   16.2325 H         1 UNK         0.0697 
    123 H123      -46.8251  -27.1691   13.9080 H         1 UNK         0.0825 
    124 H124      -46.2156  -27.4497   15.5326 H         1 UNK         0.0825 
    125 H125      -45.4868  -26.2067   14.5277 H         1 UNK         0.0825 
    126 H126      -47.3398  -24.7641   13.4292 H         1 UNK         0.3029 
    127 H127      -49.3275  -21.7919   13.7445 H         1 UNK         0.0897 
    128 H128      -46.4292  -22.2636   12.8559 H         1 UNK         0.0792 
    129 H129      -46.9489  -21.0926   14.0612 H         1 UNK         0.0792 
    130 H130      -47.4485  -20.9053   12.3870 H         1 UNK         0.0792 
    131 H131      -48.2851  -23.1529   11.4593 H         1 UNK         0.3086 
    132 H132      -51.0941  -25.3130   10.9550 H         1 UNK         0.0583 
    133 H133      -51.8096  -23.1658    9.9740 H         1 UNK         0.1020 
    134 H134      -50.1802  -22.7727    9.5215 H         1 UNK         0.1020 
    135 H135      -53.3122  -24.6640    8.9807 H         1 UNK         0.0694 
    136 H136      -53.2958  -24.9562    7.2630 H         1 UNK         0.0694 
    137 H137      -48.7002  -25.0407    9.4737 H         1 UNK         0.2989 
    138 H138      -46.6945  -27.2724   11.4426 H         1 UNK         0.1055 
    139 H139      -47.9799  -27.5514    8.6863 H         1 UNK         0.0806 
    140 H140      -46.5062  -28.3650    9.2076 H         1 UNK         0.0806 
    141 H141      -48.0435  -28.7455    9.9746 H         1 UNK         0.0806 
    142 H142      -46.3693  -25.6891    9.0157 H         1 UNK         0.3061 
    143 H143      -44.8741  -22.9055   10.6809 H         1 UNK         0.0734 
    144 H144      -43.6107  -25.0711    8.9098 H         1 UNK         0.0832 
    145 H145      -42.9987  -23.4324    9.1425 H         1 UNK         0.0832 
    146 H146      -43.0135  -24.5647   10.4836 H         1 UNK         0.0832 
    147 H147      -45.2785  -23.4880    7.9162 H         1 UNK         0.3156 
    148 H148      -48.6409  -22.4359    7.6438 H         1 UNK         0.0589 
    149 H149      -47.7719  -20.6679    6.1569 H         1 UNK         0.0808 
    150 H150      -47.4597  -20.2362    7.8282 H         1 UNK         0.0808 
    151 H151      -46.1500  -20.8492    6.8285 H         1 UNK         0.0808 
    152 H152      -46.9317  -22.9062    5.5395 H         1 UNK         0.3098 
    153 H153      -47.7374  -24.8011    4.3209 H         1 UNK         0.0720 
    154 H154      -45.3412  -24.3747    4.5291 H         1 UNK         0.0791 
    155 H155      -45.5397  -25.9530    3.7909 H         1 UNK         0.0791 
    156 H156      -45.0931  -25.8192    5.4908 H         1 UNK         0.0791 
    157 H157      -48.6878  -26.7576    4.5456 H         1 UNK         0.3028 
@<TRIPOS>BOND
     1    1    2 1    
     2    1   82 1    
     3    1   83 1    
     4    1   84 1    
     5    2    3 2    
     6    2    4 am   BACKBONE|DICT|INTERRES
     7    4    5 1    
     8    4   85 1    
     9    5    6 1    
    10    5   80 1    
    11    5   86 1    
    12    6    7 1    
    13    6   87 1    
    14    6   88 1    
    15    7    8 1    
    16    8    9 1    
    17    8   89 1    
    18    8   90 1    
    19    9   10 ar   
    20    9   14 ar   
    21   10   11 ar   
    22   10   91 1    
    23   11   12 ar   
    24   11   58 1    
    25   12   13 ar   
    26   12   92 1    
    27   13   14 ar   
    28   13   15 1    
    29   14   93 1    
    30   15   16 1    
    31   15   94 1    
    32   15   95 1    
    33   16   17 1    
    34   17   18 1    
    35   17   96 1    
    36   17   97 1    
    37   18   19 1    
    38   18   22 1    
    39   18   98 1    
    40   19   20 am   BACKBONE|DICT|INTERRES
    41   19   21 2    
    42   20   99 1    
    43   20  100 1    
    44   22   23 am   BACKBONE|DICT|INTERRES
    45   22  101 1    
    46   23   24 2    
    47   23   25 1    
    48   25   26 1    
    49   25   27 1    
    50   25  102 1    
    51   26  103 1    
    52   26  104 1    
    53   26  105 1    
    54   27   28 am   BACKBONE|DICT|INTERRES
    55   27  106 1    
    56   28   29 2    
    57   28   30 1    
    58   30   31 1    
    59   30   32 1    
    60   30  107 1    
    61   31  108 1    
    62   31  109 1    
    63   31  110 1    
    64   32   33 am   BACKBONE|DICT|INTERRES
    65   32  111 1    
    66   33   34 2    
    67   33   35 1    
    68   35   36 1    
    69   35   37 1    
    70   35  112 1    
    71   36  113 1    
    72   36  114 1    
    73   36  115 1    
    74   37   38 am   BACKBONE|DICT|INTERRES
    75   37  116 1    
    76   38   39 2    
    77   38   40 1    
    78   40   41 1    
    79   40   42 1    
    80   40  117 1    
    81   41  118 1    
    82   41  119 1    
    83   41  120 1    
    84   42   43 am   BACKBONE|DICT|INTERRES
    85   42  121 1    
    86   43   44 2    
    87   43   45 1    
    88   45   46 1    
    89   45   47 1    
    90   45  122 1    
    91   46  123 1    
    92   46  124 1    
    93   46  125 1    
    94   47   48 am   BACKBONE|DICT|INTERRES
    95   47  126 1    
    96   48   49 2    
    97   48   50 1    
    98   50   51 1    
    99   50   52 1    
   100   50  127 1    
   101   51  128 1    
   102   51  129 1    
   103   51  130 1    
   104   52   53 am   BACKBONE|DICT|INTERRES
   105   52  131 1    
   106   53   54 2    
   107   53   55 1    
   108   55   56 1    
   109   55   59 1    
   110   55  132 1    
   111   56   57 1    
   112   56  133 1    
   113   56  134 1    
   114   57   58 1    
   115   58  135 1    
   116   58  136 1    
   117   59   60 am   BACKBONE|DICT|INTERRES
   118   59  137 1    
   119   60   61 2    
   120   60   62 1    
   121   62   63 1    
   122   62   64 1    
   123   62  138 1    
   124   63  139 1    
   125   63  140 1    
   126   63  141 1    
   127   64   65 am   BACKBONE|DICT|INTERRES
   128   64  142 1    
   129   65   66 2    
   130   65   67 1    
   131   67   68 1    
   132   67   69 1    
   133   67  143 1    
   134   68  144 1    
   135   68  145 1    
   136   68  146 1    
   137   69   70 am   BACKBONE|DICT|INTERRES
   138   69  147 1    
   139   70   71 2    
   140   70   72 1    
   141   72   73 1    
   142   72   74 1    
   143   72  148 1    
   144   73  149 1    
   145   73  150 1    
   146   73  151 1    
   147   74   75 am   BACKBONE|DICT|INTERRES
   148   74  152 1    
   149   75   76 2    
   150   75   77 1    
   151   77   78 1    
   152   77   79 1    
   153   77  153 1    
   154   78  154 1    
   155   78  155 1    
   156   78  156 1    
   157   79   80 am   BACKBONE|DICT|INTERRES
   158   79  157 1    
   159   80   81 2    
@<TRIPOS>SUBSTRUCTURE
     1 UNK         1 GROUP             0       ****    0 ROOT    
