@<TRIPOS>MOLECULE
3R207
157   159    1
SMALL
USER_CHARGES


@<TRIPOS>ATOM
      1 CA        -46.1307  -25.5986   11.2275 C.3       0 UNK        -0.1975 
      2 C         -46.0616  -26.5278   10.0239 C.2       0 UNK         0.4852 
      3 O         -45.0808  -27.2594    9.8804 O.2       0 UNK        -0.5216 
      4 N         -47.0932  -26.5124    9.1732 N.am      1 UNK        -0.4461 
      5 CA        -47.2226  -27.3553    7.9820 C.3       1 UNK         0.0864 
      6 C6        -48.5054  -28.2185    8.0307 C.3       14 UNK        -0.0898 
      7 S7        -48.3389  -29.5925    9.2130 S.3       14 UNK        -0.2598 
      8 C8        -49.7857  -30.6065    8.7848 C.3       14 UNK         0.0286 
      9 C9        -51.0825  -29.9226    9.1871 C.ar      14 UNK        -0.0844 
     10 C10       -51.8214  -29.1987    8.2454 C.ar      14 UNK        -0.0881 
     11 C11       -53.0145  -28.5704    8.6122 C.ar      14 UNK        -0.0643 
     12 C12       -53.4721  -28.6841    9.9285 C.ar      14 UNK        -0.0930 
     13 C13       -52.7337  -29.3909   10.8806 C.ar      14 UNK        -0.0827 
     14 C14       -51.5413  -30.0135   10.5047 C.ar      14 UNK        -0.1249 
     15 C15       -53.2239  -29.4581   12.3155 C.3       14 UNK         0.0141 
     16 S16       -54.4749  -30.7596   12.5250 S.3       14 UNK        -0.2313 
     17 C17       -55.0847  -30.4042   14.2074 C.3       14 UNK        -0.0915 
     18 CA        -56.3890  -29.5612   14.1975 C.3       13 UNK         0.0968 
     19 C         -57.0469  -29.5004   15.6075 C.2       13 UNK         0.5732 
     20 N         -57.3020  -28.3333   16.1901 N.am      13 UNK        -0.7310 
     21 O         -57.3473  -30.5420   16.1855 O.2       13 UNK        -0.5035 
     22 N         -56.1700  -28.2391   13.5947 N.am      13 UNK        -0.4233 
     23 C         -57.0931  -27.5401   12.9223 C.2       13 UNK         0.4989 
     24 O         -58.2127  -27.9765   12.6489 O.2       13 UNK        -0.4996 
     25 CA        -56.7008  -26.1125   12.4822 C.3       12 UNK         0.0216 
     26 CB        -57.9232  -25.1875   12.3029 C.3       12 UNK        -0.1964 
     27 N         -55.6990  -25.4807   13.3514 N.am      12 UNK        -0.4276 
     28 C         -55.8000  -25.2553   14.6695 C.2       12 UNK         0.5020 
     29 O         -56.7899  -25.5349   15.3497 O.2       12 UNK        -0.5489 
     30 CA        -54.5501  -24.6874   15.3620 C.3       11 UNK         0.0294 
     31 CB        -54.8708  -23.3714   16.0891 C.3       11 UNK        -0.2019 
     32 N         -53.9705  -25.6431   16.3136 N.am      11 UNK        -0.4493 
     33 C         -53.5548  -26.8774   16.0029 C.2       11 UNK         0.4932 
     34 O         -53.6190  -27.3594   14.8679 O.2       11 UNK        -0.5029 
     35 CA        -52.9593  -27.7215   17.1338 C.3       10 UNK         0.0280 
     36 CB        -54.0720  -28.4168   17.9410 C.3       10 UNK        -0.1976 
     37 N         -52.0856  -28.7006   16.4982 N.am      10 UNK        -0.4242 
     38 C         -51.2385  -29.5549   17.0796 C.2       10 UNK         0.5072 
     39 O         -51.0691  -29.6487   18.2957 O.2       10 UNK        -0.5224 
     40 CA        -50.4322  -30.4480   16.1226 C.3       9 UNK         0.0343 
     41 CB        -51.3040  -31.5888   15.5697 C.3       9 UNK        -0.2003 
     42 N         -49.8693  -29.6746   15.0116 N.am      9 UNK        -0.4272 
     43 C         -48.7529  -28.9381   15.1003 C.2       9 UNK         0.4988 
     44 O         -48.0395  -28.8852   16.1028 O.2       9 UNK        -0.5108 
     45 CA        -48.3756  -28.1146   13.8573 C.3       8 UNK         0.0248 
     46 CB        -47.9435  -29.0243   12.6975 C.3       8 UNK        -0.2001 
     47 N         -49.4546  -27.2214   13.4211 N.am      8 UNK        -0.4140 
     48 C         -49.8697  -26.1533   14.1196 C.2       8 UNK         0.5028 
     49 O         -49.3789  -25.8167   15.1978 O.2       8 UNK        -0.5428 
     50 CA        -51.0094  -25.3125   13.5230 C.3       7 UNK         0.0264 
     51 CB        -50.9459  -23.8326   13.9531 C.3       7 UNK        -0.1988 
     52 N         -51.0764  -25.4029   12.0642 N.am      7 UNK        -0.4454 
     53 C         -52.2079  -25.3210   11.3523 C.2       7 UNK         0.5027 
     54 O         -53.3263  -25.2293   11.8645 O.2       7 UNK        -0.5083 
     55 CA        -52.0477  -25.2673    9.8163 C.3       6 UNK         0.0844 
     56 C56       -53.4007  -25.3925    9.0635 C.3       14 UNK        -0.0967 
     57 S57       -53.1597  -26.0733    7.3889 S.3       14 UNK        -0.2604 
     58 C58       -53.8072  -27.7678    7.5885 C.3       14 UNK         0.0134 
     59 N         -51.3600  -24.0229    9.4549 N.am      6 UNK        -0.4116 
     60 C         -50.0429  -23.8052    9.5504 C.2       5 UNK         0.5034 
     61 O         -49.2315  -24.6929    9.8193 O.2       5 UNK        -0.5045 
     62 CA        -49.6078  -22.3291    9.4720 C.3       5 UNK         0.0224 
     63 CB        -49.1634  -21.8259   10.8603 C.3       5 UNK        -0.1978 
     64 N         -48.5988  -22.0212    8.4506 N.am      5 UNK        -0.4737 
     65 C         -47.3173  -22.4051    8.3835 C.2       4 UNK         0.5027 
     66 O         -46.7558  -23.1639    9.1744 O.2       4 UNK        -0.5211 
     67 CA        -46.4877  -21.7467    7.2755 C.3       4 UNK         0.0297 
     68 CB        -45.7280  -20.5340    7.8560 C.3       4 UNK        -0.1993 
     69 N         -45.5757  -22.7478    6.7301 N.am      4 UNK        -0.4486 
     70 C         -44.7086  -22.5854    5.7231 C.2       3 UNK         0.4961 
     71 O         -44.5251  -21.5242    5.1259 O.2       3 UNK        -0.5105 
     72 CA        -43.9331  -23.8390    5.2820 C.3       3 UNK         0.0299 
     73 CB        -42.7988  -24.1577    6.2703 C.3       3 UNK        -0.1972 
     74 N         -44.8023  -25.0086    5.1343 N.am      3 UNK        -0.4305 
     75 C         -45.7862  -25.1211    4.2283 C.2       2 UNK         0.5006 
     76 O         -46.0118  -24.2843    3.3530 O.2       2 UNK        -0.5106 
     77 CA        -46.6747  -26.3768    4.3007 C.3       2 UNK         0.0296 
     78 CB        -46.2302  -27.4100    3.2520 C.3       2 UNK        -0.2002 
     79 N         -46.7148  -27.0169    5.6202 N.am      2 UNK        -0.4032 
     80 C         -47.2306  -26.4667    6.7293 C.2       1 UNK         0.5000 
     81 O         -47.7139  -25.3332    6.7709 O.2       1 UNK        -0.5238 
     82 H82       -47.0851  -25.0766   11.2846 H         1 UNK         0.0889 
     83 H83       -45.3421  -24.8493   11.1662 H         1 UNK         0.0889 
     84 H84       -45.9991  -26.1638   12.1496 H         1 UNK         0.0889 
     85 H85       -47.8308  -25.8188    9.2959 H         1 UNK         0.3028 
     86 H86       -46.3613  -28.0218    7.8985 H         1 UNK         0.0864 
     87 H87       -49.3709  -27.6103    8.3022 H         1 UNK         0.0720 
     88 H88       -48.7246  -28.6525    7.0529 H         1 UNK         0.0720 
     89 H89       -49.7784  -30.8291    7.7167 H         1 UNK         0.0814 
     90 H90       -49.7059  -31.5675    9.2952 H         1 UNK         0.0814 
     91 H91       -51.4646  -29.1151    7.2279 H         1 UNK         0.1469 
     92 H92       -54.4012  -28.2151   10.2210 H         1 UNK         0.1381 
     93 H93       -50.9678  -30.5677   11.2349 H         1 UNK         0.1206 
     94 H94       -52.3945  -29.6349   12.9998 H         1 UNK         0.0813 
     95 H95       -53.6458  -28.4903   12.5826 H         1 UNK         0.0813 
     96 H96       -55.2570  -31.3686   14.6885 H         1 UNK         0.0638 
     97 H97       -54.3057  -29.9141   14.7917 H         1 UNK         0.0638 
     98 H98       -57.1072  -30.0992   13.5760 H         1 UNK         0.0568 
     99 H99       -57.0878  -27.4505   15.7371 H         1 UNK         0.3450 
    100 H100      -57.7387  -28.3302   17.0973 H         1 UNK         0.3450 
    101 H101      -55.2894  -27.7943   13.8304 H         1 UNK         0.2987 
    102 H102      -56.2238  -26.2223   11.5072 H         1 UNK         0.0766 
    103 H103      -57.6226  -24.1929   11.9735 H         1 UNK         0.0798 
    104 H104      -58.6083  -25.5818   11.5513 H         1 UNK         0.0798 
    105 H105      -58.4860  -25.0781   13.2306 H         1 UNK         0.0798 
    106 H106      -54.8070  -25.2841   12.8939 H         1 UNK         0.3198 
    107 H107      -53.7979  -24.4726   14.6017 H         1 UNK         0.0843 
    108 H108      -55.5919  -23.5198   16.8940 H         1 UNK         0.0831 
    109 H109      -55.2981  -22.6410   15.4007 H         1 UNK         0.0831 
    110 H110      -53.9737  -22.9243   16.5177 H         1 UNK         0.0831 
    111 H111      -53.9113  -25.3398   17.2750 H         1 UNK         0.3133 
    112 H112      -52.3628  -27.0799   17.7851 H         1 UNK         0.0566 
    113 H113      -54.6193  -29.1362   17.3319 H         1 UNK         0.0814 
    114 H114      -54.7949  -27.6946   18.3226 H         1 UNK         0.0814 
    115 H115      -53.6683  -28.9504   18.8012 H         1 UNK         0.0814 
    116 H116      -52.1565  -28.6796   15.4891 H         1 UNK         0.3091 
    117 H117      -49.6153  -30.8978   16.6916 H         1 UNK         0.0702 
    118 H118      -50.7198  -32.2652   14.9453 H         1 UNK         0.0785 
    119 H119      -52.1374  -31.2192   14.9721 H         1 UNK         0.0785 
    120 H120      -51.7256  -32.1833   16.3814 H         1 UNK         0.0785 
    121 H121      -50.3743  -29.6818   14.1395 H         1 UNK         0.2998 
    122 H122      -47.5177  -27.4936   14.1249 H         1 UNK         0.0697 
    123 H123      -48.7663  -29.6329   12.3214 H         1 UNK         0.0825 
    124 H124      -47.1497  -29.7050   13.0081 H         1 UNK         0.0825 
    125 H125      -47.5541  -28.4389   11.8655 H         1 UNK         0.0825 
    126 H126      -49.9131  -27.4422   12.5493 H         1 UNK         0.3029 
    127 H127      -51.9205  -25.7414   13.9328 H         1 UNK         0.0897 
    128 H128      -51.7707  -23.2562   13.5342 H         1 UNK         0.0792 
    129 H129      -51.0077  -23.7356   15.0378 H         1 UNK         0.0792 
    130 H130      -50.0134  -23.3655   13.6351 H         1 UNK         0.0792 
    131 H131      -50.1950  -25.4093   11.5599 H         1 UNK         0.3086 
    132 H132      -51.4195  -26.1198    9.5461 H         1 UNK         0.0583 
    133 H133      -54.1109  -26.0260    9.5938 H         1 UNK         0.1020 
    134 H134      -53.8977  -24.4240    8.9865 H         1 UNK         0.1020 
    135 H135      -54.8605  -27.7220    7.8700 H         1 UNK         0.0694 
    136 H136      -53.7741  -28.2733    6.6223 H         1 UNK         0.0694 
    137 H137      -51.9634  -23.2374    9.2614 H         1 UNK         0.2989 
    138 H138      -50.4817  -21.7401    9.1881 H         1 UNK         0.1055 
    139 H139      -48.8895  -20.7713   10.8333 H         1 UNK         0.0806 
    140 H140      -48.3075  -22.3849   11.2409 H         1 UNK         0.0806 
    141 H141      -49.9683  -21.9324   11.5883 H         1 UNK         0.0806 
    142 H142      -48.9263  -21.4074    7.7171 H         1 UNK         0.3061 
    143 H143      -47.1498  -21.4157    6.4729 H         1 UNK         0.0734 
    144 H144      -46.4124  -19.8473    8.3561 H         1 UNK         0.0832 
    145 H145      -44.9840  -20.8433    8.5911 H         1 UNK         0.0832 
    146 H146      -45.2181  -19.9609    7.0826 H         1 UNK         0.0832 
    147 H147      -45.6809  -23.6626    7.1521 H         1 UNK         0.3156 
    148 H148      -43.4852  -23.6302    4.3080 H         1 UNK         0.0589 
    149 H149      -43.1794  -24.4112    7.2607 H         1 UNK         0.0808 
    150 H150      -42.1905  -24.9920    5.9205 H         1 UNK         0.0808 
    151 H151      -42.1335  -23.3010    6.3872 H         1 UNK         0.0808 
    152 H152      -44.6776  -25.7584    5.7978 H         1 UNK         0.3098 
    153 H153      -47.6921  -26.0624    4.0581 H         1 UNK         0.0720 
    154 H154      -46.9080  -28.2634    3.2217 H         1 UNK         0.0791 
    155 H155      -46.2205  -26.9727    2.2524 H         1 UNK         0.0791 
    156 H156      -45.2254  -27.7839    3.4530 H         1 UNK         0.0791 
    157 H157      -46.3489  -27.9573    5.6701 H         1 UNK         0.3028 
@<TRIPOS>BOND
     1    1    2 1    
     2    1   82 1    
     3    1   83 1    
     4    1   84 1    
     5    2    3 2    
     6    2    4 am   BACKBONE|DICT|INTERRES
     7    4    5 1    
     8    4   85 1    
     9    5    6 1    
    10    5   80 1    
    11    5   86 1    
    12    6    7 1    
    13    6   87 1    
    14    6   88 1    
    15    7    8 1    
    16    8    9 1    
    17    8   89 1    
    18    8   90 1    
    19    9   10 ar   
    20    9   14 ar   
    21   10   11 ar   
    22   10   91 1    
    23   11   12 ar   
    24   11   58 1    
    25   12   13 ar   
    26   12   92 1    
    27   13   14 ar   
    28   13   15 1    
    29   14   93 1    
    30   15   16 1    
    31   15   94 1    
    32   15   95 1    
    33   16   17 1    
    34   17   18 1    
    35   17   96 1    
    36   17   97 1    
    37   18   19 1    
    38   18   22 1    
    39   18   98 1    
    40   19   20 am   BACKBONE|DICT|INTERRES
    41   19   21 2    
    42   20   99 1    
    43   20  100 1    
    44   22   23 am   BACKBONE|DICT|INTERRES
    45   22  101 1    
    46   23   24 2    
    47   23   25 1    
    48   25   26 1    
    49   25   27 1    
    50   25  102 1    
    51   26  103 1    
    52   26  104 1    
    53   26  105 1    
    54   27   28 am   BACKBONE|DICT|INTERRES
    55   27  106 1    
    56   28   29 2    
    57   28   30 1    
    58   30   31 1    
    59   30   32 1    
    60   30  107 1    
    61   31  108 1    
    62   31  109 1    
    63   31  110 1    
    64   32   33 am   BACKBONE|DICT|INTERRES
    65   32  111 1    
    66   33   34 2    
    67   33   35 1    
    68   35   36 1    
    69   35   37 1    
    70   35  112 1    
    71   36  113 1    
    72   36  114 1    
    73   36  115 1    
    74   37   38 am   BACKBONE|DICT|INTERRES
    75   37  116 1    
    76   38   39 2    
    77   38   40 1    
    78   40   41 1    
    79   40   42 1    
    80   40  117 1    
    81   41  118 1    
    82   41  119 1    
    83   41  120 1    
    84   42   43 am   BACKBONE|DICT|INTERRES
    85   42  121 1    
    86   43   44 2    
    87   43   45 1    
    88   45   46 1    
    89   45   47 1    
    90   45  122 1    
    91   46  123 1    
    92   46  124 1    
    93   46  125 1    
    94   47   48 am   BACKBONE|DICT|INTERRES
    95   47  126 1    
    96   48   49 2    
    97   48   50 1    
    98   50   51 1    
    99   50   52 1    
   100   50  127 1    
   101   51  128 1    
   102   51  129 1    
   103   51  130 1    
   104   52   53 am   BACKBONE|DICT|INTERRES
   105   52  131 1    
   106   53   54 2    
   107   53   55 1    
   108   55   56 1    
   109   55   59 1    
   110   55  132 1    
   111   56   57 1    
   112   56  133 1    
   113   56  134 1    
   114   57   58 1    
   115   58  135 1    
   116   58  136 1    
   117   59   60 am   BACKBONE|DICT|INTERRES
   118   59  137 1    
   119   60   61 2    
   120   60   62 1    
   121   62   63 1    
   122   62   64 1    
   123   62  138 1    
   124   63  139 1    
   125   63  140 1    
   126   63  141 1    
   127   64   65 am   BACKBONE|DICT|INTERRES
   128   64  142 1    
   129   65   66 2    
   130   65   67 1    
   131   67   68 1    
   132   67   69 1    
   133   67  143 1    
   134   68  144 1    
   135   68  145 1    
   136   68  146 1    
   137   69   70 am   BACKBONE|DICT|INTERRES
   138   69  147 1    
   139   70   71 2    
   140   70   72 1    
   141   72   73 1    
   142   72   74 1    
   143   72  148 1    
   144   73  149 1    
   145   73  150 1    
   146   73  151 1    
   147   74   75 am   BACKBONE|DICT|INTERRES
   148   74  152 1    
   149   75   76 2    
   150   75   77 1    
   151   77   78 1    
   152   77   79 1    
   153   77  153 1    
   154   78  154 1    
   155   78  155 1    
   156   78  156 1    
   157   79   80 am   BACKBONE|DICT|INTERRES
   158   79  157 1    
   159   80   81 2    
@<TRIPOS>SUBSTRUCTURE
     1 UNK         1 GROUP             0       ****    0 ROOT    
