@<TRIPOS>MOLECULE
3R207
157   159    1
SMALL
USER_CHARGES


@<TRIPOS>ATOM
      1 CA        -46.1104  -30.8575    7.8655 C.3       0 UNK        -0.1975 
      2 C         -47.2229  -30.5793    6.8655 C.2       0 UNK         0.4852 
      3 O         -47.0140  -30.7259    5.6611 O.2       0 UNK        -0.5216 
      4 N         -48.4029  -30.1748    7.3569 N.am      1 UNK        -0.4461 
      5 CA        -49.5883  -29.8503    6.5502 C.3       1 UNK         0.0864 
      6 C6        -50.8675  -29.8437    7.4279 C.3       14 UNK        -0.0898 
      7 S7        -52.3680  -30.2363    6.4669 S.3       14 UNK        -0.2598 
      8 C8        -53.6863  -29.7537    7.6336 C.3       14 UNK         0.0286 
      9 C9        -53.8203  -28.2569    7.9248 C.ar      14 UNK        -0.0844 
     10 C10       -53.2066  -27.2601    7.1531 C.ar      14 UNK        -0.0881 
     11 C11       -53.3486  -25.9089    7.4878 C.ar      14 UNK        -0.0643 
     12 C12       -54.1274  -25.5471    8.5903 C.ar      14 UNK        -0.0930 
     13 C13       -54.7575  -26.5297    9.3574 C.ar      14 UNK        -0.0827 
     14 C14       -54.6021  -27.8749    9.0170 C.ar      14 UNK        -0.1249 
     15 C15       -55.5817  -26.1565   10.5764 C.3       14 UNK         0.0141 
     16 S16       -54.5639  -26.3079   12.0714 S.3       14 UNK        -0.2313 
     17 C17       -55.7340  -27.0153   13.2767 C.3       14 UNK        -0.0915 
     18 CA        -55.7204  -28.5693   13.3956 C.3       13 UNK         0.0968 
     19 C         -56.5961  -29.2852   12.3199 C.2       13 UNK         0.5732 
     20 N         -56.1339  -30.3271   11.6462 N.am      13 UNK        -0.7310 
     21 O         -57.7521  -28.9142   12.1296 O.2       13 UNK        -0.5035 
     22 N         -54.3912  -29.1188   13.7417 N.am      13 UNK        -0.4233 
     23 C         -53.3799  -29.5166   12.9510 C.2       13 UNK         0.4989 
     24 O         -53.4369  -29.5674   11.7238 O.2       13 UNK        -0.4996 
     25 CA        -52.0656  -29.9534   13.6287 C.3       12 UNK         0.0216 
     26 CB        -50.9085  -29.0280   13.2136 C.3       12 UNK        -0.1964 
     27 N         -52.1522  -29.9977   15.0916 N.am      12 UNK        -0.4276 
     28 C         -52.6624  -31.0257   15.7868 C.2       12 UNK         0.5020 
     29 O         -53.0382  -32.0773   15.2677 O.2       12 UNK        -0.5489 
     30 CA        -52.8114  -30.8551   17.3117 C.3       11 UNK         0.0294 
     31 CB        -51.6300  -31.5125   18.0432 C.3       11 UNK        -0.2019 
     32 N         -52.9330  -29.4611   17.7490 N.am      11 UNK        -0.4493 
     33 C         -53.9206  -28.6237   17.4037 C.2       11 UNK         0.4932 
     34 O         -54.8749  -28.9478   16.6966 O.2       11 UNK        -0.5029 
     35 CA        -53.7979  -27.1594   17.8635 C.3       10 UNK         0.0280 
     36 CB        -52.8136  -26.9468   19.0365 C.3       10 UNK        -0.1976 
     37 N         -53.4562  -26.2773   16.7408 N.am      10 UNK        -0.4242 
     38 C         -52.3979  -26.3831   15.9213 C.2       10 UNK         0.5072 
     39 O         -51.5557  -27.2812   16.0050 O.2       10 UNK        -0.5224 
     40 CA        -52.2599  -25.3339   14.7993 C.3       9 UNK         0.0343 
     41 CB        -53.2484  -24.1495   14.8973 C.3       9 UNK        -0.2003 
     42 N         -50.8880  -24.8432   14.6617 N.am      9 UNK        -0.4272 
     43 C         -50.1483  -24.2449   15.6077 C.2       9 UNK         0.4988 
     44 O         -50.5345  -24.0100   16.7541 O.2       9 UNK        -0.5108 
     45 CA        -48.7331  -23.8155   15.1940 C.3       8 UNK         0.0248 
     46 CB        -47.7841  -25.0253   15.1896 C.3       8 UNK        -0.2001 
     47 N         -48.7049  -23.1491   13.8886 N.am      8 UNK        -0.4140 
     48 C         -49.2563  -21.9518   13.6361 C.2       8 UNK         0.5028 
     49 O         -49.8080  -21.2562   14.4902 O.2       8 UNK        -0.5428 
     50 CA        -49.1790  -21.4316   12.1906 C.3       7 UNK         0.0264 
     51 CB        -47.7901  -20.8434   11.8952 C.3       7 UNK        -0.1988 
     52 N         -49.5007  -22.4544   11.1950 N.am      7 UNK        -0.4454 
     53 C         -50.7158  -22.9966   11.0147 C.2       7 UNK         0.5027 
     54 O         -51.7193  -22.6631   11.6449 O.2       7 UNK        -0.5083 
     55 CA        -50.8199  -24.1004    9.9424 C.3       6 UNK         0.0844 
     56 C56       -51.0219  -23.4622    8.5424 C.3       14 UNK        -0.0967 
     57 S57       -50.9173  -24.6442    7.1539 S.3       14 UNK        -0.2604 
     58 C58       -52.6539  -24.8460    6.6534 C.3       14 UNK         0.0134 
     59 N         -49.6627  -24.9958    9.9986 N.am      6 UNK        -0.4116 
     60 C         -49.3653  -25.8110   11.0195 C.2       5 UNK         0.5034 
     61 O         -50.0371  -25.9148   12.0459 O.2       5 UNK        -0.5045 
     62 CA        -48.0558  -26.6033   10.8866 C.3       5 UNK         0.0224 
     63 CB        -48.2472  -27.8193    9.9671 C.3       5 UNK        -0.1978 
     64 N         -46.9565  -25.7684   10.3897 N.am      5 UNK        -0.4737 
     65 C         -46.4295  -24.7495   11.0861 C.2       4 UNK         0.5027 
     66 O         -46.7932  -24.4407   12.2185 O.2       4 UNK        -0.5211 
     67 CA        -45.3471  -23.8991   10.4038 C.3       4 UNK         0.0297 
     68 CB        -43.9537  -24.4816   10.6859 C.3       4 UNK        -0.1993 
     69 N         -45.5292  -23.7488    8.9604 N.am      4 UNK        -0.4486 
     70 C         -46.6099  -23.2426    8.3506 C.2       3 UNK         0.4961 
     71 O         -47.6136  -22.8442    8.9441 O.2       3 UNK        -0.5105 
     72 CA        -46.5702  -23.1903    6.8118 C.3       3 UNK         0.0299 
     73 CB        -45.1389  -23.2106    6.2288 C.3       3 UNK        -0.1972 
     74 N         -47.3751  -24.2382    6.1741 N.am      3 UNK        -0.4305 
     75 C         -47.3629  -25.5559    6.4241 C.2       2 UNK         0.5006 
     76 O         -46.7325  -26.0988    7.3379 O.2       2 UNK        -0.5106 
     77 CA        -48.1676  -26.4206    5.4493 C.3       2 UNK         0.0296 
     78 CB        -47.3666  -26.6660    4.1557 C.3       2 UNK        -0.2002 
     79 N         -48.4744  -27.6905    6.0957 N.am      2 UNK        -0.4032 
     80 C         -49.4390  -28.5434    5.7302 C.2       1 UNK         0.5000 
     81 O         -50.1891  -28.3391    4.7737 O.2       1 UNK        -0.5238 
     82 H82       -46.4491  -30.7495    8.8957 H         1 UNK         0.0889 
     83 H83       -45.2825  -30.1671    7.7060 H         1 UNK         0.0889 
     84 H84       -45.7368  -31.8731    7.7378 H         1 UNK         0.0889 
     85 H85       -48.5196  -30.1008    8.3569 H         1 UNK         0.3028 
     86 H86       -49.6868  -30.6568    5.8197 H         1 UNK         0.0864 
     87 H87       -50.7956  -30.6032    8.2083 H         1 UNK         0.0720 
     88 H88       -50.9852  -28.8915    7.9491 H         1 UNK         0.0720 
     89 H89       -53.5254  -30.2900    8.5707 H         1 UNK         0.0814 
     90 H90       -54.6377  -30.1094    7.2361 H         1 UNK         0.0814 
     91 H91       -52.6012  -27.5233    6.2971 H         1 UNK         0.1469 
     92 H92       -54.2327  -24.5047    8.8580 H         1 UNK         0.1381 
     93 H93       -55.0763  -28.6327    9.6255 H         1 UNK         0.1206 
     94 H94       -55.9589  -25.1360   10.4963 H         1 UNK         0.0813 
     95 H95       -56.4556  -26.8058   10.6377 H         1 UNK         0.0813 
     96 H96       -56.7378  -26.6381   13.0738 H         1 UNK         0.0638 
     97 H97       -55.4686  -26.5954   14.2475 H         1 UNK         0.0638 
     98 H98       -56.2884  -28.7796   14.3025 H         1 UNK         0.0568 
     99 H99       -55.1451  -30.5364   11.6992 H         1 UNK         0.3450 
    100 H100      -56.7238  -30.7921   10.9756 H         1 UNK         0.3450 
    101 H101      -54.2425  -29.1838   14.7413 H         1 UNK         0.2987 
    102 H102      -51.8346  -30.9553   13.2607 H         1 UNK         0.0766 
    103 H103      -49.9669  -29.3335   13.6695 H         1 UNK         0.0798 
    104 H104      -51.0973  -27.9923   13.4942 H         1 UNK         0.0798 
    105 H105      -50.7654  -29.0430   12.1324 H         1 UNK         0.0798 
    106 H106      -51.8747  -29.1515   15.5859 H         1 UNK         0.3198 
    107 H107      -53.7273  -31.3723   17.6058 H         1 UNK         0.0843 
    108 H108      -51.5311  -32.5615   17.7599 H         1 UNK         0.0831 
    109 H109      -51.7649  -31.4833   19.1246 H         1 UNK         0.0831 
    110 H110      -50.6849  -31.0215   17.8072 H         1 UNK         0.0831 
    111 H111      -52.1707  -29.0892   18.2973 H         1 UNK         0.3133 
    112 H112      -54.7898  -26.8616   18.2066 H         1 UNK         0.0566 
    113 H113      -52.8565  -25.9182   19.3952 H         1 UNK         0.0814 
    114 H114      -53.0623  -27.5885   19.8830 H         1 UNK         0.0814 
    115 H115      -51.7788  -27.1472   18.7564 H         1 UNK         0.0814 
    116 H116      -54.1015  -25.5187   16.5721 H         1 UNK         0.3091 
    117 H117      -52.4619  -25.8667   13.8721 H         1 UNK         0.0702 
    118 H118      -53.0974  -23.4529   14.0720 H         1 UNK         0.0785 
    119 H119      -53.1271  -23.5892   15.8252 H         1 UNK         0.0785 
    120 H120      -54.2843  -24.4839   14.8364 H         1 UNK         0.0785 
    121 H121      -50.4544  -25.0426   13.7644 H         1 UNK         0.2998 
    122 H122      -48.3696  -23.1044   15.9390 H         1 UNK         0.0697 
    123 H123      -48.0645  -25.7556   14.4292 H         1 UNK         0.0825 
    124 H124      -47.7960  -25.5357   16.1536 H         1 UNK         0.0825 
    125 H125      -46.7554  -24.7206   14.9965 H         1 UNK         0.0825 
    126 H126      -48.2002  -23.6297   13.1465 H         1 UNK         0.3029 
    127 H127      -49.9137  -20.6297   12.0886 H         1 UNK         0.0897 
    128 H128      -47.7348  -20.4410   10.8835 H         1 UNK         0.0792 
    129 H129      -47.5588  -20.0288   12.5828 H         1 UNK         0.0792 
    130 H130      -47.0046  -21.5913   12.0019 H         1 UNK         0.0792 
    131 H131      -48.7486  -22.7463   10.5767 H         1 UNK         0.3086 
    132 H132      -51.7023  -24.7025   10.1709 H         1 UNK         0.0583 
    133 H133      -51.9784  -22.9381    8.5057 H         1 UNK         0.1020 
    134 H134      -50.2630  -22.6991    8.3572 H         1 UNK         0.1020 
    135 H135      -53.1811  -23.8927    6.7124 H         1 UNK         0.0694 
    136 H136      -52.6792  -25.1390    5.6026 H         1 UNK         0.0694 
    137 H137      -49.0246  -24.9408    9.2184 H         1 UNK         0.2989 
    138 H138      -47.7843  -26.9640   11.8816 H         1 UNK         0.1055 
    139 H139      -49.0142  -28.4865   10.3627 H         1 UNK         0.0806 
    140 H140      -48.5606  -27.5200    8.9674 H         1 UNK         0.0806 
    141 H141      -47.3264  -28.3956    9.8774 H         1 UNK         0.0806 
    142 H142      -46.6373  -25.9290    9.4393 H         1 UNK         0.3061 
    143 H143      -45.3915  -22.8999   10.8402 H         1 UNK         0.0734 
    144 H144      -43.7842  -24.5828   11.7590 H         1 UNK         0.0832 
    145 H145      -43.8317  -25.4708   10.2426 H         1 UNK         0.0832 
    146 H146      -43.1657  -23.8372   10.2957 H         1 UNK         0.0832 
    147 H147      -44.7788  -24.0843    8.3744 H         1 UNK         0.3156 
    148 H148      -47.0241  -22.2382    6.5327 H         1 UNK         0.0589 
    149 H149      -44.6463  -24.1734    6.3706 H         1 UNK         0.0808 
    150 H150      -45.1543  -23.0102    5.1573 H         1 UNK         0.0808 
    151 H151      -44.5130  -22.4418    6.6847 H         1 UNK         0.0808 
    152 H152      -47.9759  -23.9139    5.4290 H         1 UNK         0.3098 
    153 H153      -49.1004  -25.9074    5.2089 H         1 UNK         0.0720 
    154 H154      -47.1064  -25.7262    3.6671 H         1 UNK         0.0791 
    155 H155      -47.9388  -27.2529    3.4370 H         1 UNK         0.0791 
    156 H156      -46.4365  -27.1996    4.3561 H         1 UNK         0.0791 
    157 H157      -47.8869  -27.9030    6.8912 H         1 UNK         0.3028 
@<TRIPOS>BOND
     1    1    2 1    
     2    1   82 1    
     3    1   83 1    
     4    1   84 1    
     5    2    3 2    
     6    2    4 am   BACKBONE|DICT|INTERRES
     7    4    5 1    
     8    4   85 1    
     9    5    6 1    
    10    5   80 1    
    11    5   86 1    
    12    6    7 1    
    13    6   87 1    
    14    6   88 1    
    15    7    8 1    
    16    8    9 1    
    17    8   89 1    
    18    8   90 1    
    19    9   10 ar   
    20    9   14 ar   
    21   10   11 ar   
    22   10   91 1    
    23   11   12 ar   
    24   11   58 1    
    25   12   13 ar   
    26   12   92 1    
    27   13   14 ar   
    28   13   15 1    
    29   14   93 1    
    30   15   16 1    
    31   15   94 1    
    32   15   95 1    
    33   16   17 1    
    34   17   18 1    
    35   17   96 1    
    36   17   97 1    
    37   18   19 1    
    38   18   22 1    
    39   18   98 1    
    40   19   20 am   BACKBONE|DICT|INTERRES
    41   19   21 2    
    42   20   99 1    
    43   20  100 1    
    44   22   23 am   BACKBONE|DICT|INTERRES
    45   22  101 1    
    46   23   24 2    
    47   23   25 1    
    48   25   26 1    
    49   25   27 1    
    50   25  102 1    
    51   26  103 1    
    52   26  104 1    
    53   26  105 1    
    54   27   28 am   BACKBONE|DICT|INTERRES
    55   27  106 1    
    56   28   29 2    
    57   28   30 1    
    58   30   31 1    
    59   30   32 1    
    60   30  107 1    
    61   31  108 1    
    62   31  109 1    
    63   31  110 1    
    64   32   33 am   BACKBONE|DICT|INTERRES
    65   32  111 1    
    66   33   34 2    
    67   33   35 1    
    68   35   36 1    
    69   35   37 1    
    70   35  112 1    
    71   36  113 1    
    72   36  114 1    
    73   36  115 1    
    74   37   38 am   BACKBONE|DICT|INTERRES
    75   37  116 1    
    76   38   39 2    
    77   38   40 1    
    78   40   41 1    
    79   40   42 1    
    80   40  117 1    
    81   41  118 1    
    82   41  119 1    
    83   41  120 1    
    84   42   43 am   BACKBONE|DICT|INTERRES
    85   42  121 1    
    86   43   44 2    
    87   43   45 1    
    88   45   46 1    
    89   45   47 1    
    90   45  122 1    
    91   46  123 1    
    92   46  124 1    
    93   46  125 1    
    94   47   48 am   BACKBONE|DICT|INTERRES
    95   47  126 1    
    96   48   49 2    
    97   48   50 1    
    98   50   51 1    
    99   50   52 1    
   100   50  127 1    
   101   51  128 1    
   102   51  129 1    
   103   51  130 1    
   104   52   53 am   BACKBONE|DICT|INTERRES
   105   52  131 1    
   106   53   54 2    
   107   53   55 1    
   108   55   56 1    
   109   55   59 1    
   110   55  132 1    
   111   56   57 1    
   112   56  133 1    
   113   56  134 1    
   114   57   58 1    
   115   58  135 1    
   116   58  136 1    
   117   59   60 am   BACKBONE|DICT|INTERRES
   118   59  137 1    
   119   60   61 2    
   120   60   62 1    
   121   62   63 1    
   122   62   64 1    
   123   62  138 1    
   124   63  139 1    
   125   63  140 1    
   126   63  141 1    
   127   64   65 am   BACKBONE|DICT|INTERRES
   128   64  142 1    
   129   65   66 2    
   130   65   67 1    
   131   67   68 1    
   132   67   69 1    
   133   67  143 1    
   134   68  144 1    
   135   68  145 1    
   136   68  146 1    
   137   69   70 am   BACKBONE|DICT|INTERRES
   138   69  147 1    
   139   70   71 2    
   140   70   72 1    
   141   72   73 1    
   142   72   74 1    
   143   72  148 1    
   144   73  149 1    
   145   73  150 1    
   146   73  151 1    
   147   74   75 am   BACKBONE|DICT|INTERRES
   148   74  152 1    
   149   75   76 2    
   150   75   77 1    
   151   77   78 1    
   152   77   79 1    
   153   77  153 1    
   154   78  154 1    
   155   78  155 1    
   156   78  156 1    
   157   79   80 am   BACKBONE|DICT|INTERRES
   158   79  157 1    
   159   80   81 2    
@<TRIPOS>SUBSTRUCTURE
     1 UNK         1 GROUP             0       ****    0 ROOT    
