@<TRIPOS>MOLECULE
3R207
157   159    1
SMALL
USER_CHARGES


@<TRIPOS>ATOM
      1 CA        -48.2018  -26.0427    3.3598 C.3       0 UNK        -0.1975 
      2 C         -49.5718  -26.4881    3.8486 C.2       0 UNK         0.4852 
      3 O         -50.5871  -25.9755    3.3776 O.2       0 UNK        -0.5216 
      4 N         -49.6082  -27.4320    4.7983 N.am      1 UNK        -0.4461 
      5 CA        -50.8271  -27.9838    5.4076 C.3       1 UNK         0.0864 
      6 C6        -50.6327  -29.4580    5.8460 C.3       14 UNK        -0.0898 
      7 S7        -49.1946  -29.7443    6.9358 S.3       14 UNK        -0.2598 
      8 C8        -49.6881  -31.2953    7.7555 C.3       14 UNK         0.0286 
      9 C9        -50.1702  -31.0503    9.1776 C.ar      14 UNK        -0.0844 
     10 C10       -49.3813  -31.4452   10.2612 C.ar      14 UNK        -0.0881 
     11 C11       -49.8014  -31.2115   11.5741 C.ar      14 UNK        -0.0643 
     12 C12       -51.0276  -30.5747   11.7976 C.ar      14 UNK        -0.0930 
     13 C13       -51.8323  -30.1816   10.7210 C.ar      14 UNK        -0.0827 
     14 C14       -51.4003  -30.4312    9.4150 C.ar      14 UNK        -0.1249 
     15 C15       -53.1491  -29.4519   10.9527 C.3       14 UNK         0.0141 
     16 S16       -54.3684  -30.4860   11.8262 S.3       14 UNK        -0.2313 
     17 C17       -55.9319  -29.9722   11.0310 C.3       14 UNK        -0.0915 
     18 CA        -56.6446  -28.7676   11.7128 C.3       13 UNK         0.0968 
     19 C         -57.3039  -29.1384   13.0702 C.2       13 UNK         0.5732 
     20 N         -57.0442  -28.4522   14.1730 N.am      13 UNK        -0.7310 
     21 O         -58.1136  -30.0619   13.1192 O.2       13 UNK        -0.5035 
     22 N         -55.8268  -27.5383   11.6844 N.am      13 UNK        -0.4233 
     23 C         -55.6739  -26.7996   10.5733 C.2       13 UNK         0.4989 
     24 O         -56.2938  -27.0248    9.5317 O.2       13 UNK        -0.4996 
     25 CA        -54.6308  -25.6611   10.5668 C.3       12 UNK         0.0216 
     26 CB        -55.0277  -24.5066    9.6208 C.3       12 UNK        -0.1964 
     27 N         -54.2551  -25.1416   11.8838 N.am      12 UNK        -0.4276 
     28 C         -55.0351  -24.4816   12.7507 C.2       12 UNK         0.5020 
     29 O         -56.2312  -24.2485   12.5642 O.2       12 UNK        -0.5489 
     30 CA        -54.3506  -24.0250   14.0559 C.3       11 UNK         0.0294 
     31 CB        -55.3543  -23.5057   15.1067 C.3       11 UNK        -0.2019 
     32 N         -53.4846  -25.0524   14.6502 N.am      11 UNK        -0.4493 
     33 C         -53.8354  -26.3079   14.9708 C.2       11 UNK         0.4932 
     34 O         -54.9487  -26.7730   14.7338 O.2       11 UNK        -0.5029 
     35 CA        -52.7901  -27.2253   15.6328 C.3       10 UNK         0.0280 
     36 CB        -52.6183  -28.5193   14.8191 C.3       10 UNK        -0.1976 
     37 N         -51.4796  -26.5991   15.8082 N.am      10 UNK        -0.4242 
     38 C         -51.1526  -25.7297   16.7727 C.2       10 UNK         0.5072 
     39 O         -51.9132  -25.3876   17.6785 O.2       10 UNK        -0.5224 
     40 CA        -49.7508  -25.1011   16.6798 C.3       9 UNK         0.0343 
     41 CB        -48.6917  -26.0352   17.2872 C.3       9 UNK        -0.2003 
     42 N         -49.3666  -24.7474   15.3083 N.am      9 UNK        -0.4272 
     43 C         -50.0020  -23.8481   14.5405 C.2       9 UNK         0.4988 
     44 O         -50.9974  -23.2186   14.8974 O.2       9 UNK        -0.5108 
     45 CA        -49.4540  -23.6509   13.1187 C.3       8 UNK         0.0248 
     46 CB        -48.1257  -22.8765   13.1563 C.3       8 UNK        -0.2001 
     47 N         -49.2802  -24.9344   12.4360 N.am      8 UNK        -0.4140 
     48 C         -50.2968  -25.7226   12.0531 C.2       8 UNK         0.5028 
     49 O         -51.4787  -25.3787   12.0809 O.2       8 UNK        -0.5428 
     50 CA        -49.9521  -27.1507   11.6074 C.3       7 UNK         0.0264 
     51 CB        -49.8883  -27.2655   10.0774 C.3       7 UNK        -0.1988 
     52 N         -48.7112  -27.6481   12.2052 N.am      7 UNK        -0.4454 
     53 C         -48.5942  -27.9847   13.4995 C.2       7 UNK         0.5027 
     54 O         -49.5217  -27.8955   14.3014 O.2       7 UNK        -0.5083 
     55 CA        -47.2230  -28.4667   14.0155 C.3       6 UNK         0.0844 
     56 C56       -47.2009  -29.9968   14.2445 C.3       14 UNK        -0.0967 
     57 S57       -47.2589  -30.9888   12.7090 S.3       14 UNK        -0.2604 
     58 C58       -48.9470  -31.6882   12.7427 C.3       14 UNK         0.0134 
     59 N         -46.1018  -28.0062   13.1950 N.am      6 UNK        -0.4116 
     60 C         -45.7119  -26.7292   13.0903 C.2       5 UNK         0.5034 
     61 O         -46.2350  -25.8086   13.7230 O.2       5 UNK        -0.5045 
     62 CA        -44.5773  -26.4122   12.0914 C.3       5 UNK         0.0224 
     63 CB        -44.1564  -27.6146   11.2141 C.3       5 UNK        -0.1978 
     64 N         -44.8898  -25.2607   11.2326 N.am      5 UNK        -0.4737 
     65 C         -45.9951  -25.0910   10.4945 C.2       4 UNK         0.5027 
     66 O         -46.9348  -25.8881   10.4567 O.2       4 UNK        -0.5211 
     67 CA        -46.0605  -23.8231    9.6416 C.3       4 UNK         0.0297 
     68 CB        -45.4578  -24.0689    8.2471 C.3       4 UNK        -0.1993 
     69 N         -47.4603  -23.4320    9.5188 N.am      4 UNK        -0.4486 
     70 C         -47.9022  -22.1894    9.3017 C.2       3 UNK         0.4961 
     71 O         -47.1515  -21.2274    9.1293 O.2       3 UNK        -0.5105 
     72 CA        -49.4307  -21.9675    9.3205 C.3       3 UNK         0.0299 
     73 CB        -49.8546  -20.7572    8.4609 C.3       3 UNK        -0.1972 
     74 N         -50.2478  -23.1410    8.9756 N.am      3 UNK        -0.4305 
     75 C         -50.2177  -23.8366    7.8297 C.2       2 UNK         0.5006 
     76 O         -49.3898  -23.6737    6.9296 O.2       2 UNK        -0.5106 
     77 CA        -51.3420  -24.8574    7.6354 C.3       2 UNK         0.0296 
     78 CB        -52.5787  -24.1679    7.0273 C.3       2 UNK        -0.2002 
     79 N         -50.8635  -25.8985    6.7340 N.am      2 UNK        -0.4032 
     80 C         -51.4312  -27.0915    6.5202 C.2       1 UNK         0.5000 
     81 O         -52.4179  -27.4883    7.1436 O.2       1 UNK        -0.5238 
     82 H82       -47.3964  -26.5946    3.8443 H         1 UNK         0.0889 
     83 H83       -48.0576  -24.9822    3.5650 H         1 UNK         0.0889 
     84 H84       -48.1187  -26.1968    2.2842 H         1 UNK         0.0889 
     85 H85       -48.7451  -27.8193    5.1556 H         1 UNK         0.3028 
     86 H86       -51.5957  -28.0022    4.6317 H         1 UNK         0.0864 
     87 H87       -50.4906  -30.0762    4.9582 H         1 UNK         0.0720 
     88 H88       -51.5394  -29.8399    6.3174 H         1 UNK         0.0720 
     89 H89       -48.8301  -31.9692    7.7563 H         1 UNK         0.0814 
     90 H90       -50.4653  -31.8045    7.1840 H         1 UNK         0.0814 
     91 H91       -48.4328  -31.9346   10.0870 H         1 UNK         0.1469 
     92 H92       -51.3605  -30.3872   12.8088 H         1 UNK         0.1381 
     93 H93       -52.0104  -30.1189    8.5791 H         1 UNK         0.1206 
     94 H94       -53.5588  -29.1169    9.9989 H         1 UNK         0.0813 
     95 H95       -52.9714  -28.5470   11.5331 H         1 UNK         0.0813 
     96 H96       -55.7438  -29.7496    9.9801 H         1 UNK         0.0638 
     97 H97       -56.5935  -30.8400   11.0134 H         1 UNK         0.0638 
     98 H98       -57.5234  -28.5568   11.1003 H         1 UNK         0.0568 
     99 H99       -56.3364  -27.7231   14.2195 H         1 UNK         0.3450 
    100 H100      -57.5152  -28.7228   15.0206 H         1 UNK         0.3450 
    101 H101      -55.3382  -27.2918   12.5348 H         1 UNK         0.2987 
    102 H102      -53.7203  -26.1075   10.1636 H         1 UNK         0.0766 
    103 H103      -55.9817  -24.0613    9.9042 H         1 UNK         0.0798 
    104 H104      -54.2775  -23.7168    9.6224 H         1 UNK         0.0798 
    105 H105      -55.1309  -24.8572    8.5937 H         1 UNK         0.0798 
    106 H106      -53.2692  -25.2610   12.1258 H         1 UNK         0.3198 
    107 H107      -53.6971  -23.1951   13.7820 H         1 UNK         0.0843 
    108 H108      -55.9310  -22.6662   14.7166 H         1 UNK         0.0831 
    109 H109      -54.8434  -23.1574   16.0044 H         1 UNK         0.0831 
    110 H110      -56.0641  -24.2791   15.4027 H         1 UNK         0.0831 
    111 H111      -52.5364  -24.7529   14.8453 H         1 UNK         0.3133 
    112 H112      -53.1787  -27.4952   16.6167 H         1 UNK         0.0566 
    113 H113      -51.9116  -29.1984   15.2963 H         1 UNK         0.0814 
    114 H114      -53.5630  -29.0557   14.7181 H         1 UNK         0.0814 
    115 H115      -52.2529  -28.3090   13.8149 H         1 UNK         0.0814 
    116 H116      -50.7553  -26.8889   15.1523 H         1 UNK         0.3091 
    117 H117      -49.7645  -24.1782   17.2636 H         1 UNK         0.0702 
    118 H118      -47.7031  -25.5758   17.2775 H         1 UNK         0.0785 
    119 H119      -48.6281  -26.9813   16.7492 H         1 UNK         0.0785 
    120 H120      -48.9298  -26.2683   18.3260 H         1 UNK         0.0785 
    121 H121      -48.5586  -25.2194   14.9268 H         1 UNK         0.2998 
    122 H122      -50.1789  -23.0591   12.5557 H         1 UNK         0.0697 
    123 H123      -47.3546  -23.4089   13.7132 H         1 UNK         0.0825 
    124 H124      -48.2577  -21.9058   13.6363 H         1 UNK         0.0825 
    125 H125      -47.7390  -22.6879   12.1581 H         1 UNK         0.0825 
    126 H126      -48.3396  -25.3024   12.3660 H         1 UNK         0.3029 
    127 H127      -50.7587  -27.7944   11.9559 H         1 UNK         0.0897 
    128 H128      -49.4651  -28.2203    9.7660 H         1 UNK         0.0792 
    129 H129      -49.2940  -26.4743    9.6221 H         1 UNK         0.0792 
    130 H130      -50.8905  -27.2135    9.6530 H         1 UNK         0.0792 
    131 H131      -47.8990  -27.6835   11.6026 H         1 UNK         0.3086 
    132 H132      -47.0974  -28.0048   14.9972 H         1 UNK         0.0583 
    133 H133      -46.2814  -30.2635   14.7680 H         1 UNK         0.1020 
    134 H134      -48.0020  -30.2910   14.9248 H         1 UNK         0.1020 
    135 H135      -48.8698  -32.7751   12.6936 H         1 UNK         0.0694 
    136 H136      -49.4395  -31.4663   13.6899 H         1 UNK         0.0694 
    137 H137      -45.6460  -28.7078   12.6296 H         1 UNK         0.2989 
    138 H138      -43.7180  -26.1250   12.6996 H         1 UNK         0.1055 
    139 H139      -43.7894  -28.4450   11.8188 H         1 UNK         0.0806 
    140 H140      -43.3456  -27.3388   10.5396 H         1 UNK         0.0806 
    141 H141      -44.9799  -27.9816   10.5995 H         1 UNK         0.0806 
    142 H142      -44.1925  -24.5288   11.2197 H         1 UNK         0.3061 
    143 H143      -45.5054  -23.0311   10.1493 H         1 UNK         0.0734 
    144 H144      -45.4826  -23.1648    7.6386 H         1 UNK         0.0832 
    145 H145      -44.4159  -24.3832    8.3192 H         1 UNK         0.0832 
    146 H146      -45.9994  -24.8482    7.7091 H         1 UNK         0.0832 
    147 H147      -48.1180  -24.1837    9.6796 H         1 UNK         0.3156 
    148 H148      -49.6765  -21.7302   10.3565 H         1 UNK         0.0589 
    149 H149      -49.5886  -20.8962    7.4124 H         1 UNK         0.0808 
    150 H150      -50.9302  -20.5886    8.5143 H         1 UNK         0.0808 
    151 H151      -49.3700  -19.8411    8.8009 H         1 UNK         0.0808 
    152 H152      -50.9636  -23.3752    9.6502 H         1 UNK         0.3098 
    153 H153      -51.6031  -25.2968    8.5990 H         1 UNK         0.0720 
    154 H154      -53.4091  -24.8643    6.9131 H         1 UNK         0.0791 
    155 H155      -52.3596  -23.7507    6.0434 H         1 UNK         0.0791 
    156 H156      -52.9249  -23.3473    7.6562 H         1 UNK         0.0791 
    157 H157      -50.0430  -25.6381    6.2011 H         1 UNK         0.3028 
@<TRIPOS>BOND
     1    1    2 1    
     2    1   82 1    
     3    1   83 1    
     4    1   84 1    
     5    2    3 2    
     6    2    4 am   BACKBONE|DICT|INTERRES
     7    4    5 1    
     8    4   85 1    
     9    5    6 1    
    10    5   80 1    
    11    5   86 1    
    12    6    7 1    
    13    6   87 1    
    14    6   88 1    
    15    7    8 1    
    16    8    9 1    
    17    8   89 1    
    18    8   90 1    
    19    9   10 ar   
    20    9   14 ar   
    21   10   11 ar   
    22   10   91 1    
    23   11   12 ar   
    24   11   58 1    
    25   12   13 ar   
    26   12   92 1    
    27   13   14 ar   
    28   13   15 1    
    29   14   93 1    
    30   15   16 1    
    31   15   94 1    
    32   15   95 1    
    33   16   17 1    
    34   17   18 1    
    35   17   96 1    
    36   17   97 1    
    37   18   19 1    
    38   18   22 1    
    39   18   98 1    
    40   19   20 am   BACKBONE|DICT|INTERRES
    41   19   21 2    
    42   20   99 1    
    43   20  100 1    
    44   22   23 am   BACKBONE|DICT|INTERRES
    45   22  101 1    
    46   23   24 2    
    47   23   25 1    
    48   25   26 1    
    49   25   27 1    
    50   25  102 1    
    51   26  103 1    
    52   26  104 1    
    53   26  105 1    
    54   27   28 am   BACKBONE|DICT|INTERRES
    55   27  106 1    
    56   28   29 2    
    57   28   30 1    
    58   30   31 1    
    59   30   32 1    
    60   30  107 1    
    61   31  108 1    
    62   31  109 1    
    63   31  110 1    
    64   32   33 am   BACKBONE|DICT|INTERRES
    65   32  111 1    
    66   33   34 2    
    67   33   35 1    
    68   35   36 1    
    69   35   37 1    
    70   35  112 1    
    71   36  113 1    
    72   36  114 1    
    73   36  115 1    
    74   37   38 am   BACKBONE|DICT|INTERRES
    75   37  116 1    
    76   38   39 2    
    77   38   40 1    
    78   40   41 1    
    79   40   42 1    
    80   40  117 1    
    81   41  118 1    
    82   41  119 1    
    83   41  120 1    
    84   42   43 am   BACKBONE|DICT|INTERRES
    85   42  121 1    
    86   43   44 2    
    87   43   45 1    
    88   45   46 1    
    89   45   47 1    
    90   45  122 1    
    91   46  123 1    
    92   46  124 1    
    93   46  125 1    
    94   47   48 am   BACKBONE|DICT|INTERRES
    95   47  126 1    
    96   48   49 2    
    97   48   50 1    
    98   50   51 1    
    99   50   52 1    
   100   50  127 1    
   101   51  128 1    
   102   51  129 1    
   103   51  130 1    
   104   52   53 am   BACKBONE|DICT|INTERRES
   105   52  131 1    
   106   53   54 2    
   107   53   55 1    
   108   55   56 1    
   109   55   59 1    
   110   55  132 1    
   111   56   57 1    
   112   56  133 1    
   113   56  134 1    
   114   57   58 1    
   115   58  135 1    
   116   58  136 1    
   117   59   60 am   BACKBONE|DICT|INTERRES
   118   59  137 1    
   119   60   61 2    
   120   60   62 1    
   121   62   63 1    
   122   62   64 1    
   123   62  138 1    
   124   63  139 1    
   125   63  140 1    
   126   63  141 1    
   127   64   65 am   BACKBONE|DICT|INTERRES
   128   64  142 1    
   129   65   66 2    
   130   65   67 1    
   131   67   68 1    
   132   67   69 1    
   133   67  143 1    
   134   68  144 1    
   135   68  145 1    
   136   68  146 1    
   137   69   70 am   BACKBONE|DICT|INTERRES
   138   69  147 1    
   139   70   71 2    
   140   70   72 1    
   141   72   73 1    
   142   72   74 1    
   143   72  148 1    
   144   73  149 1    
   145   73  150 1    
   146   73  151 1    
   147   74   75 am   BACKBONE|DICT|INTERRES
   148   74  152 1    
   149   75   76 2    
   150   75   77 1    
   151   77   78 1    
   152   77   79 1    
   153   77  153 1    
   154   78  154 1    
   155   78  155 1    
   156   78  156 1    
   157   79   80 am   BACKBONE|DICT|INTERRES
   158   79  157 1    
   159   80   81 2    
@<TRIPOS>SUBSTRUCTURE
     1 UNK         1 GROUP             0       ****    0 ROOT    
