@<TRIPOS>MOLECULE
3R207
157   159    1
SMALL
USER_CHARGES


@<TRIPOS>ATOM
      1 CA        -44.1511  -28.9557    7.0599 C.3       0 UNK        -0.1975 
      2 C         -45.5490  -28.7852    6.4853 C.2       0 UNK         0.4852 
      3 O         -45.6923  -28.3628    5.3365 O.2       0 UNK        -0.5216 
      4 N         -46.5828  -29.1055    7.2766 N.am      1 UNK        -0.4461 
      5 CA        -47.9990  -28.9289    6.9383 C.3       1 UNK         0.0864 
      6 C6        -48.9235  -29.4982    8.0450 C.3       14 UNK        -0.0898 
      7 S7        -50.5232  -30.0520    7.3719 S.3       14 UNK        -0.2598 
      8 C8        -51.5992  -29.9033    8.8414 C.3       14 UNK         0.0286 
      9 C9        -52.1300  -28.5021    9.1578 C.ar      14 UNK        -0.0844 
     10 C10       -51.9627  -27.4039    8.3022 C.ar      14 UNK        -0.0881 
     11 C11       -52.5052  -26.1569    8.6265 C.ar      14 UNK        -0.0643 
     12 C12       -53.2338  -26.0072    9.8090 C.ar      14 UNK        -0.0930 
     13 C13       -53.4006  -27.0868   10.6782 C.ar      14 UNK        -0.0827 
     14 C14       -52.8438  -28.3258   10.3478 C.ar      14 UNK        -0.1249 
     15 C15       -54.1720  -26.9058   11.9775 C.3       14 UNK         0.0141 
     16 S16       -55.9234  -27.3662   11.7908 S.3       14 UNK        -0.2313 
     17 C17       -55.8139  -29.1877   11.8369 C.3       14 UNK        -0.0915 
     18 CA        -57.0999  -29.8543   12.3868 C.3       13 UNK         0.0968 
     19 C         -57.0071  -31.4003   12.2692 C.2       13 UNK         0.5732 
     20 N         -57.3789  -31.9573   11.1246 N.am      13 UNK        -0.7310 
     21 O         -56.5666  -32.0930   13.1854 O.2       13 UNK        -0.5035 
     22 N         -57.3987  -29.4097   13.7551 N.am      13 UNK        -0.4233 
     23 C         -58.5632  -29.6185   14.3867 C.2       13 UNK         0.4989 
     24 O         -59.5263  -30.1882   13.8708 O.2       13 UNK        -0.4996 
     25 CA        -58.7010  -29.1029   15.8339 C.3       12 UNK         0.0216 
     26 CB        -58.5603  -30.2647   16.8316 C.3       12 UNK        -0.1964 
     27 N         -57.7354  -28.0587   16.1814 N.am      12 UNK        -0.4276 
     28 C         -57.7012  -26.8275   15.6547 C.2       12 UNK         0.5020 
     29 O         -58.5761  -26.3819   14.9109 O.2       12 UNK        -0.5489 
     30 CA        -56.4846  -25.9434   15.9969 C.3       11 UNK         0.0294 
     31 CB        -56.9107  -24.7623   16.8853 C.3       11 UNK        -0.2019 
     32 N         -55.3566  -26.6366   16.6373 N.am      11 UNK        -0.4493 
     33 C         -54.6308  -27.6246   16.0963 C.2       11 UNK         0.4932 
     34 O         -54.8945  -28.1668   15.0223 O.2       11 UNK        -0.5029 
     35 CA        -53.4503  -28.1398   16.9328 C.3       10 UNK         0.0280 
     36 CB        -53.8291  -29.4530   17.6369 C.3       10 UNK        -0.1976 
     37 N         -52.2615  -28.3578   16.1070 N.am      10 UNK        -0.4242 
     38 C         -51.5432  -27.3820   15.5356 C.2       10 UNK         0.5072 
     39 O         -51.7979  -26.1808   15.6545 O.2       10 UNK        -0.5224 
     40 CA        -50.3492  -27.8382   14.6761 C.3       9 UNK         0.0343 
     41 CB        -50.7904  -28.0880   13.2252 C.3       9 UNK        -0.2003 
     42 N         -49.2552  -26.8667   14.6679 N.am      9 UNK        -0.4272 
     43 C         -48.5280  -26.4976   15.7316 C.2       9 UNK         0.4988 
     44 O         -48.6554  -26.9850   16.8559 O.2       9 UNK        -0.5108 
     45 CA        -47.4667  -25.4102   15.5018 C.3       8 UNK         0.0248 
     46 CB        -46.1465  -26.0379   15.0232 C.3       8 UNK        -0.2001 
     47 N         -47.9117  -24.4124   14.5262 N.am      8 UNK        -0.4140 
     48 C         -48.5664  -23.2839   14.8331 C.2       8 UNK         0.5028 
     49 O         -48.8388  -22.9443   15.9855 O.2       8 UNK        -0.5428 
     50 CA        -48.9669  -22.3540   13.6716 C.3       7 UNK         0.0264 
     51 CB        -47.9473  -21.2125   13.5254 C.3       7 UNK        -0.1988 
     52 N         -49.0915  -23.0435   12.3858 N.am      7 UNK        -0.4454 
     53 C         -50.1384  -23.8070   12.0319 C.2       7 UNK         0.5027 
     54 O         -51.1353  -23.9667   12.7352 O.2       7 UNK        -0.5083 
     55 CA        -50.0608  -24.5119   10.6582 C.3       6 UNK         0.0844 
     56 C56       -50.6978  -23.5840    9.5890 C.3       14 UNK        -0.0967 
     57 S57       -50.6366  -24.2517    7.8941 S.3       14 UNK        -0.2604 
     58 C58       -52.2973  -24.9693    7.7000 C.3       14 UNK         0.0134 
     59 N         -48.7002  -24.9276   10.2954 N.am      6 UNK        -0.4116 
     60 C         -47.8411  -25.6181   11.0586 C.2       5 UNK         0.5034 
     61 O         -48.1411  -26.1133   12.1440 O.2       5 UNK        -0.5045 
     62 CA        -46.3743  -25.6975   10.5973 C.3       5 UNK         0.0224 
     63 CB        -46.0014  -27.1312   10.1988 C.3       5 UNK        -0.1978 
     64 N         -46.0175  -24.7681    9.5174 N.am      5 UNK        -0.4737 
     65 C         -46.0494  -23.4314    9.6002 C.2       4 UNK         0.5027 
     66 O         -46.4432  -22.8325   10.6034 O.2       4 UNK        -0.5211 
     67 CA        -45.6122  -22.6088    8.3722 C.3       4 UNK         0.0297 
     68 CB        -44.2315  -21.9681    8.6140 C.3       4 UNK        -0.1993 
     69 N         -45.6509  -23.3001    7.0720 N.am      4 UNK        -0.4486 
     70 C         -44.9010  -24.3176    6.6266 C.2       3 UNK         0.4961 
     71 O         -44.1031  -24.9443    7.3245 O.2       3 UNK        -0.5105 
     72 CA        -45.1149  -24.7133    5.1546 C.3       3 UNK         0.0299 
     73 CB        -43.9511  -25.5501    4.5923 C.3       3 UNK        -0.1972 
     74 N         -46.3701  -25.4476    4.9909 N.am      3 UNK        -0.4305 
     75 C         -47.5842  -24.8765    4.9469 C.2       2 UNK         0.5006 
     76 O         -47.7559  -23.6567    4.9901 O.2       2 UNK        -0.5106 
     77 CA        -48.8157  -25.7984    4.8397 C.3       2 UNK         0.0296 
     78 CB        -49.2925  -25.8874    3.3811 C.3       2 UNK        -0.2002 
     79 N         -48.6058  -27.1517    5.3603 N.am      2 UNK        -0.4032 
     80 C         -48.3065  -27.4476    6.6329 C.2       1 UNK         0.5000 
     81 O         -48.2082  -26.6097    7.5306 O.2       1 UNK        -0.5238 
     82 H82       -43.5320  -29.5367    6.3769 H         1 UNK         0.0889 
     83 H83       -44.1653  -29.4666    8.0224 H         1 UNK         0.0889 
     84 H84       -43.6846  -27.9807    7.1998 H         1 UNK         0.0889 
     85 H85       -46.3980  -29.4481    8.2078 H         1 UNK         0.3028 
     86 H86       -48.1580  -29.5117    6.0281 H         1 UNK         0.0864 
     87 H87       -49.0792  -28.7796    8.8532 H         1 UNK         0.0720 
     88 H88       -48.4654  -30.3732    8.5090 H         1 UNK         0.0720 
     89 H89       -51.0652  -30.2942    9.7091 H         1 UNK         0.0814 
     90 H90       -52.4572  -30.5600    8.6913 H         1 UNK         0.0814 
     91 H91       -51.4101  -27.5003    7.3793 H         1 UNK         0.1469 
     92 H92       -53.6598  -25.0459   10.0612 H         1 UNK         0.1381 
     93 H93       -52.9769  -29.1636   11.0180 H         1 UNK         0.1206 
     94 H94       -54.1155  -25.8661   12.3037 H         1 UNK         0.0813 
     95 H95       -53.7135  -27.4908   12.7745 H         1 UNK         0.0813 
     96 H96       -55.6066  -29.5296   10.8213 H         1 UNK         0.0638 
     97 H97       -54.9562  -29.4821   12.4445 H         1 UNK         0.0638 
     98 H98       -57.9338  -29.5304   11.7606 H         1 UNK         0.0568 
     99 H99       -57.7303  -31.3991   10.3622 H         1 UNK         0.3450 
    100 H100      -57.3127  -32.9579   11.0234 H         1 UNK         0.3450 
    101 H101      -56.6394  -28.9467   14.2424 H         1 UNK         0.2987 
    102 H102      -59.7030  -28.6808   15.9353 H         1 UNK         0.0766 
    103 H103      -59.2902  -31.0484   16.6231 H         1 UNK         0.0798 
    104 H104      -58.7291  -29.9327   17.8562 H         1 UNK         0.0798 
    105 H105      -57.5706  -30.7212   16.7828 H         1 UNK         0.0798 
    106 H106      -56.9714  -28.3274   16.7835 H         1 UNK         0.3198 
    107 H107      -56.1184  -25.5429   15.0489 H         1 UNK         0.0843 
    108 H108      -57.7215  -24.1969   16.4234 H         1 UNK         0.0831 
    109 H109      -56.0871  -24.0662   17.0453 H         1 UNK         0.0831 
    110 H110      -57.2641  -25.0985   17.8610 H         1 UNK         0.0831 
    111 H111      -55.0737  -26.2791   17.5391 H         1 UNK         0.3133 
    112 H112      -53.2003  -27.3984   17.6948 H         1 UNK         0.0566 
    113 H113      -53.0128  -29.8204   18.2592 H         1 UNK         0.0814 
    114 H114      -54.0853  -30.2362   16.9217 H         1 UNK         0.0814 
    115 H115      -54.6922  -29.3132   18.2891 H         1 UNK         0.0814 
    116 H116      -52.0115  -29.3184   15.9228 H         1 UNK         0.3091 
    117 H117      -49.9588  -28.7705   15.0893 H         1 UNK         0.0702 
    118 H118      -49.9676  -28.4649   12.6171 H         1 UNK         0.0785 
    119 H119      -51.1554  -27.1727   12.7568 H         1 UNK         0.0785 
    120 H120      -51.5924  -28.8255   13.1787 H         1 UNK         0.0785 
    121 H121      -49.0318  -26.4523   13.7679 H         1 UNK         0.2998 
    122 H122      -47.2761  -24.9220   16.4601 H         1 UNK         0.0697 
    123 H123      -46.2643  -26.5638   14.0750 H         1 UNK         0.0825 
    124 H124      -45.7742  -26.7604   15.7507 H         1 UNK         0.0825 
    125 H125      -45.3722  -25.2816   14.8934 H         1 UNK         0.0825 
    126 H126      -47.7904  -24.6534   13.5506 H         1 UNK         0.3029 
    127 H127      -49.9347  -21.9152   13.9251 H         1 UNK         0.0897 
    128 H128      -46.9590  -21.5867   13.2542 H         1 UNK         0.0792 
    129 H129      -47.8425  -20.6590   14.4596 H         1 UNK         0.0792 
    130 H130      -48.2566  -20.4998   12.7606 H         1 UNK         0.0792 
    131 H131      -48.3084  -22.9572   11.7455 H         1 UNK         0.3086 
    132 H132      -50.6500  -25.4269   10.7313 H         1 UNK         0.0583 
    133 H133      -51.7350  -23.3596    9.8451 H         1 UNK         0.1020 
    134 H134      -50.1842  -22.6205    9.5694 H         1 UNK         0.1020 
    135 H135      -53.0513  -24.2003    7.8748 H         1 UNK         0.0694 
    136 H136      -52.4224  -25.2898    6.6647 H         1 UNK         0.0694 
    137 H137      -48.3813  -24.6377    9.3817 H         1 UNK         0.2989 
    138 H138      -45.7649  -25.4244   11.4615 H         1 UNK         0.1055 
    139 H139      -46.6334  -27.4875    9.3899 H         1 UNK         0.0806 
    140 H140      -44.9616  -27.2038    9.8794 H         1 UNK         0.0806 
    141 H141      -46.1343  -27.8153   11.0381 H         1 UNK         0.0806 
    142 H142      -45.6367  -25.1699    8.6682 H         1 UNK         0.3061 
    143 H143      -46.3367  -21.7973    8.2873 H         1 UNK         0.0734 
    144 H144      -43.4489  -22.7189    8.7282 H         1 UNK         0.0832 
    145 H145      -43.9491  -21.3097    7.7927 H         1 UNK         0.0832 
    146 H146      -44.2354  -21.3662    9.5239 H         1 UNK         0.0832 
    147 H147      -46.3530  -22.9559    6.4240 H         1 UNK         0.3156 
    148 H148      -45.1627  -23.7942    4.5664 H         1 UNK         0.0589 
    149 H149      -44.1090  -25.7944    3.5418 H         1 UNK         0.0808 
    150 H150      -43.0113  -25.0007    4.6602 H         1 UNK         0.0808 
    151 H151      -43.8175  -26.4848    5.1359 H         1 UNK         0.0808 
    152 H152      -46.3009  -26.4613    4.9961 H         1 UNK         0.3098 
    153 H153      -49.6134  -25.3420    5.4264 H         1 UNK         0.0720 
    154 H154      -48.5472  -26.3610    2.7407 H         1 UNK         0.0791 
    155 H155      -49.4886  -24.8944    2.9738 H         1 UNK         0.0791 
    156 H156      -50.2188  -26.4565    3.2996 H         1 UNK         0.0791 
    157 H157      -48.6277  -27.9009    4.6833 H         1 UNK         0.3028 
@<TRIPOS>BOND
     1    1    2 1    
     2    1   82 1    
     3    1   83 1    
     4    1   84 1    
     5    2    3 2    
     6    2    4 am   BACKBONE|DICT|INTERRES
     7    4    5 1    
     8    4   85 1    
     9    5    6 1    
    10    5   80 1    
    11    5   86 1    
    12    6    7 1    
    13    6   87 1    
    14    6   88 1    
    15    7    8 1    
    16    8    9 1    
    17    8   89 1    
    18    8   90 1    
    19    9   10 ar   
    20    9   14 ar   
    21   10   11 ar   
    22   10   91 1    
    23   11   12 ar   
    24   11   58 1    
    25   12   13 ar   
    26   12   92 1    
    27   13   14 ar   
    28   13   15 1    
    29   14   93 1    
    30   15   16 1    
    31   15   94 1    
    32   15   95 1    
    33   16   17 1    
    34   17   18 1    
    35   17   96 1    
    36   17   97 1    
    37   18   19 1    
    38   18   22 1    
    39   18   98 1    
    40   19   20 am   BACKBONE|DICT|INTERRES
    41   19   21 2    
    42   20   99 1    
    43   20  100 1    
    44   22   23 am   BACKBONE|DICT|INTERRES
    45   22  101 1    
    46   23   24 2    
    47   23   25 1    
    48   25   26 1    
    49   25   27 1    
    50   25  102 1    
    51   26  103 1    
    52   26  104 1    
    53   26  105 1    
    54   27   28 am   BACKBONE|DICT|INTERRES
    55   27  106 1    
    56   28   29 2    
    57   28   30 1    
    58   30   31 1    
    59   30   32 1    
    60   30  107 1    
    61   31  108 1    
    62   31  109 1    
    63   31  110 1    
    64   32   33 am   BACKBONE|DICT|INTERRES
    65   32  111 1    
    66   33   34 2    
    67   33   35 1    
    68   35   36 1    
    69   35   37 1    
    70   35  112 1    
    71   36  113 1    
    72   36  114 1    
    73   36  115 1    
    74   37   38 am   BACKBONE|DICT|INTERRES
    75   37  116 1    
    76   38   39 2    
    77   38   40 1    
    78   40   41 1    
    79   40   42 1    
    80   40  117 1    
    81   41  118 1    
    82   41  119 1    
    83   41  120 1    
    84   42   43 am   BACKBONE|DICT|INTERRES
    85   42  121 1    
    86   43   44 2    
    87   43   45 1    
    88   45   46 1    
    89   45   47 1    
    90   45  122 1    
    91   46  123 1    
    92   46  124 1    
    93   46  125 1    
    94   47   48 am   BACKBONE|DICT|INTERRES
    95   47  126 1    
    96   48   49 2    
    97   48   50 1    
    98   50   51 1    
    99   50   52 1    
   100   50  127 1    
   101   51  128 1    
   102   51  129 1    
   103   51  130 1    
   104   52   53 am   BACKBONE|DICT|INTERRES
   105   52  131 1    
   106   53   54 2    
   107   53   55 1    
   108   55   56 1    
   109   55   59 1    
   110   55  132 1    
   111   56   57 1    
   112   56  133 1    
   113   56  134 1    
   114   57   58 1    
   115   58  135 1    
   116   58  136 1    
   117   59   60 am   BACKBONE|DICT|INTERRES
   118   59  137 1    
   119   60   61 2    
   120   60   62 1    
   121   62   63 1    
   122   62   64 1    
   123   62  138 1    
   124   63  139 1    
   125   63  140 1    
   126   63  141 1    
   127   64   65 am   BACKBONE|DICT|INTERRES
   128   64  142 1    
   129   65   66 2    
   130   65   67 1    
   131   67   68 1    
   132   67   69 1    
   133   67  143 1    
   134   68  144 1    
   135   68  145 1    
   136   68  146 1    
   137   69   70 am   BACKBONE|DICT|INTERRES
   138   69  147 1    
   139   70   71 2    
   140   70   72 1    
   141   72   73 1    
   142   72   74 1    
   143   72  148 1    
   144   73  149 1    
   145   73  150 1    
   146   73  151 1    
   147   74   75 am   BACKBONE|DICT|INTERRES
   148   74  152 1    
   149   75   76 2    
   150   75   77 1    
   151   77   78 1    
   152   77   79 1    
   153   77  153 1    
   154   78  154 1    
   155   78  155 1    
   156   78  156 1    
   157   79   80 am   BACKBONE|DICT|INTERRES
   158   79  157 1    
   159   80   81 2    
@<TRIPOS>SUBSTRUCTURE
     1 UNK         1 GROUP             0       ****    0 ROOT    
