@<TRIPOS>MOLECULE
3R207
157   159    1
SMALL
USER_CHARGES


@<TRIPOS>ATOM
      1 CA        -50.2303  -22.0164    6.0483 C.3       0 UNK        -0.1975 
      2 C         -50.0094  -23.4344    6.5502 C.2       0 UNK         0.4852 
      3 O         -49.6482  -23.6194    7.7138 O.2       0 UNK        -0.5216 
      4 N         -50.2246  -24.4355    5.6838 N.am      1 UNK        -0.4461 
      5 CA        -50.1083  -25.8673    5.9975 C.3       1 UNK         0.0864 
      6 C6        -50.5981  -26.7777    4.8439 C.3       14 UNK        -0.0898 
      7 S7        -52.2699  -26.3487    4.2525 S.3       14 UNK        -0.2598 
      8 C8        -53.3100  -27.5136    5.1899 C.3       14 UNK         0.0286 
      9 C9        -53.3261  -27.2028    6.6806 C.ar      14 UNK        -0.0844 
     10 C10       -53.8725  -26.0008    7.1420 C.ar      14 UNK        -0.0881 
     11 C11       -53.9134  -25.7093    8.5089 C.ar      14 UNK        -0.0643 
     12 C12       -53.4164  -26.6502    9.4180 C.ar      14 UNK        -0.0930 
     13 C13       -52.8608  -27.8513    8.9708 C.ar      14 UNK        -0.0827 
     14 C14       -52.8142  -28.1224    7.6006 C.ar      14 UNK        -0.1249 
     15 C15       -52.3237  -28.8560    9.9751 C.3       14 UNK         0.0141 
     16 S16       -53.6790  -29.7873   10.7445 S.3       14 UNK        -0.2313 
     17 C17       -52.7435  -30.8529   11.8875 C.3       14 UNK        -0.0915 
     18 CA        -53.6199  -31.3681   13.0573 C.3       13 UNK         0.0968 
     19 C         -52.8207  -32.3603   13.9451 C.2       13 UNK         0.5732 
     20 N         -52.8243  -33.6410   13.6016 N.am      13 UNK        -0.7310 
     21 O         -52.1664  -31.9754   14.9127 O.2       13 UNK        -0.5035 
     22 N         -54.2007  -30.2624   13.8332 N.am      13 UNK        -0.4233 
     23 C         -55.1929  -30.3940   14.7221 C.2       13 UNK         0.4989 
     24 O         -55.7746  -31.4576   14.9430 O.2       13 UNK        -0.4996 
     25 CA        -55.6223  -29.1403   15.5026 C.3       12 UNK         0.0216 
     26 CB        -55.1628  -29.2382   16.9671 C.3       12 UNK        -0.1964 
     27 N         -55.1199  -27.8892   14.9234 N.am      12 UNK        -0.4276 
     28 C         -55.7489  -27.1952   13.9613 C.2       12 UNK         0.5020 
     29 O         -56.7777  -27.5973   13.4147 O.2       12 UNK        -0.5489 
     30 CA        -55.1544  -25.8345   13.5219 C.3       11 UNK         0.0294 
     31 CB        -56.2534  -24.7880   13.2432 C.3       11 UNK        -0.2019 
     32 N         -54.1387  -25.2788   14.4259 N.am      11 UNK        -0.4493 
     33 C         -54.2625  -24.9757   15.7278 C.2       11 UNK         0.4932 
     34 O         -55.3264  -25.0169   16.3473 O.2       11 UNK        -0.5029 
     35 CA        -52.9525  -24.6277   16.4677 C.3       10 UNK         0.0280 
     36 CB        -53.0532  -24.8512   17.9908 C.3       10 UNK        -0.1976 
     37 N         -51.7821  -25.3337   15.9253 N.am      10 UNK        -0.4242 
     38 C         -51.6178  -26.6584   15.7753 C.2       10 UNK         0.5072 
     39 O         -52.4544  -27.4914   16.1236 O.2       10 UNK        -0.5224 
     40 CA        -50.3495  -27.1466   15.0498 C.3       9 UNK         0.0343 
     41 CB        -50.7194  -27.7282   13.6745 C.3       9 UNK        -0.2003 
     42 N         -49.3411  -26.1037   14.8584 N.am      9 UNK        -0.4272 
     43 C         -48.5672  -25.5884   15.8231 C.2       9 UNK         0.4988 
     44 O         -48.5688  -25.9782   16.9909 O.2       9 UNK        -0.5108 
     45 CA        -47.6684  -24.4115   15.4160 C.3       8 UNK         0.0248 
     46 CB        -46.3734  -24.9205   14.7632 C.3       8 UNK        -0.2001 
     47 N         -48.3613  -23.4951   14.5047 N.am      8 UNK        -0.4140 
     48 C         -49.2993  -22.6168   14.8888 C.2       8 UNK         0.5028 
     49 O         -49.6521  -22.4622   16.0580 O.2       8 UNK        -0.5428 
     50 CA        -49.9744  -21.7785   13.7887 C.3       7 UNK         0.0264 
     51 CB        -49.1565  -20.5096   13.4996 C.3       7 UNK        -0.1988 
     52 N         -50.1906  -22.5139   12.5403 N.am      7 UNK        -0.4454 
     53 C         -51.0489  -23.5352   12.4000 C.2       7 UNK         0.5027 
     54 O         -51.7494  -23.9733   13.3131 O.2       7 UNK        -0.5083 
     55 CA        -51.1006  -24.2173   11.0161 C.3       6 UNK         0.0844 
     56 C56       -52.0596  -23.4698   10.0535 C.3       14 UNK        -0.0967 
     57 S57       -53.8175  -23.6897   10.4988 S.3       14 UNK        -0.2604 
     58 C58       -54.5286  -24.3874    8.9676 C.3       14 UNK         0.0134 
     59 N         -49.7790  -24.4282   10.4089 N.am      6 UNK        -0.4116 
     60 C         -48.7297  -25.0265   10.9924 C.2       5 UNK         0.5034 
     61 O         -48.7159  -25.3904   12.1689 O.2       5 UNK        -0.5045 
     62 CA        -47.4930  -25.2553   10.1117 C.3       5 UNK         0.0224 
     63 CB        -46.2087  -24.6628   10.7237 C.3       5 UNK        -0.1978 
     64 N         -47.3543  -26.6768    9.7811 N.am      5 UNK        -0.4737 
     65 C         -47.0308  -27.7153   10.5693 C.2       4 UNK         0.5027 
     66 O         -46.6266  -27.6214   11.7275 O.2       4 UNK        -0.5211 
     67 CA        -47.1878  -29.1169    9.9544 C.3       4 UNK         0.0297 
     68 CB        -48.6183  -29.6288   10.1877 C.3       4 UNK        -0.1993 
     69 N         -46.9160  -29.1063    8.5150 N.am      4 UNK        -0.4486 
     70 C         -45.8905  -29.7217    7.9115 C.2       3 UNK         0.4961 
     71 O         -45.0971  -30.4678    8.4864 O.2       3 UNK        -0.5105 
     72 CA        -45.7040  -29.4446    6.4050 C.3       3 UNK         0.0299 
     73 CB        -46.4764  -30.4775    5.5689 C.3       3 UNK        -0.1972 
     74 N         -46.1195  -28.0939    6.0117 N.am      3 UNK        -0.4305 
     75 C         -45.5523  -26.9635    6.4565 C.2       2 UNK         0.5006 
     76 O         -44.5191  -26.9419    7.1262 O.2       2 UNK        -0.5106 
     77 CA        -46.2464  -25.6251    6.1340 C.3       2 UNK         0.0296 
     78 CB        -45.4782  -24.8842    5.0268 C.3       2 UNK        -0.2002 
     79 N         -47.6727  -25.6584    5.7743 N.am      2 UNK        -0.4032 
     80 C         -48.6816  -26.2654    6.4210 C.2       1 UNK         0.5000 
     81 O         -48.5318  -27.0809    7.3309 O.2       1 UNK        -0.5238 
     82 H82       -50.9948  -21.5234    6.6481 H         1 UNK         0.0889 
     83 H83       -50.5506  -21.9971    5.0068 H         1 UNK         0.0889 
     84 H84       -49.3081  -21.4423    6.1317 H         1 UNK         0.0889 
     85 H85       -50.5503  -24.2236    4.7510 H         1 UNK         0.3028 
     86 H86       -50.7473  -26.0484    6.8643 H         1 UNK         0.0864 
     87 H87       -50.5880  -27.8251    5.1527 H         1 UNK         0.0720 
     88 H88       -49.9235  -26.7086    3.9884 H         1 UNK         0.0720 
     89 H89       -52.9701  -28.5336    5.0033 H         1 UNK         0.0814 
     90 H90       -54.3302  -27.4589    4.8076 H         1 UNK         0.0814 
     91 H91       -54.2675  -25.2903    6.4284 H         1 UNK         0.1469 
     92 H92       -53.4655  -26.4571   10.4794 H         1 UNK         0.1381 
     93 H93       -52.3915  -29.0551    7.2525 H         1 UNK         0.1206 
     94 H94       -51.6451  -29.5573    9.4879 H         1 UNK         0.0813 
     95 H95       -51.7460  -28.3380   10.7422 H         1 UNK         0.0813 
     96 H96       -51.8789  -30.3069   12.2676 H         1 UNK         0.0638 
     97 H97       -52.3469  -31.6890   11.3085 H         1 UNK         0.0638 
     98 H98       -54.4555  -31.9213   12.6231 H         1 UNK         0.0568 
     99 H99       -52.2986  -34.2974   14.1572 H         1 UNK         0.3450 
    100 H100      -53.3471  -33.9666   12.8034 H         1 UNK         0.3450 
    101 H101      -53.7711  -29.3585   13.7197 H         1 UNK         0.2987 
    102 H102      -56.7143  -29.1160   15.5005 H         1 UNK         0.0766 
    103 H103      -55.4497  -28.3527   17.5349 H         1 UNK         0.0798 
    104 H104      -54.0811  -29.3520   17.0455 H         1 UNK         0.0798 
    105 H105      -55.6143  -30.1003   17.4599 H         1 UNK         0.0798 
    106 H106      -54.2626  -27.5210   15.3285 H         1 UNK         0.3198 
    107 H107      -54.6392  -26.0269   12.5803 H         1 UNK         0.0843 
    108 H108      -56.8654  -24.6002   14.1257 H         1 UNK         0.0831 
    109 H109      -56.9212  -25.1223   12.4484 H         1 UNK         0.0831 
    110 H110      -55.8248  -23.8384   12.9231 H         1 UNK         0.0831 
    111 H111      -53.2258  -25.1097   14.0107 H         1 UNK         0.3133 
    112 H112      -52.7749  -23.5654   16.2942 H         1 UNK         0.0566 
    113 H113      -52.1209  -24.5897   18.4915 H         1 UNK         0.0814 
    114 H114      -53.8386  -24.2332   18.4275 H         1 UNK         0.0814 
    115 H115      -53.2837  -25.8897   18.2313 H         1 UNK         0.0814 
    116 H116      -51.0654  -24.7371   15.5347 H         1 UNK         0.3091 
    117 H117      -49.9117  -27.9425   15.6556 H         1 UNK         0.0702 
    118 H118      -49.8413  -28.1197   13.1601 H         1 UNK         0.0785 
    119 H119      -51.1766  -26.9769   13.0295 H         1 UNK         0.0785 
    120 H120      -51.4286  -28.5491   13.7794 H         1 UNK         0.0785 
    121 H121      -49.2135  -25.7647   13.9061 H         1 UNK         0.2998 
    122 H122      -47.3985  -23.8613   16.3202 H         1 UNK         0.0697 
    123 H123      -46.5782  -25.5500   13.8965 H         1 UNK         0.0825 
    124 H124      -45.7967  -25.5219   15.4670 H         1 UNK         0.0825 
    125 H125      -45.7359  -24.0971   14.4412 H         1 UNK         0.0825 
    126 H126      -48.1849  -23.6188   13.5171 H         1 UNK         0.3029 
    127 H127      -50.9526  -21.4729   14.1676 H         1 UNK         0.0897 
    128 H128      -48.1727  -20.7447   13.0913 H         1 UNK         0.0792 
    129 H129      -49.0007  -19.9306   14.4111 H         1 UNK         0.0792 
    130 H130      -49.6691  -19.8597   12.7900 H         1 UNK         0.0792 
    131 H131      -49.6495  -22.2260   11.7378 H         1 UNK         0.3086 
    132 H132      -51.4996  -25.2199   11.1784 H         1 UNK         0.0583 
    133 H133      -51.8299  -22.4035   10.0104 H         1 UNK         0.1020 
    134 H134      -51.9212  -23.8384    9.0368 H         1 UNK         0.1020 
    135 H135      -55.5971  -24.5411    9.1232 H         1 UNK         0.0694 
    136 H136      -54.4353  -23.6375    8.1804 H         1 UNK         0.0694 
    137 H137      -49.6961  -24.1465    9.4321 H         1 UNK         0.2989 
    138 H138      -47.6568  -24.7436    9.1622 H         1 UNK         0.1055 
    139 H139      -46.3143  -23.5892   10.8828 H         1 UNK         0.0806 
    140 H140      -45.3543  -24.8117   10.0635 H         1 UNK         0.0806 
    141 H141      -45.9650  -25.1082   11.6870 H         1 UNK         0.0806 
    142 H142      -47.7281  -26.9077    8.8625 H         1 UNK         0.3061 
    143 H143      -46.4944  -29.7841   10.4707 H         1 UNK         0.0734 
    144 H144      -48.7456  -30.6414    9.8049 H         1 UNK         0.0832 
    145 H145      -48.8593  -29.6494   11.2514 H         1 UNK         0.0832 
    146 H146      -49.3510  -28.9882    9.6968 H         1 UNK         0.0832 
    147 H147      -47.5087  -28.5028    7.9504 H         1 UNK         0.3156 
    148 H148      -44.6406  -29.5464    6.1783 H         1 UNK         0.0589 
    149 H149      -47.5523  -30.4111    5.7364 H         1 UNK         0.0808 
    150 H150      -46.2922  -30.3442    4.5027 H         1 UNK         0.0808 
    151 H151      -46.1694  -31.4928    5.8243 H         1 UNK         0.0808 
    152 H152      -46.9629  -28.0176    5.4625 H         1 UNK         0.3098 
    153 H153      -46.1784  -25.0254    7.0437 H         1 UNK         0.0720 
    154 H154      -45.8518  -23.8688    4.8927 H         1 UNK         0.0791 
    155 H155      -45.5552  -25.4012    4.0694 H         1 UNK         0.0791 
    156 H156      -44.4172  -24.8038    5.2689 H         1 UNK         0.0791 
    157 H157      -47.9391  -25.0263    5.0333 H         1 UNK         0.3028 
@<TRIPOS>BOND
     1    1    2 1    
     2    1   82 1    
     3    1   83 1    
     4    1   84 1    
     5    2    3 2    
     6    2    4 am   BACKBONE|DICT|INTERRES
     7    4    5 1    
     8    4   85 1    
     9    5    6 1    
    10    5   80 1    
    11    5   86 1    
    12    6    7 1    
    13    6   87 1    
    14    6   88 1    
    15    7    8 1    
    16    8    9 1    
    17    8   89 1    
    18    8   90 1    
    19    9   10 ar   
    20    9   14 ar   
    21   10   11 ar   
    22   10   91 1    
    23   11   12 ar   
    24   11   58 1    
    25   12   13 ar   
    26   12   92 1    
    27   13   14 ar   
    28   13   15 1    
    29   14   93 1    
    30   15   16 1    
    31   15   94 1    
    32   15   95 1    
    33   16   17 1    
    34   17   18 1    
    35   17   96 1    
    36   17   97 1    
    37   18   19 1    
    38   18   22 1    
    39   18   98 1    
    40   19   20 am   BACKBONE|DICT|INTERRES
    41   19   21 2    
    42   20   99 1    
    43   20  100 1    
    44   22   23 am   BACKBONE|DICT|INTERRES
    45   22  101 1    
    46   23   24 2    
    47   23   25 1    
    48   25   26 1    
    49   25   27 1    
    50   25  102 1    
    51   26  103 1    
    52   26  104 1    
    53   26  105 1    
    54   27   28 am   BACKBONE|DICT|INTERRES
    55   27  106 1    
    56   28   29 2    
    57   28   30 1    
    58   30   31 1    
    59   30   32 1    
    60   30  107 1    
    61   31  108 1    
    62   31  109 1    
    63   31  110 1    
    64   32   33 am   BACKBONE|DICT|INTERRES
    65   32  111 1    
    66   33   34 2    
    67   33   35 1    
    68   35   36 1    
    69   35   37 1    
    70   35  112 1    
    71   36  113 1    
    72   36  114 1    
    73   36  115 1    
    74   37   38 am   BACKBONE|DICT|INTERRES
    75   37  116 1    
    76   38   39 2    
    77   38   40 1    
    78   40   41 1    
    79   40   42 1    
    80   40  117 1    
    81   41  118 1    
    82   41  119 1    
    83   41  120 1    
    84   42   43 am   BACKBONE|DICT|INTERRES
    85   42  121 1    
    86   43   44 2    
    87   43   45 1    
    88   45   46 1    
    89   45   47 1    
    90   45  122 1    
    91   46  123 1    
    92   46  124 1    
    93   46  125 1    
    94   47   48 am   BACKBONE|DICT|INTERRES
    95   47  126 1    
    96   48   49 2    
    97   48   50 1    
    98   50   51 1    
    99   50   52 1    
   100   50  127 1    
   101   51  128 1    
   102   51  129 1    
   103   51  130 1    
   104   52   53 am   BACKBONE|DICT|INTERRES
   105   52  131 1    
   106   53   54 2    
   107   53   55 1    
   108   55   56 1    
   109   55   59 1    
   110   55  132 1    
   111   56   57 1    
   112   56  133 1    
   113   56  134 1    
   114   57   58 1    
   115   58  135 1    
   116   58  136 1    
   117   59   60 am   BACKBONE|DICT|INTERRES
   118   59  137 1    
   119   60   61 2    
   120   60   62 1    
   121   62   63 1    
   122   62   64 1    
   123   62  138 1    
   124   63  139 1    
   125   63  140 1    
   126   63  141 1    
   127   64   65 am   BACKBONE|DICT|INTERRES
   128   64  142 1    
   129   65   66 2    
   130   65   67 1    
   131   67   68 1    
   132   67   69 1    
   133   67  143 1    
   134   68  144 1    
   135   68  145 1    
   136   68  146 1    
   137   69   70 am   BACKBONE|DICT|INTERRES
   138   69  147 1    
   139   70   71 2    
   140   70   72 1    
   141   72   73 1    
   142   72   74 1    
   143   72  148 1    
   144   73  149 1    
   145   73  150 1    
   146   73  151 1    
   147   74   75 am   BACKBONE|DICT|INTERRES
   148   74  152 1    
   149   75   76 2    
   150   75   77 1    
   151   77   78 1    
   152   77   79 1    
   153   77  153 1    
   154   78  154 1    
   155   78  155 1    
   156   78  156 1    
   157   79   80 am   BACKBONE|DICT|INTERRES
   158   79  157 1    
   159   80   81 2    
@<TRIPOS>SUBSTRUCTURE
     1 UNK         1 GROUP             0       ****    0 ROOT    
