@<TRIPOS>MOLECULE
3R207
157   159    1
SMALL
USER_CHARGES


@<TRIPOS>ATOM
      1 CA        -52.4747  -31.7827    4.6525 C.3       0 UNK        -0.1975 
      2 C         -51.3938  -30.7460    4.9199 C.2       0 UNK         0.4852 
      3 O         -50.3317  -30.7942    4.2985 O.2       0 UNK        -0.5216 
      4 N         -51.6601  -29.8089    5.8384 N.am      1 UNK        -0.4461 
      5 CA        -50.7189  -28.7778    6.2833 C.3       1 UNK         0.0864 
      6 C6        -51.4726  -27.6004    6.9450 C.3       14 UNK        -0.0898 
      7 S7        -50.4244  -26.1284    7.1800 S.3       14 UNK        -0.2598 
      8 C8        -50.3955  -26.0271    8.9945 C.3       14 UNK         0.0286 
      9 C9        -51.7015  -25.4960    9.5561 C.ar      14 UNK        -0.0844 
     10 C10       -52.1080  -24.1964    9.2529 C.ar      14 UNK        -0.0881 
     11 C11       -53.3017  -23.6759    9.7662 C.ar      14 UNK        -0.0643 
     12 C12       -54.1022  -24.4942   10.5722 C.ar      14 UNK        -0.0930 
     13 C13       -53.7121  -25.8044   10.8721 C.ar      14 UNK        -0.0827 
     14 C14       -52.4995  -26.2923   10.3777 C.ar      14 UNK        -0.1249 
     15 C15       -54.5899  -26.6956   11.7386 C.3       14 UNK         0.0141 
     16 S16       -55.9207  -27.5234   10.7991 S.3       14 UNK        -0.2313 
     17 C17       -55.0373  -28.4921    9.5211 C.3       14 UNK        -0.0915 
     18 CA        -54.7597  -29.9670    9.9140 C.3       13 UNK         0.0968 
     19 C         -54.0530  -30.7069    8.7450 C.2       13 UNK         0.5732 
     20 N         -54.7727  -31.5380    8.0047 N.am      13 UNK        -0.7310 
     21 O         -52.8707  -30.4947    8.4778 O.2       13 UNK        -0.5035 
     22 N         -54.0172  -30.0508   11.1782 N.am      13 UNK        -0.4233 
     23 C         -53.6196  -31.1688   11.7994 C.2       13 UNK         0.4989 
     24 O         -53.8163  -32.3095   11.3800 O.2       13 UNK        -0.4996 
     25 CA        -52.9005  -30.9775   13.1438 C.3       12 UNK         0.0216 
     26 CB        -51.3893  -30.7901   12.9370 C.3       12 UNK        -0.1964 
     27 N         -53.4251  -29.8463   13.9127 N.am      12 UNK        -0.4276 
     28 C         -54.5954  -29.8530   14.5724 C.2       12 UNK         0.5020 
     29 O         -55.3923  -30.7920   14.5276 O.2       12 UNK        -0.5489 
     30 CA        -54.9238  -28.6151   15.4399 C.3       11 UNK         0.0294 
     31 CB        -55.8601  -28.9444   16.6219 C.3       11 UNK        -0.2019 
     32 N         -53.7233  -27.9058   15.9026 N.am      11 UNK        -0.4493 
     33 C         -52.7095  -28.4033   16.6289 C.2       11 UNK         0.4932 
     34 O         -52.7543  -29.4880   17.2105 O.2       11 UNK        -0.5029 
     35 CA        -51.4050  -27.5773   16.6805 C.3       10 UNK         0.0280 
     36 CB        -50.1629  -28.4753   16.5039 C.3       10 UNK        -0.1976 
     37 N         -51.3235  -26.4467   15.7421 N.am      10 UNK        -0.4242 
     38 C         -51.4436  -26.4440   14.4066 C.2       10 UNK         0.5072 
     39 O         -51.7631  -27.4338   13.7452 O.2       10 UNK        -0.5224 
     40 CA        -51.2113  -25.0985   13.6939 C.3       9 UNK         0.0343 
     41 CB        -52.3368  -24.0998   14.0236 C.3       9 UNK        -0.2003 
     42 N         -49.8787  -24.5089   13.8977 N.am      9 UNK        -0.4272 
     43 C         -49.2832  -24.1349   15.0428 C.2       9 UNK         0.4988 
     44 O         -49.8155  -24.1790   16.1527 O.2       9 UNK        -0.5108 
     45 CA        -47.8493  -23.6023   14.9230 C.3       8 UNK         0.0248 
     46 CB        -46.9063  -24.6282   14.2695 C.3       8 UNK        -0.2001 
     47 N         -47.8596  -22.3690   14.1444 N.am      8 UNK        -0.4140 
     48 C         -47.9837  -21.1409   14.6683 C.2       8 UNK         0.5028 
     49 O         -47.9273  -20.8949   15.8739 O.2       8 UNK        -0.5428 
     50 CA        -48.2373  -19.9866   13.6801 C.3       7 UNK         0.0264 
     51 CB        -46.9116  -19.3241   13.2711 C.3       7 UNK        -0.1988 
     52 N         -48.9553  -20.4148   12.4765 N.am      7 UNK        -0.4454 
     53 C         -50.2058  -20.9040   12.4601 C.2       7 UNK         0.5027 
     54 O         -50.9419  -20.9129   13.4463 O.2       7 UNK        -0.5083 
     55 CA        -50.7201  -21.4964   11.1290 C.3       6 UNK         0.0844 
     56 C56       -51.7806  -20.5475   10.5128 C.3       14 UNK        -0.0967 
     57 S57       -52.4593  -21.1003    8.9124 S.3       14 UNK        -0.2604 
     58 C58       -53.7777  -22.2617    9.4267 C.3       14 UNK         0.0134 
     59 N         -49.6346  -21.8401   10.1965 N.am      6 UNK        -0.4116 
     60 C         -48.7306  -22.8125   10.3915 C.2       5 UNK         0.5034 
     61 O         -48.6971  -23.5350   11.3925 O.2       5 UNK        -0.5045 
     62 CA        -47.6408  -22.9467    9.3234 C.3       5 UNK         0.0224 
     63 CB        -46.4535  -22.0236    9.6492 C.3       5 UNK        -0.1978 
     64 N         -47.1706  -24.3300    9.2455 N.am      5 UNK        -0.4737 
     65 C         -46.7929  -24.9452    8.1192 C.2       4 UNK         0.5027 
     66 O         -46.7668  -24.3826    7.0240 O.2       4 UNK        -0.5211 
     67 CA        -46.3736  -26.4274    8.1889 C.3       4 UNK         0.0297 
     68 CB        -44.8519  -26.5572    8.3975 C.3       4 UNK        -0.1993 
     69 N         -47.1201  -27.2743    9.1331 N.am      4 UNK        -0.4486 
     70 C         -47.1166  -27.2415   10.4747 C.2       3 UNK         0.4961 
     71 O         -46.4993  -26.3999   11.1263 O.2       3 UNK        -0.5105 
     72 CA        -47.9445  -28.2993   11.2337 C.3       3 UNK         0.0299 
     73 CB        -48.9098  -27.6372   12.2288 C.3       3 UNK        -0.1972 
     74 N         -48.6983  -29.2065   10.3597 N.am      3 UNK        -0.4305 
     75 C         -48.2238  -30.3582    9.8658 C.2       2 UNK         0.5006 
     76 O         -47.1055  -30.8046   10.1235 O.2       2 UNK        -0.5106 
     77 CA        -49.1357  -31.1395    8.8999 C.3       2 UNK         0.0296 
     78 CB        -49.9801  -32.1793    9.6523 C.3       2 UNK        -0.2002 
     79 N         -50.0251  -30.3166    8.0732 N.am      2 UNK        -0.4032 
     80 C         -49.6305  -29.3765    7.2012 C.2       1 UNK         0.5000 
     81 O         -48.4628  -28.9984    7.0912 O.2       1 UNK        -0.5238 
     82 H82       -53.4196  -31.5148    5.1244 H         1 UNK         0.0889 
     83 H83       -52.1639  -32.7552    5.0333 H         1 UNK         0.0889 
     84 H84       -52.6496  -31.8755    3.5809 H         1 UNK         0.0889 
     85 H85       -52.5265  -29.8581    6.3587 H         1 UNK         0.3028 
     86 H86       -50.2124  -28.3917    5.3955 H         1 UNK         0.0864 
     87 H87       -52.3047  -27.2929    6.3097 H         1 UNK         0.0720 
     88 H88       -51.9234  -27.9070    7.8903 H         1 UNK         0.0720 
     89 H89       -49.5908  -25.3681    9.3066 H         1 UNK         0.0814 
     90 H90       -50.1638  -27.0089    9.4020 H         1 UNK         0.0814 
     91 H91       -51.4847  -23.6003    8.6025 H         1 UNK         0.1469 
     92 H92       -55.0394  -24.1163   10.9574 H         1 UNK         0.1381 
     93 H93       -52.1873  -27.2985   10.6210 H         1 UNK         0.1206 
     94 H94       -55.0457  -26.0958   12.5275 H         1 UNK         0.0813 
     95 H95       -53.9829  -27.4408   12.2501 H         1 UNK         0.0813 
     96 H96       -54.1174  -27.9877    9.2326 H         1 UNK         0.0638 
     97 H97       -55.6647  -28.4681    8.6283 H         1 UNK         0.0638 
     98 H98       -55.7208  -30.4527   10.0921 H         1 UNK         0.0568 
     99 H99       -54.3298  -32.0358    7.2509 H         1 UNK         0.3450 
    100 H100      -55.7439  -31.7100    8.2125 H         1 UNK         0.3450 
    101 H101      -53.8059  -29.1696   11.6156 H         1 UNK         0.2987 
    102 H102      -53.0501  -31.8838   13.7348 H         1 UNK         0.0766 
    103 H103      -50.9436  -31.6876   12.5086 H         1 UNK         0.0798 
    104 H104      -50.8787  -30.6044   13.8816 H         1 UNK         0.0798 
    105 H105      -51.1718  -29.9566   12.2683 H         1 UNK         0.0798 
    106 H106      -52.8260  -29.0262   13.9852 H         1 UNK         0.3198 
    107 H107      -55.4534  -27.9233   14.7831 H         1 UNK         0.0843 
    108 H108      -55.4284  -29.6955   17.2840 H         1 UNK         0.0831 
    109 H109      -56.8144  -29.3360   16.2676 H         1 UNK         0.0831 
    110 H110      -56.0767  -28.0571   17.2165 H         1 UNK         0.0831 
    111 H111      -53.5648  -27.0023   15.4799 H         1 UNK         0.3133 
    112 H112      -51.3636  -27.1429   17.6801 H         1 UNK         0.0566 
    113 H113      -49.2422  -27.8998   16.5997 H         1 UNK         0.0814 
    114 H114      -50.1525  -28.9596   15.5274 H         1 UNK         0.0814 
    115 H115      -50.1290  -29.2616   17.2590 H         1 UNK         0.0814 
    116 H116      -51.0103  -25.5668   16.1499 H         1 UNK         0.3091 
    117 H117      -51.2691  -25.3029   12.6254 H         1 UNK         0.0702 
    118 H118      -52.2906  -23.2274   13.3743 H         1 UNK         0.0785 
    119 H119      -52.2909  -23.7494   15.0548 H         1 UNK         0.0785 
    120 H120      -53.3181  -24.5515   13.8738 H         1 UNK         0.0785 
    121 H121      -49.3477  -24.3804   13.0404 H         1 UNK         0.2998 
    122 H122      -47.4775  -23.4068   15.9313 H         1 UNK         0.0697 
    123 H123      -47.1587  -24.8178   13.2263 H         1 UNK         0.0825 
    124 H124      -46.9418  -25.5838   14.7942 H         1 UNK         0.0825 
    125 H125      -45.8729  -24.2829   14.2974 H         1 UNK         0.0825 
    126 H126      -47.9562  -22.4777   13.1427 H         1 UNK         0.3029 
    127 H127      -48.8525  -19.2437   14.1928 H         1 UNK         0.0897 
    128 H128      -46.2600  -20.0166   12.7363 H         1 UNK         0.0792 
    129 H129      -46.3648  -18.9745   14.1481 H         1 UNK         0.0792 
    130 H130      -47.0805  -18.4577   12.6313 H         1 UNK         0.0792 
    131 H131      -48.4371  -20.4014   11.6111 H         1 UNK         0.3086 
    132 H132      -51.2209  -22.4316   11.3851 H         1 UNK         0.0583 
    133 H133      -52.6100  -20.4013   11.2081 H         1 UNK         0.1020 
    134 H134      -51.3516  -19.5559   10.3547 H         1 UNK         0.1020 
    135 H135      -54.3207  -21.8348   10.2712 H         1 UNK         0.0694 
    136 H136      -54.4954  -22.3395    8.6092 H         1 UNK         0.0694 
    137 H137      -49.5964  -21.2916    9.3492 H         1 UNK         0.2989 
    138 H138      -48.0735  -22.6545    8.3636 H         1 UNK         0.1055 
    139 H139      -45.6794  -22.0921    8.8846 H         1 UNK         0.0806 
    140 H140      -45.9976  -22.2777   10.6074 H         1 UNK         0.0806 
    141 H141      -46.7636  -20.9792    9.6984 H         1 UNK         0.0806 
    142 H142      -47.1507  -24.8516   10.1193 H         1 UNK         0.3061 
    143 H143      -46.5981  -26.8466    7.2065 H         1 UNK         0.0734 
    144 H144      -44.5336  -26.1412    9.3538 H         1 UNK         0.0832 
    145 H145      -44.5335  -27.5989    8.3604 H         1 UNK         0.0832 
    146 H146      -44.3069  -26.0237    7.6176 H         1 UNK         0.0832 
    147 H147      -47.6698  -27.9969    8.6778 H         1 UNK         0.3156 
    148 H148      -47.2315  -28.8827   11.8200 H         1 UNK         0.0589 
    149 H149      -49.6625  -27.0275   11.7310 H         1 UNK         0.0808 
    150 H150      -48.3763  -26.9897   12.9249 H         1 UNK         0.0808 
    151 H151      -49.4234  -28.3853   12.8313 H         1 UNK         0.0808 
    152 H152      -49.6345  -28.9320   10.1049 H         1 UNK         0.3098 
    153 H153      -48.4746  -31.6775    8.2173 H         1 UNK         0.0720 
    154 H154      -49.3761  -32.7502   10.3591 H         1 UNK         0.0791 
    155 H155      -50.4300  -32.8928    8.9616 H         1 UNK         0.0791 
    156 H156      -50.7901  -31.7088   10.2083 H         1 UNK         0.0791 
    157 H157      -51.0200  -30.5249    8.1299 H         1 UNK         0.3028 
@<TRIPOS>BOND
     1    1    2 1    
     2    1   82 1    
     3    1   83 1    
     4    1   84 1    
     5    2    3 2    
     6    2    4 am   BACKBONE|DICT|INTERRES
     7    4    5 1    
     8    4   85 1    
     9    5    6 1    
    10    5   80 1    
    11    5   86 1    
    12    6    7 1    
    13    6   87 1    
    14    6   88 1    
    15    7    8 1    
    16    8    9 1    
    17    8   89 1    
    18    8   90 1    
    19    9   10 ar   
    20    9   14 ar   
    21   10   11 ar   
    22   10   91 1    
    23   11   12 ar   
    24   11   58 1    
    25   12   13 ar   
    26   12   92 1    
    27   13   14 ar   
    28   13   15 1    
    29   14   93 1    
    30   15   16 1    
    31   15   94 1    
    32   15   95 1    
    33   16   17 1    
    34   17   18 1    
    35   17   96 1    
    36   17   97 1    
    37   18   19 1    
    38   18   22 1    
    39   18   98 1    
    40   19   20 am   BACKBONE|DICT|INTERRES
    41   19   21 2    
    42   20   99 1    
    43   20  100 1    
    44   22   23 am   BACKBONE|DICT|INTERRES
    45   22  101 1    
    46   23   24 2    
    47   23   25 1    
    48   25   26 1    
    49   25   27 1    
    50   25  102 1    
    51   26  103 1    
    52   26  104 1    
    53   26  105 1    
    54   27   28 am   BACKBONE|DICT|INTERRES
    55   27  106 1    
    56   28   29 2    
    57   28   30 1    
    58   30   31 1    
    59   30   32 1    
    60   30  107 1    
    61   31  108 1    
    62   31  109 1    
    63   31  110 1    
    64   32   33 am   BACKBONE|DICT|INTERRES
    65   32  111 1    
    66   33   34 2    
    67   33   35 1    
    68   35   36 1    
    69   35   37 1    
    70   35  112 1    
    71   36  113 1    
    72   36  114 1    
    73   36  115 1    
    74   37   38 am   BACKBONE|DICT|INTERRES
    75   37  116 1    
    76   38   39 2    
    77   38   40 1    
    78   40   41 1    
    79   40   42 1    
    80   40  117 1    
    81   41  118 1    
    82   41  119 1    
    83   41  120 1    
    84   42   43 am   BACKBONE|DICT|INTERRES
    85   42  121 1    
    86   43   44 2    
    87   43   45 1    
    88   45   46 1    
    89   45   47 1    
    90   45  122 1    
    91   46  123 1    
    92   46  124 1    
    93   46  125 1    
    94   47   48 am   BACKBONE|DICT|INTERRES
    95   47  126 1    
    96   48   49 2    
    97   48   50 1    
    98   50   51 1    
    99   50   52 1    
   100   50  127 1    
   101   51  128 1    
   102   51  129 1    
   103   51  130 1    
   104   52   53 am   BACKBONE|DICT|INTERRES
   105   52  131 1    
   106   53   54 2    
   107   53   55 1    
   108   55   56 1    
   109   55   59 1    
   110   55  132 1    
   111   56   57 1    
   112   56  133 1    
   113   56  134 1    
   114   57   58 1    
   115   58  135 1    
   116   58  136 1    
   117   59   60 am   BACKBONE|DICT|INTERRES
   118   59  137 1    
   119   60   61 2    
   120   60   62 1    
   121   62   63 1    
   122   62   64 1    
   123   62  138 1    
   124   63  139 1    
   125   63  140 1    
   126   63  141 1    
   127   64   65 am   BACKBONE|DICT|INTERRES
   128   64  142 1    
   129   65   66 2    
   130   65   67 1    
   131   67   68 1    
   132   67   69 1    
   133   67  143 1    
   134   68  144 1    
   135   68  145 1    
   136   68  146 1    
   137   69   70 am   BACKBONE|DICT|INTERRES
   138   69  147 1    
   139   70   71 2    
   140   70   72 1    
   141   72   73 1    
   142   72   74 1    
   143   72  148 1    
   144   73  149 1    
   145   73  150 1    
   146   73  151 1    
   147   74   75 am   BACKBONE|DICT|INTERRES
   148   74  152 1    
   149   75   76 2    
   150   75   77 1    
   151   77   78 1    
   152   77   79 1    
   153   77  153 1    
   154   78  154 1    
   155   78  155 1    
   156   78  156 1    
   157   79   80 am   BACKBONE|DICT|INTERRES
   158   79  157 1    
   159   80   81 2    
@<TRIPOS>SUBSTRUCTURE
     1 UNK         1 GROUP             0       ****    0 ROOT    
