@<TRIPOS>MOLECULE
3R207
157   159    1
SMALL
USER_CHARGES


@<TRIPOS>ATOM
      1 CA        -50.2660  -28.5446    8.1066 C.3       0 UNK        -0.1975 
      2 C         -49.8071  -29.8459    7.4584 C.2       0 UNK         0.4852 
      3 O         -49.6996  -30.8505    8.1586 O.2       0 UNK        -0.5216 
      4 N         -49.5100  -29.9053    6.1497 N.am      1 UNK        -0.4461 
      5 CA        -49.5429  -28.8566    5.1122 C.3       1 UNK         0.0864 
      6 C6        -50.9287  -28.1857    4.8922 C.3       14 UNK        -0.0898 
      7 S7        -52.2916  -29.3742    4.6336 S.3       14 UNK        -0.2598 
      8 C8        -53.7588  -28.3435    4.9764 C.3       14 UNK         0.0286 
      9 C9        -53.8402  -27.9578    6.4458 C.ar      14 UNK        -0.0844 
     10 C10       -53.4184  -26.6934    6.8673 C.ar      14 UNK        -0.0881 
     11 C11       -53.3802  -26.3751    8.2273 C.ar      14 UNK        -0.0643 
     12 C12       -53.8168  -27.3160    9.1656 C.ar      14 UNK        -0.0930 
     13 C13       -54.2825  -28.5678    8.7529 C.ar      14 UNK        -0.0827 
     14 C14       -54.2926  -28.8829    7.3908 C.ar      14 UNK        -0.1249 
     15 C15       -54.7144  -29.6021    9.7809 C.3       14 UNK         0.0141 
     16 S16       -56.2872  -29.1625   10.5873 S.3       14 UNK        -0.2313 
     17 C17       -56.6019  -30.7097   11.4961 C.3       14 UNK        -0.0915 
     18 CA        -57.2703  -30.5199   12.8834 C.3       13 UNK         0.0968 
     19 C         -57.6332  -31.9224   13.4600 C.2       13 UNK         0.5732 
     20 N         -56.8362  -32.4987   14.3542 N.am      13 UNK        -0.7310 
     21 O         -58.6535  -32.4948   13.0838 O.2       13 UNK        -0.5035 
     22 N         -56.4552  -29.6913   13.7890 N.am      13 UNK        -0.4233 
     23 C         -56.8165  -29.3468   15.0354 C.2       13 UNK         0.4989 
     24 O         -57.9709  -29.4549   15.4538 O.2       13 UNK        -0.4996 
     25 CA        -55.7209  -28.8237   15.9953 C.3       12 UNK         0.0216 
     26 CB        -55.8986  -29.3782   17.4241 C.3       12 UNK        -0.1964 
     27 N         -54.3406  -29.0444   15.5422 N.am      12 UNK        -0.4276 
     28 C         -53.7550  -30.1991   15.1793 C.2       12 UNK         0.5020 
     29 O         -54.3034  -31.2984   15.2840 O.2       12 UNK        -0.5489 
     30 CA        -52.3496  -30.1169   14.5377 C.3       11 UNK         0.0294 
     31 CB        -52.2157  -31.0798   13.3388 C.3       11 UNK        -0.2019 
     32 N         -51.9376  -28.7582   14.1489 N.am      11 UNK        -0.4493 
     33 C         -52.5656  -27.9151   13.3113 C.2       11 UNK         0.4932 
     34 O         -53.5586  -28.2249   12.6553 O.2       11 UNK        -0.5029 
     35 CA        -52.0414  -26.4644   13.2640 C.3       10 UNK         0.0280 
     36 CB        -53.1579  -25.4489   12.9365 C.3       10 UNK        -0.1976 
     37 N         -51.3286  -26.0505   14.4845 N.am      10 UNK        -0.4242 
     38 C         -51.8198  -26.0340   15.7360 C.2       10 UNK         0.5072 
     39 O         -52.9660  -26.3897   16.0178 O.2       10 UNK        -0.5224 
     40 CA        -50.8765  -25.6263   16.8829 C.3       9 UNK         0.0343 
     41 CB        -50.5286  -26.8542   17.7422 C.3       9 UNK        -0.2003 
     42 N         -49.6299  -24.9891   16.4493 N.am      9 UNK        -0.4272 
     43 C         -49.5149  -23.7100   16.0677 C.2       9 UNK         0.4988 
     44 O         -50.4708  -22.9356   16.0021 O.2       9 UNK        -0.5108 
     45 CA        -48.1023  -23.1961   15.7300 C.3       8 UNK         0.0248 
     46 CB        -46.9942  -24.2672   15.8218 C.3       8 UNK        -0.2001 
     47 N         -48.1085  -22.6419   14.3803 N.am      8 UNK        -0.4140 
     48 C         -48.1724  -21.3415   14.0663 C.2       8 UNK         0.5028 
     49 O         -48.1565  -20.4323   14.8982 O.2       8 UNK        -0.5428 
     50 CA        -48.2534  -20.9771   12.5700 C.3       7 UNK         0.0264 
     51 CB        -46.8909  -20.4690   12.0700 C.3       7 UNK        -0.1988 
     52 N         -48.6883  -22.0837   11.7132 N.am      7 UNK        -0.4454 
     53 C         -49.9212  -22.6094   11.7003 C.2       7 UNK         0.5027 
     54 O         -50.8638  -22.1551   12.3485 O.2       7 UNK        -0.5083 
     55 CA        -50.1322  -23.8769   10.8479 C.3       6 UNK         0.0844 
     56 C56       -50.5760  -23.5062    9.4139 C.3       14 UNK        -0.0967 
     57 S57       -51.0147  -24.9846    8.4461 S.3       14 UNK        -0.2604 
     58 C58       -52.8199  -25.0351    8.6762 C.3       14 UNK         0.0134 
     59 N         -48.9703  -24.7767   10.8688 N.am      6 UNK        -0.4116 
     60 C         -48.4817  -25.3829   11.9613 C.2       5 UNK         0.5034 
     61 O         -48.9547  -25.2582   13.0907 O.2       5 UNK        -0.5045 
     62 CA        -47.2201  -26.2337   11.7743 C.3       5 UNK         0.0224 
     63 CB        -47.5627  -27.6096   11.1798 C.3       5 UNK        -0.1978 
     64 N         -46.2431  -25.5400   10.9340 N.am      5 UNK        -0.4737 
     65 C         -45.4884  -24.5181   11.3671 C.2       4 UNK         0.5027 
     66 O         -45.4758  -24.1278   12.5339 O.2       4 UNK        -0.5211 
     67 CA        -44.6198  -23.7874   10.3273 C.3       4 UNK         0.0297 
     68 CB        -43.2151  -24.4082   10.2719 C.3       4 UNK        -0.1993 
     69 N         -45.2011  -23.7808    8.9830 N.am      4 UNK        -0.4486 
     70 C         -46.3572  -23.1898    8.6489 C.2       3 UNK         0.4961 
     71 O         -47.0438  -22.5359    9.4322 O.2       3 UNK        -0.5105 
     72 CA        -46.8606  -23.4116    7.2123 C.3       3 UNK         0.0299 
     73 CB        -46.3691  -22.2848    6.2907 C.3       3 UNK        -0.1972 
     74 N         -46.4794  -24.7120    6.6485 N.am      3 UNK        -0.4305 
     75 C         -46.8433  -25.8973    7.1566 C.2       2 UNK         0.5006 
     76 O         -47.5108  -26.0281    8.1851 O.2       2 UNK        -0.5106 
     77 CA        -46.3273  -27.1488    6.4290 C.3       2 UNK         0.0296 
     78 CB        -45.2849  -27.8760    7.2949 C.3       2 UNK        -0.2002 
     79 N         -47.4201  -28.0689    6.1127 N.am      2 UNK        -0.4032 
     80 C         -48.4105  -27.8101    5.2452 C.2       1 UNK         0.5000 
     81 O         -48.4427  -26.7941    4.5476 O.2       1 UNK        -0.5238 
     82 H82       -51.3342  -28.4132    7.9508 H         1 UNK         0.0889 
     83 H83       -49.7458  -27.6719    7.7185 H         1 UNK         0.0889 
     84 H84       -50.0926  -28.5727    9.1818 H         1 UNK         0.0889 
     85 H85       -49.2226  -30.8069    5.7944 H         1 UNK         0.3028 
     86 H86       -49.3097  -29.3851    4.1864 H         1 UNK         0.0864 
     87 H87       -50.9016  -27.5417    4.0113 H         1 UNK         0.0720 
     88 H88       -51.1613  -27.5281    5.7266 H         1 UNK         0.0720 
     89 H89       -53.7371  -27.4563    4.3415 H         1 UNK         0.0814 
     90 H90       -54.6553  -28.8981    4.6958 H         1 UNK         0.0814 
     91 H91       -53.0610  -25.9739    6.1432 H         1 UNK         0.1469 
     92 H92       -53.7824  -27.0891   10.2210 H         1 UNK         0.1381 
     93 H93       -54.6180  -29.8616    7.0649 H         1 UNK         0.1206 
     94 H94       -54.8189  -30.5807    9.3096 H         1 UNK         0.0813 
     95 H95       -53.9341  -29.7093   10.5345 H         1 UNK         0.0813 
     96 H96       -55.6612  -31.2511   11.6161 H         1 UNK         0.0638 
     97 H97       -57.2278  -31.3308   10.8521 H         1 UNK         0.0638 
     98 H98       -58.2129  -29.9909   12.7327 H         1 UNK         0.0568 
     99 H99       -55.9823  -32.0421   14.6645 H         1 UNK         0.3450 
    100 H100      -57.0806  -33.4046   14.7199 H         1 UNK         0.3450 
    101 H101      -55.5031  -29.5195   13.4960 H         1 UNK         0.2987 
    102 H102      -55.8517  -27.7415   16.0384 H         1 UNK         0.0766 
    103 H103      -56.8705  -29.1048   17.8367 H         1 UNK         0.0798 
    104 H104      -55.1406  -28.9818   18.0998 H         1 UNK         0.0798 
    105 H105      -55.8306  -30.4665   17.4447 H         1 UNK         0.0798 
    106 H106      -53.7938  -28.1938   15.4428 H         1 UNK         0.3198 
    107 H107      -51.6485  -30.4419   15.3078 H         1 UNK         0.0843 
    108 H108      -52.9474  -30.8615   12.5607 H         1 UNK         0.0831 
    109 H109      -52.3714  -32.1144   13.6470 H         1 UNK         0.0831 
    110 H110      -51.2234  -31.0233   12.8917 H         1 UNK         0.0831 
    111 H111      -51.1359  -28.3934   14.6437 H         1 UNK         0.3133 
    112 H112      -51.3154  -26.4414   12.4521 H         1 UNK         0.0566 
    113 H113      -53.9679  -25.4912   13.6653 H         1 UNK         0.0814 
    114 H114      -53.5977  -25.6420   11.9597 H         1 UNK         0.0814 
    115 H115      -52.7765  -24.4278   12.9238 H         1 UNK         0.0814 
    116 H116      -50.3732  -25.7377   14.3306 H         1 UNK         0.3091 
    117 H117      -51.4251  -24.9204   17.5103 H         1 UNK         0.0702 
    118 H118      -49.9328  -26.5738   18.6110 H         1 UNK         0.0785 
    119 H119      -49.9683  -27.5997   17.1767 H         1 UNK         0.0785 
    120 H120      -51.4310  -27.3400   18.1169 H         1 UNK         0.0785 
    121 H121      -48.7971  -25.5597   16.4675 H         1 UNK         0.2998 
    122 H122      -47.8686  -22.4153   16.4563 H         1 UNK         0.0697 
    123 H123      -46.0226  -23.8393   15.5730 H         1 UNK         0.0825 
    124 H124      -47.1631  -25.0980   15.1357 H         1 UNK         0.0825 
    125 H125      -46.9107  -24.6709   16.8317 H         1 UNK         0.0825 
    126 H126      -48.1803  -23.3203   13.6326 H         1 UNK         0.3029 
    127 H127      -48.9802  -20.1680   12.4717 H         1 UNK         0.0897 
    128 H128      -46.1264  -21.2445   12.1333 H         1 UNK         0.0792 
    129 H129      -46.5467  -19.6205   12.6629 H         1 UNK         0.0792 
    130 H130      -46.9467  -20.1379   11.0327 H         1 UNK         0.0792 
    131 H131      -47.9986  -22.4503   11.0600 H         1 UNK         0.3086 
    132 H132      -50.9552  -24.4216   11.3103 H         1 UNK         0.0583 
    133 H133      -51.4305  -22.8263    9.4323 H         1 UNK         0.1020 
    134 H134      -49.7793  -22.9747    8.8906 H         1 UNK         0.1020 
    135 H135      -53.0582  -24.8539    9.7249 H         1 UNK         0.0694 
    136 H136      -53.2835  -24.2292    8.1054 H         1 UNK         0.0694 
    137 H137      -48.5298  -24.9610    9.9759 H         1 UNK         0.2989 
    138 H138      -46.7786  -26.3954   12.7607 H         1 UNK         0.1055 
    139 H139      -48.2435  -28.1554   11.8345 H         1 UNK         0.0806 
    140 H140      -46.6696  -28.2225   11.0584 H         1 UNK         0.0806 
    141 H141      -48.0475  -27.5291   10.2074 H         1 UNK         0.0806 
    142 H142      -46.2498  -25.7655    9.9467 H         1 UNK         0.3061 
    143 H143      -44.5240  -22.7492   10.6522 H         1 UNK         0.0734 
    144 H144      -43.2429  -25.4440    9.9310 H         1 UNK         0.0832 
    145 H145      -42.5591  -23.8501    9.6036 H         1 UNK         0.0832 
    146 H146      -42.7487  -24.4031   11.2583 H         1 UNK         0.0832 
    147 H147      -44.7056  -24.2926    8.2679 H         1 UNK         0.3156 
    148 H148      -47.9516  -23.3769    7.2402 H         1 UNK         0.0589 
    149 H149      -46.7965  -22.3735    5.2917 H         1 UNK         0.0808 
    150 H150      -45.2827  -22.2843    6.1941 H         1 UNK         0.0808 
    151 H151      -46.6619  -21.3083    6.6797 H         1 UNK         0.0808 
    152 H152      -45.9323  -24.6945    5.7993 H         1 UNK         0.3098 
    153 H153      -45.8519  -26.8517    5.4918 H         1 UNK         0.0720 
    154 H154      -44.4458  -27.2203    7.5312 H         1 UNK         0.0791 
    155 H155      -44.8781  -28.7463    6.7794 H         1 UNK         0.0791 
    156 H156      -45.7098  -28.2148    8.2411 H         1 UNK         0.0791 
    157 H157      -47.4660  -28.9228    6.6488 H         1 UNK         0.3028 
@<TRIPOS>BOND
     1    1    2 1    
     2    1   82 1    
     3    1   83 1    
     4    1   84 1    
     5    2    3 2    
     6    2    4 am   BACKBONE|DICT|INTERRES
     7    4    5 1    
     8    4   85 1    
     9    5    6 1    
    10    5   80 1    
    11    5   86 1    
    12    6    7 1    
    13    6   87 1    
    14    6   88 1    
    15    7    8 1    
    16    8    9 1    
    17    8   89 1    
    18    8   90 1    
    19    9   10 ar   
    20    9   14 ar   
    21   10   11 ar   
    22   10   91 1    
    23   11   12 ar   
    24   11   58 1    
    25   12   13 ar   
    26   12   92 1    
    27   13   14 ar   
    28   13   15 1    
    29   14   93 1    
    30   15   16 1    
    31   15   94 1    
    32   15   95 1    
    33   16   17 1    
    34   17   18 1    
    35   17   96 1    
    36   17   97 1    
    37   18   19 1    
    38   18   22 1    
    39   18   98 1    
    40   19   20 am   BACKBONE|DICT|INTERRES
    41   19   21 2    
    42   20   99 1    
    43   20  100 1    
    44   22   23 am   BACKBONE|DICT|INTERRES
    45   22  101 1    
    46   23   24 2    
    47   23   25 1    
    48   25   26 1    
    49   25   27 1    
    50   25  102 1    
    51   26  103 1    
    52   26  104 1    
    53   26  105 1    
    54   27   28 am   BACKBONE|DICT|INTERRES
    55   27  106 1    
    56   28   29 2    
    57   28   30 1    
    58   30   31 1    
    59   30   32 1    
    60   30  107 1    
    61   31  108 1    
    62   31  109 1    
    63   31  110 1    
    64   32   33 am   BACKBONE|DICT|INTERRES
    65   32  111 1    
    66   33   34 2    
    67   33   35 1    
    68   35   36 1    
    69   35   37 1    
    70   35  112 1    
    71   36  113 1    
    72   36  114 1    
    73   36  115 1    
    74   37   38 am   BACKBONE|DICT|INTERRES
    75   37  116 1    
    76   38   39 2    
    77   38   40 1    
    78   40   41 1    
    79   40   42 1    
    80   40  117 1    
    81   41  118 1    
    82   41  119 1    
    83   41  120 1    
    84   42   43 am   BACKBONE|DICT|INTERRES
    85   42  121 1    
    86   43   44 2    
    87   43   45 1    
    88   45   46 1    
    89   45   47 1    
    90   45  122 1    
    91   46  123 1    
    92   46  124 1    
    93   46  125 1    
    94   47   48 am   BACKBONE|DICT|INTERRES
    95   47  126 1    
    96   48   49 2    
    97   48   50 1    
    98   50   51 1    
    99   50   52 1    
   100   50  127 1    
   101   51  128 1    
   102   51  129 1    
   103   51  130 1    
   104   52   53 am   BACKBONE|DICT|INTERRES
   105   52  131 1    
   106   53   54 2    
   107   53   55 1    
   108   55   56 1    
   109   55   59 1    
   110   55  132 1    
   111   56   57 1    
   112   56  133 1    
   113   56  134 1    
   114   57   58 1    
   115   58  135 1    
   116   58  136 1    
   117   59   60 am   BACKBONE|DICT|INTERRES
   118   59  137 1    
   119   60   61 2    
   120   60   62 1    
   121   62   63 1    
   122   62   64 1    
   123   62  138 1    
   124   63  139 1    
   125   63  140 1    
   126   63  141 1    
   127   64   65 am   BACKBONE|DICT|INTERRES
   128   64  142 1    
   129   65   66 2    
   130   65   67 1    
   131   67   68 1    
   132   67   69 1    
   133   67  143 1    
   134   68  144 1    
   135   68  145 1    
   136   68  146 1    
   137   69   70 am   BACKBONE|DICT|INTERRES
   138   69  147 1    
   139   70   71 2    
   140   70   72 1    
   141   72   73 1    
   142   72   74 1    
   143   72  148 1    
   144   73  149 1    
   145   73  150 1    
   146   73  151 1    
   147   74   75 am   BACKBONE|DICT|INTERRES
   148   74  152 1    
   149   75   76 2    
   150   75   77 1    
   151   77   78 1    
   152   77   79 1    
   153   77  153 1    
   154   78  154 1    
   155   78  155 1    
   156   78  156 1    
   157   79   80 am   BACKBONE|DICT|INTERRES
   158   79  157 1    
   159   80   81 2    
@<TRIPOS>SUBSTRUCTURE
     1 UNK         1 GROUP             0       ****    0 ROOT    
