@<TRIPOS>MOLECULE
3R207
157   159    1
SMALL
USER_CHARGES


@<TRIPOS>ATOM
      1 CA        -47.3717  -28.6265    2.4124 C.3       0 UNK        -0.1975 
      2 C         -47.7672  -28.1727    3.8090 C.2       0 UNK         0.4852 
      3 O         -47.2023  -28.6563    4.7903 O.2       0 UNK        -0.5216 
      4 N         -48.7126  -27.2251    3.9068 N.am      1 UNK        -0.4461 
      5 CA        -49.3114  -26.7051    5.1507 C.3       1 UNK         0.0864 
      6 C6        -50.1952  -27.7529    5.8812 C.3       14 UNK        -0.0898 
      7 S7        -51.4391  -28.5776    4.8273 S.3       14 UNK        -0.2598 
      8 C8        -52.9756  -27.6660    5.2076 C.3       14 UNK         0.0286 
      9 C9        -53.3070  -27.5883    6.6962 C.ar      14 UNK        -0.0844 
     10 C10       -53.6378  -26.3524    7.2622 C.ar      14 UNK        -0.0881 
     11 C11       -53.9369  -26.2486    8.6230 C.ar      14 UNK        -0.0643 
     12 C12       -53.9074  -27.3944    9.4205 C.ar      14 UNK        -0.0930 
     13 C13       -53.5536  -28.6304    8.8768 C.ar      14 UNK        -0.0827 
     14 C14       -53.2746  -28.7283    7.5099 C.ar      14 UNK        -0.1249 
     15 C15       -53.4189  -29.8339    9.7940 C.3       14 UNK         0.0141 
     16 S16       -55.0420  -30.4550   10.3332 S.3       14 UNK        -0.2313 
     17 C17       -54.6539  -31.0514   12.0158 C.3       14 UNK        -0.0915 
     18 CA        -55.7581  -30.7064   13.0491 C.3       13 UNK         0.0968 
     19 C         -55.4304  -31.3137   14.4456 C.2       13 UNK         0.5732 
     20 N         -55.3167  -30.5344   15.5158 N.am      13 UNK        -0.7310 
     21 O         -55.2860  -32.5284   14.5635 O.2       13 UNK        -0.5035 
     22 N         -56.0640  -29.2671   13.0811 N.am      13 UNK        -0.4233 
     23 C         -57.2504  -28.7633   13.4481 C.2       13 UNK         0.4989 
     24 O         -58.2322  -29.4621   13.7079 O.2       13 UNK        -0.4996 
     25 CA        -57.3675  -27.2258   13.5446 C.3       12 UNK         0.0216 
     26 CB        -58.4902  -26.7807   14.5067 C.3       12 UNK        -0.1964 
     27 N         -56.1122  -26.5409   13.8841 N.am      12 UNK        -0.4276 
     28 C         -55.3324  -26.7627   14.9521 C.2       12 UNK         0.5020 
     29 O         -55.5542  -27.6180   15.8128 O.2       12 UNK        -0.5489 
     30 CA        -54.0651  -25.9006   15.0540 C.3       11 UNK         0.0294 
     31 CB        -54.0988  -25.0188   16.3123 C.3       11 UNK        -0.2019 
     32 N         -52.8518  -26.7169   15.0711 N.am      11 UNK        -0.4493 
     33 C         -52.4688  -27.5952   14.1373 C.2       11 UNK         0.4932 
     34 O         -53.1002  -27.8026   13.0978 O.2       11 UNK        -0.5029 
     35 CA        -51.1543  -28.3554   14.4165 C.3       10 UNK         0.0280 
     36 CB        -50.7943  -29.3315   13.2840 C.3       10 UNK        -0.1976 
     37 N         -49.9985  -27.4820   14.6761 N.am      10 UNK        -0.4242 
     38 C         -49.7759  -26.8076   15.8166 C.2       10 UNK         0.5072 
     39 O         -50.5960  -26.7455   16.7345 O.2       10 UNK        -0.5224 
     40 CA        -48.4136  -26.1195   16.0026 C.3       9 UNK         0.0343 
     41 CB        -47.2834  -26.7225   15.1499 C.3       9 UNK        -0.2003 
     42 N         -48.5091  -24.6862   15.7290 N.am      9 UNK        -0.4272 
     43 C         -48.6512  -23.7367   16.6638 C.2       9 UNK         0.4988 
     44 O         -48.7852  -23.9743   17.8650 O.2       9 UNK        -0.5108 
     45 CA        -48.6005  -22.2697   16.2088 C.3       8 UNK         0.0248 
     46 CB        -47.1436  -21.7838   16.1158 C.3       8 UNK        -0.2001 
     47 N         -49.2741  -22.0379   14.9284 N.am      8 UNK        -0.4140 
     48 C         -50.0917  -21.0031   14.6775 C.2       8 UNK         0.5028 
     49 O         -50.3673  -20.1324   15.5048 O.2       8 UNK        -0.5428 
     50 CA        -50.7081  -20.8961   13.2668 C.3       7 UNK         0.0264 
     51 CB        -49.9365  -19.8699   12.4209 C.3       7 UNK        -0.1988 
     52 N         -50.7498  -22.1698   12.5474 N.am      7 UNK        -0.4454 
     53 C         -51.4984  -23.2217   12.9045 C.2       7 UNK         0.5027 
     54 O         -52.3428  -23.1763   13.7989 O.2       7 UNK        -0.5083 
     55 CA        -51.2367  -24.5649   12.1897 C.3       6 UNK         0.0844 
     56 C56       -52.4522  -25.0429   11.3677 C.3       14 UNK        -0.0967 
     57 S57       -52.7817  -24.0606    9.8640 S.3       14 UNK        -0.2604 
     58 C58       -54.2720  -24.8964    9.2340 C.3       14 UNK         0.0134 
     59 N         -50.0006  -24.6489   11.4045 N.am      6 UNK        -0.4116 
     60 C         -48.7529  -24.5137   11.8694 C.2       5 UNK         0.5034 
     61 O         -48.4852  -24.1237   13.0085 O.2       5 UNK        -0.5045 
     62 CA        -47.6326  -24.9146   10.8926 C.3       5 UNK         0.0224 
     63 CB        -46.2361  -24.9137   11.5473 C.3       5 UNK        -0.1978 
     64 N         -47.8859  -26.2053   10.2349 N.am      5 UNK        -0.4737 
     65 C         -48.1583  -27.3852   10.8205 C.2       4 UNK         0.5027 
     66 O         -48.3091  -27.5465   12.0314 O.2       4 UNK        -0.5211 
     67 CA        -48.2773  -28.5987    9.8870 C.3       4 UNK         0.0297 
     68 CB        -49.6972  -28.6963    9.3062 C.3       4 UNK        -0.1993 
     69 N         -47.2934  -28.5298    8.8030 N.am      4 UNK        -0.4486 
     70 C         -46.0041  -28.8777    8.9364 C.2       3 UNK         0.4961 
     71 O         -45.5344  -29.3824    9.9567 O.2       3 UNK        -0.5105 
     72 CA        -45.0720  -28.6261    7.7374 C.3       3 UNK         0.0299 
     73 CB        -44.9490  -29.8944    6.8779 C.3       3 UNK        -0.1972 
     74 N         -45.5148  -27.5046    6.9046 N.am      3 UNK        -0.4305 
     75 C         -45.3337  -26.2139    7.2310 C.2       2 UNK         0.5006 
     76 O         -44.6984  -25.8470    8.2194 O.2       2 UNK        -0.5106 
     77 CA        -45.9737  -25.1392    6.3271 C.3       2 UNK         0.0296 
     78 CB        -44.9333  -24.5763    5.3454 C.3       2 UNK        -0.2002 
     79 N         -47.1431  -25.6020    5.5748 N.am      2 UNK        -0.4032 
     80 C         -48.2726  -26.0795    6.1184 C.2       1 UNK         0.5000 
     81 O         -48.4710  -26.0919    7.3367 O.2       1 UNK        -0.5238 
     82 H82       -47.5507  -29.6958    2.3038 H         1 UNK         0.0889 
     83 H83       -46.3117  -28.4393    2.2433 H         1 UNK         0.0889 
     84 H84       -47.9372  -28.1075    1.6389 H         1 UNK         0.0889 
     85 H85       -49.1232  -26.8632    3.0569 H         1 UNK         0.3028 
     86 H86       -49.9618  -25.8821    4.8513 H         1 UNK         0.0864 
     87 H87       -49.5687  -28.5385    6.3063 H         1 UNK         0.0720 
     88 H88       -50.7028  -27.2840    6.7233 H         1 UNK         0.0720 
     89 H89       -53.8055  -28.1491    4.6906 H         1 UNK         0.0814 
     90 H90       -52.8897  -26.6660    4.7797 H         1 UNK         0.0814 
     91 H91       -53.6549  -25.4634    6.6464 H         1 UNK         0.1469 
     92 H92       -54.1313  -27.3249   10.4764 H         1 UNK         0.1381 
     93 H93       -53.0025  -29.6841    7.0835 H         1 UNK         0.1206 
     94 H94       -52.8190  -29.5337   10.6540 H         1 UNK         0.0813 
     95 H95       -52.8703  -30.6401    9.3048 H         1 UNK         0.0813 
     96 H96       -53.7034  -30.6370   12.3505 H         1 UNK         0.0638 
     97 H97       -54.5094  -32.1315   11.9542 H         1 UNK         0.0638 
     98 H98       -56.6594  -31.2258   12.7180 H         1 UNK         0.0568 
     99 H99       -55.1117  -30.9582   16.4059 H         1 UNK         0.3450 
    100 H100      -55.4471  -29.5283   15.4602 H         1 UNK         0.3450 
    101 H101      -55.2856  -28.6430   12.9135 H         1 UNK         0.2987 
    102 H102      -57.6381  -26.8871   12.5434 H         1 UNK         0.0766 
    103 H103      -58.5767  -25.6947   14.5411 H         1 UNK         0.0798 
    104 H104      -58.3128  -27.1350   15.5229 H         1 UNK         0.0798 
    105 H105      -59.4590  -27.1694   14.1904 H         1 UNK         0.0798 
    106 H106      -55.8190  -25.8335   13.2248 H         1 UNK         0.3198 
    107 H107      -54.0107  -25.2439   14.1861 H         1 UNK         0.0843 
    108 H108      -54.1111  -25.6173   17.2243 H         1 UNK         0.0831 
    109 H109      -54.9880  -24.3873   16.3228 H         1 UNK         0.0831 
    110 H110      -53.2323  -24.3580   16.3548 H         1 UNK         0.0831 
    111 H111      -52.2468  -26.6261   15.8844 H         1 UNK         0.3133 
    112 H112      -51.3268  -28.9544   15.3131 H         1 UNK         0.0566 
    113 H113      -50.6793  -28.8077   12.3367 H         1 UNK         0.0814 
    114 H114      -49.8646  -29.8619   13.4902 H         1 UNK         0.0814 
    115 H115      -51.5722  -30.0829   13.1516 H         1 UNK         0.0814 
    116 H116      -49.2938  -27.4522   13.9453 H         1 UNK         0.3091 
    117 H117      -48.1335  -26.2797   17.0460 H         1 UNK         0.0702 
    118 H118      -46.3124  -26.3456   15.4716 H         1 UNK         0.0785 
    119 H119      -47.3935  -26.4706   14.0984 H         1 UNK         0.0785 
    120 H120      -47.2502  -27.8095   15.2356 H         1 UNK         0.0785 
    121 H121      -48.4240  -24.4207   14.7499 H         1 UNK         0.2998 
    122 H122      -49.0967  -21.6936   16.9929 H         1 UNK         0.0697 
    123 H123      -46.5942  -22.3061   15.3314 H         1 UNK         0.0825 
    124 H124      -46.6136  -21.9510   17.0546 H         1 UNK         0.0825 
    125 H125      -47.0961  -20.7156   15.9035 H         1 UNK         0.0825 
    126 H126      -49.0939  -22.7076   14.1868 H         1 UNK         0.3029 
    127 H127      -51.7346  -20.5425   13.3862 H         1 UNK         0.0897 
    128 H128      -49.9137  -18.8968   12.9139 H         1 UNK         0.0792 
    129 H129      -50.4038  -19.7256   11.4465 H         1 UNK         0.0792 
    130 H130      -48.9023  -20.1761   12.2578 H         1 UNK         0.0792 
    131 H131      -50.0904  -22.2906   11.7928 H         1 UNK         0.3086 
    132 H132      -51.1055  -25.2829   13.0005 H         1 UNK         0.0583 
    133 H133      -52.2699  -26.0763   11.0740 H         1 UNK         0.1020 
    134 H134      -53.3530  -25.0654   11.9811 H         1 UNK         0.1020 
    135 H135      -55.0011  -25.0104   10.0377 H         1 UNK         0.0694 
    136 H136      -54.7429  -24.2573    8.4855 H         1 UNK         0.0694 
    137 H137      -50.1171  -24.9487   10.4472 H         1 UNK         0.2989 
    138 H138      -47.6282  -24.1575   10.1068 H         1 UNK         0.1055 
    139 H139      -46.0138  -23.9484   12.0038 H         1 UNK         0.0806 
    140 H140      -45.4573  -25.1083   10.8100 H         1 UNK         0.0806 
    141 H141      -46.1501  -25.6716   12.3250 H         1 UNK         0.0806 
    142 H142      -47.8757  -26.1862    9.2183 H         1 UNK         0.3061 
    143 H143      -48.0916  -29.5002   10.4753 H         1 UNK         0.0734 
    144 H144      -49.7792  -29.4988    8.5734 H         1 UNK         0.0832 
    145 H145      -50.4249  -28.9049   10.0884 H         1 UNK         0.0832 
    146 H146      -50.0058  -27.7657    8.8318 H         1 UNK         0.0832 
    147 H147      -47.5878  -28.0769    7.9484 H         1 UNK         0.3156 
    148 H148      -44.0798  -28.3942    8.1309 H         1 UNK         0.0589 
    149 H149      -45.9174  -30.2235    6.4995 H         1 UNK         0.0808 
    150 H150      -44.2909  -29.7351    6.0236 H         1 UNK         0.0808 
    151 H151      -44.5327  -30.7180    7.4594 H         1 UNK         0.0808 
    152 H152      -46.0545  -27.7456    6.0766 H         1 UNK         0.3098 
    153 H153      -46.3048  -24.3274    6.9782 H         1 UNK         0.0720 
    154 H154      -45.3413  -23.7493    4.7640 H         1 UNK         0.0791 
    155 H155      -44.5823  -25.3383    4.6483 H         1 UNK         0.0791 
    156 H156      -44.0605  -24.1951    5.8777 H         1 UNK         0.0791 
    157 H157      -47.0520  -25.6379    4.5699 H         1 UNK         0.3028 
@<TRIPOS>BOND
     1    1    2 1    
     2    1   82 1    
     3    1   83 1    
     4    1   84 1    
     5    2    3 2    
     6    2    4 am   BACKBONE|DICT|INTERRES
     7    4    5 1    
     8    4   85 1    
     9    5    6 1    
    10    5   80 1    
    11    5   86 1    
    12    6    7 1    
    13    6   87 1    
    14    6   88 1    
    15    7    8 1    
    16    8    9 1    
    17    8   89 1    
    18    8   90 1    
    19    9   10 ar   
    20    9   14 ar   
    21   10   11 ar   
    22   10   91 1    
    23   11   12 ar   
    24   11   58 1    
    25   12   13 ar   
    26   12   92 1    
    27   13   14 ar   
    28   13   15 1    
    29   14   93 1    
    30   15   16 1    
    31   15   94 1    
    32   15   95 1    
    33   16   17 1    
    34   17   18 1    
    35   17   96 1    
    36   17   97 1    
    37   18   19 1    
    38   18   22 1    
    39   18   98 1    
    40   19   20 am   BACKBONE|DICT|INTERRES
    41   19   21 2    
    42   20   99 1    
    43   20  100 1    
    44   22   23 am   BACKBONE|DICT|INTERRES
    45   22  101 1    
    46   23   24 2    
    47   23   25 1    
    48   25   26 1    
    49   25   27 1    
    50   25  102 1    
    51   26  103 1    
    52   26  104 1    
    53   26  105 1    
    54   27   28 am   BACKBONE|DICT|INTERRES
    55   27  106 1    
    56   28   29 2    
    57   28   30 1    
    58   30   31 1    
    59   30   32 1    
    60   30  107 1    
    61   31  108 1    
    62   31  109 1    
    63   31  110 1    
    64   32   33 am   BACKBONE|DICT|INTERRES
    65   32  111 1    
    66   33   34 2    
    67   33   35 1    
    68   35   36 1    
    69   35   37 1    
    70   35  112 1    
    71   36  113 1    
    72   36  114 1    
    73   36  115 1    
    74   37   38 am   BACKBONE|DICT|INTERRES
    75   37  116 1    
    76   38   39 2    
    77   38   40 1    
    78   40   41 1    
    79   40   42 1    
    80   40  117 1    
    81   41  118 1    
    82   41  119 1    
    83   41  120 1    
    84   42   43 am   BACKBONE|DICT|INTERRES
    85   42  121 1    
    86   43   44 2    
    87   43   45 1    
    88   45   46 1    
    89   45   47 1    
    90   45  122 1    
    91   46  123 1    
    92   46  124 1    
    93   46  125 1    
    94   47   48 am   BACKBONE|DICT|INTERRES
    95   47  126 1    
    96   48   49 2    
    97   48   50 1    
    98   50   51 1    
    99   50   52 1    
   100   50  127 1    
   101   51  128 1    
   102   51  129 1    
   103   51  130 1    
   104   52   53 am   BACKBONE|DICT|INTERRES
   105   52  131 1    
   106   53   54 2    
   107   53   55 1    
   108   55   56 1    
   109   55   59 1    
   110   55  132 1    
   111   56   57 1    
   112   56  133 1    
   113   56  134 1    
   114   57   58 1    
   115   58  135 1    
   116   58  136 1    
   117   59   60 am   BACKBONE|DICT|INTERRES
   118   59  137 1    
   119   60   61 2    
   120   60   62 1    
   121   62   63 1    
   122   62   64 1    
   123   62  138 1    
   124   63  139 1    
   125   63  140 1    
   126   63  141 1    
   127   64   65 am   BACKBONE|DICT|INTERRES
   128   64  142 1    
   129   65   66 2    
   130   65   67 1    
   131   67   68 1    
   132   67   69 1    
   133   67  143 1    
   134   68  144 1    
   135   68  145 1    
   136   68  146 1    
   137   69   70 am   BACKBONE|DICT|INTERRES
   138   69  147 1    
   139   70   71 2    
   140   70   72 1    
   141   72   73 1    
   142   72   74 1    
   143   72  148 1    
   144   73  149 1    
   145   73  150 1    
   146   73  151 1    
   147   74   75 am   BACKBONE|DICT|INTERRES
   148   74  152 1    
   149   75   76 2    
   150   75   77 1    
   151   77   78 1    
   152   77   79 1    
   153   77  153 1    
   154   78  154 1    
   155   78  155 1    
   156   78  156 1    
   157   79   80 am   BACKBONE|DICT|INTERRES
   158   79  157 1    
   159   80   81 2    
@<TRIPOS>SUBSTRUCTURE
     1 UNK         1 GROUP             0       ****    0 ROOT    
