@<TRIPOS>MOLECULE
3R207
157   159    1
SMALL
USER_CHARGES


@<TRIPOS>ATOM
      1 CA        -47.8413  -30.7232   10.9748 C.3       0 UNK        -0.1975 
      2 C         -47.2093  -29.9442    9.8315 C.2       0 UNK         0.4852 
      3 O         -46.0417  -30.1671    9.5099 O.2       0 UNK        -0.5216 
      4 N         -47.9749  -29.0326    9.2198 N.am      1 UNK        -0.4461 
      5 CA        -47.5142  -28.1272    8.1620 C.3       1 UNK         0.0864 
      6 C6        -48.6741  -27.7168    7.2172 C.3       14 UNK        -0.0898 
      7 S7        -48.8246  -28.7705    5.7377 S.3       14 UNK        -0.2598 
      8 C8        -49.5701  -30.3031    6.3847 C.3       14 UNK         0.0286 
      9 C9        -50.8658  -30.0785    7.1551 C.ar      14 UNK        -0.0844 
     10 C10       -51.9773  -29.4940    6.5413 C.ar      14 UNK        -0.0881 
     11 C11       -53.1673  -29.3137    7.2532 C.ar      14 UNK        -0.0643 
     12 C12       -53.2422  -29.7306    8.5879 C.ar      14 UNK        -0.0930 
     13 C13       -52.1378  -30.3267    9.2150 C.ar      14 UNK        -0.0827 
     14 C14       -50.9584  -30.4917    8.4855 C.ar      14 UNK        -0.1249 
     15 C15       -52.1460  -30.8332   10.6599 C.3       14 UNK         0.0141 
     16 S16       -53.7495  -30.7983   11.5279 S.3       14 UNK        -0.2313 
     17 C17       -53.7493  -29.0872   12.1459 C.3       14 UNK        -0.0915 
     18 CA        -55.0908  -28.6801   12.8130 C.3       13 UNK         0.0968 
     19 C         -55.1756  -29.1541   14.2989 C.2       13 UNK         0.5732 
     20 N         -55.2681  -28.2752   15.2906 N.am      13 UNK        -0.7310 
     21 O         -55.1752  -30.3538   14.5619 O.2       13 UNK        -0.5035 
     22 N         -55.3501  -27.2512   12.5978 N.am      13 UNK        -0.4233 
     23 C         -56.5178  -26.6288   12.7902 C.2       13 UNK         0.4989 
     24 O         -57.5718  -27.2069   13.0617 O.2       13 UNK        -0.4996 
     25 CA        -56.4690  -25.0906   12.6884 C.3       12 UNK         0.0216 
     26 CB        -57.7395  -24.4099   13.2414 C.3       12 UNK        -0.1964 
     27 N         -55.2608  -24.5232   13.3113 N.am      12 UNK        -0.4276 
     28 C         -54.8641  -24.6803   14.5838 C.2       12 UNK         0.5020 
     29 O         -55.4948  -25.3220   15.4278 O.2       12 UNK        -0.5489 
     30 CA        -53.5411  -23.9994   14.9736 C.3       11 UNK         0.0294 
     31 CB        -53.7422  -22.4851   15.1504 C.3       11 UNK        -0.2019 
     32 N         -52.9955  -24.5517   16.2153 N.am      11 UNK        -0.4493 
     33 C         -52.3615  -25.7250   16.3195 C.2       11 UNK         0.4932 
     34 O         -52.0679  -26.4462   15.3594 O.2       11 UNK        -0.5029 
     35 CA        -52.0049  -26.1668   17.7454 C.3       10 UNK         0.0280 
     36 CB        -53.2420  -26.7157   18.4766 C.3       10 UNK        -0.1976 
     37 N         -50.9936  -27.2130   17.6638 N.am      10 UNK        -0.4242 
     38 C         -49.8893  -27.3185   18.4118 C.2       10 UNK         0.5072 
     39 O         -49.6378  -26.5917   19.3741 O.2       10 UNK        -0.5224 
     40 CA        -48.8846  -28.4205   18.0140 C.3       9 UNK         0.0343 
     41 CB        -49.0213  -29.6358   18.9459 C.3       9 UNK        -0.2003 
     42 N         -49.0345  -28.8628   16.6219 N.am      9 UNK        -0.4272 
     43 C         -48.7338  -28.1158   15.5497 C.2       9 UNK         0.4988 
     44 O         -48.1837  -27.0160   15.6193 O.2       9 UNK        -0.5108 
     45 CA        -49.1655  -28.6447   14.1751 C.3       8 UNK         0.0248 
     46 CB        -49.8032  -30.0512   14.1954 C.3       8 UNK        -0.2001 
     47 N         -50.1229  -27.6847   13.6387 N.am      8 UNK        -0.4140 
     48 C         -50.1692  -27.2473   12.3810 C.2       8 UNK         0.5028 
     49 O         -49.4324  -27.6419   11.4691 O.2       8 UNK        -0.5428 
     50 CA        -51.2187  -26.1664   12.1098 C.3       7 UNK         0.0264 
     51 CB        -50.6850  -24.7635   12.4462 C.3       7 UNK        -0.1988 
     52 N         -51.5568  -26.2129   10.7023 N.am      7 UNK        -0.4454 
     53 C         -52.7365  -25.9308   10.1551 C.2       7 UNK         0.5027 
     54 O         -53.7268  -25.5843   10.8023 O.2       7 UNK        -0.5083 
     55 CA        -52.7943  -26.0488    8.6204 C.3       6 UNK         0.0844 
     56 C56       -54.2292  -26.3245    8.1104 C.3       14 UNK        -0.0967 
     57 S57       -54.2153  -26.8820    6.3745 S.3       14 UNK        -0.2604 
     58 C58       -54.3778  -28.6881    6.5698 C.3       14 UNK         0.0134 
     59 N         -52.1869  -24.8716    7.9868 N.am      6 UNK        -0.4116 
     60 C         -50.8764  -24.5933    7.9998 C.2       5 UNK         0.5034 
     61 O         -50.0313  -25.3214    8.5237 O.2       5 UNK        -0.5045 
     62 CA        -50.4334  -23.2764    7.3522 C.3       5 UNK         0.0224 
     63 CB        -50.6754  -22.1022    8.3151 C.3       5 UNK        -0.1978 
     64 N         -49.0009  -23.3604    7.0780 N.am      5 UNK        -0.4737 
     65 C         -48.4425  -23.4628    5.8669 C.2       4 UNK         0.5027 
     66 O         -49.0809  -23.3728    4.8171 O.2       4 UNK        -0.5211 
     67 CA        -46.9253  -23.7453    5.8101 C.3       4 UNK         0.0297 
     68 CB        -46.2402  -23.0725    4.6014 C.3       4 UNK        -0.1993 
     69 N         -46.2135  -23.4487    7.0611 N.am      4 UNK        -0.4486 
     70 C         -46.0549  -22.2502    7.6485 C.2       3 UNK         0.4961 
     71 O         -46.4382  -21.1899    7.1523 O.2       3 UNK        -0.5105 
     72 CA        -45.3541  -22.2300    9.0259 C.3       3 UNK         0.0299 
     73 CB        -45.8359  -21.0632    9.9152 C.3       3 UNK        -0.1972 
     74 N         -45.4333  -23.5049    9.7537 N.am      3 UNK        -0.4305 
     75 C         -46.5448  -24.1379   10.1584 C.2       2 UNK         0.5006 
     76 O         -47.6862  -23.6971   10.0164 O.2       2 UNK        -0.5106 
     77 CA        -46.3324  -25.5270   10.7827 C.3       2 UNK         0.0296 
     78 CB        -46.7555  -25.5570   12.2598 C.3       2 UNK        -0.2002 
     79 N         -47.0360  -26.5746   10.0385 N.am      2 UNK        -0.4032 
     80 C         -46.7876  -26.8996    8.7573 C.2       1 UNK         0.5000 
     81 O         -45.9774  -26.2920    8.0513 O.2       1 UNK        -0.5238 
     82 H82       -47.2869  -30.5527   11.8971 H         1 UNK         0.0889 
     83 H83       -47.8273  -31.7908   10.7576 H         1 UNK         0.0889 
     84 H84       -48.8748  -30.4231   11.1413 H         1 UNK         0.0889 
     85 H85       -48.9005  -28.8451    9.5847 H         1 UNK         0.3028 
     86 H86       -46.7598  -28.6466    7.5668 H         1 UNK         0.0864 
     87 H87       -49.6280  -27.6991    7.7448 H         1 UNK         0.0720 
     88 H88       -48.5319  -26.7043    6.8342 H         1 UNK         0.0720 
     89 H89       -49.7708  -30.9739    5.5484 H         1 UNK         0.0814 
     90 H90       -48.8308  -30.8098    7.0069 H         1 UNK         0.0814 
     91 H91       -51.9148  -29.1760    5.5094 H         1 UNK         0.1469 
     92 H92       -54.1696  -29.5954    9.1246 H         1 UNK         0.1381 
     93 H93       -50.1076  -30.9649    8.9555 H         1 UNK         0.1206 
     94 H94       -51.4182  -30.2610   11.2357 H         1 UNK         0.0813 
     95 H95       -51.7959  -31.8665   10.6645 H         1 UNK         0.0813 
     96 H96       -52.9072  -28.9431   12.8257 H         1 UNK         0.0638 
     97 H97       -53.5489  -28.4536   11.2826 H         1 UNK         0.0638 
     98 H98       -55.8963  -29.2019   12.2929 H         1 UNK         0.0568 
     99 H99       -55.3363  -28.6205   16.2333 H         1 UNK         0.3450 
    100 H100      -55.3118  -27.2760   15.1215 H         1 UNK         0.3450 
    101 H101      -54.5631  -26.6842   12.3061 H         1 UNK         0.2987 
    102 H102      -56.4058  -24.8595   11.6238 H         1 UNK         0.0766 
    103 H103      -58.6277  -24.7425   12.7029 H         1 UNK         0.0798 
    104 H104      -57.6859  -23.3262   13.1375 H         1 UNK         0.0798 
    105 H105      -57.8945  -24.6383   14.2964 H         1 UNK         0.0798 
    106 H106      -54.6544  -24.0179   12.6783 H         1 UNK         0.3198 
    107 H107      -52.8212  -24.1683   14.1733 H         1 UNK         0.0843 
    108 H108      -54.4695  -22.2630   15.9327 H         1 UNK         0.0831 
    109 H109      -54.1044  -22.0240   14.2306 H         1 UNK         0.0831 
    110 H110      -52.8072  -21.9884   15.4103 H         1 UNK         0.0831 
    111 H111      -53.2338  -24.0584   17.0635 H         1 UNK         0.3133 
    112 H112      -51.6112  -25.3025   18.2845 H         1 UNK         0.0566 
    113 H113      -53.6713  -27.5709   17.9530 H         1 UNK         0.0814 
    114 H114      -54.0229  -25.9584   18.5570 H         1 UNK         0.0814 
    115 H115      -52.9938  -27.0338   19.4893 H         1 UNK         0.0814 
    116 H116      -51.0895  -27.8162   16.8590 H         1 UNK         0.3091 
    117 H117      -47.8808  -28.0072   18.1345 H         1 UNK         0.0702 
    118 H118      -48.2715  -30.3948   18.7217 H         1 UNK         0.0785 
    119 H119      -50.0055  -30.0992   18.8650 H         1 UNK         0.0785 
    120 H120      -48.8833  -29.3449   19.9883 H         1 UNK         0.0785 
    121 H121      -49.4701  -29.7624   16.4765 H         1 UNK         0.2998 
    122 H122      -48.2702  -28.6708   13.5501 H         1 UNK         0.0697 
    123 H123      -50.7170  -30.0820   14.7905 H         1 UNK         0.0825 
    124 H124      -49.1119  -30.7961   14.5917 H         1 UNK         0.0825 
    125 H125      -50.0679  -30.3734   13.1901 H         1 UNK         0.0825 
    126 H126      -50.7482  -27.2513   14.3167 H         1 UNK         0.3029 
    127 H127      -52.1063  -26.3805   12.7082 H         1 UNK         0.0897 
    128 H128      -49.8390  -24.4959   11.8123 H         1 UNK         0.0792 
    129 H129      -50.3592  -24.7001   13.4854 H         1 UNK         0.0792 
    130 H130      -51.4497  -24.0027   12.2925 H         1 UNK         0.0792 
    131 H131      -50.7763  -26.4316   10.0890 H         1 UNK         0.3086 
    132 H132      -52.1826  -26.9147    8.3572 H         1 UNK         0.0583 
    133 H133      -54.7234  -27.0840    8.7196 H         1 UNK         0.1020 
    134 H134      -54.8485  -25.4296    8.1936 H         1 UNK         0.1020 
    135 H135      -55.2930  -28.9121    7.1201 H         1 UNK         0.0694 
    136 H136      -54.5027  -29.1360    5.5829 H         1 UNK         0.0694 
    137 H137      -52.8252  -24.2226    7.5513 H         1 UNK         0.2989 
    138 H138      -51.0020  -23.1216    6.4326 H         1 UNK         0.1055 
    139 H139      -50.1537  -22.2461    9.2631 H         1 UNK         0.0806 
    140 H140      -51.7364  -21.9864    8.5396 H         1 UNK         0.0806 
    141 H141      -50.3302  -21.1617    7.8851 H         1 UNK         0.0806 
    142 H142      -48.4229  -23.5240    7.8958 H         1 UNK         0.3061 
    143 H143      -46.8357  -24.8242    5.6740 H         1 UNK         0.0734 
    144 H144      -46.3598  -21.9890    4.6175 H         1 UNK         0.0832 
    145 H145      -45.1732  -23.2935    4.5752 H         1 UNK         0.0832 
    146 H146      -46.6657  -23.4294    3.6627 H         1 UNK         0.0832 
    147 H147      -45.8908  -24.2710    7.5633 H         1 UNK         0.3156 
    148 H148      -44.2955  -22.0679    8.8182 H         1 UNK         0.0589 
    149 H149      -45.3273  -21.0615   10.8791 H         1 UNK         0.0808 
    150 H150      -45.6340  -20.1007    9.4435 H         1 UNK         0.0808 
    151 H151      -46.9092  -21.1132   10.1016 H         1 UNK         0.0808 
    152 H152      -44.5474  -23.9702    9.8998 H         1 UNK         0.3098 
    153 H153      -45.2686  -25.7705   10.7429 H         1 UNK         0.0720 
    154 H154      -47.8138  -25.3373   12.3822 H         1 UNK         0.0791 
    155 H155      -46.2019  -24.8176   12.8397 H         1 UNK         0.0791 
    156 H156      -46.5660  -26.5317   12.7098 H         1 UNK         0.0791 
    157 H157      -47.7761  -27.0660   10.5317 H         1 UNK         0.3028 
@<TRIPOS>BOND
     1    1    2 1    
     2    1   82 1    
     3    1   83 1    
     4    1   84 1    
     5    2    3 2    
     6    2    4 am   BACKBONE|DICT|INTERRES
     7    4    5 1    
     8    4   85 1    
     9    5    6 1    
    10    5   80 1    
    11    5   86 1    
    12    6    7 1    
    13    6   87 1    
    14    6   88 1    
    15    7    8 1    
    16    8    9 1    
    17    8   89 1    
    18    8   90 1    
    19    9   10 ar   
    20    9   14 ar   
    21   10   11 ar   
    22   10   91 1    
    23   11   12 ar   
    24   11   58 1    
    25   12   13 ar   
    26   12   92 1    
    27   13   14 ar   
    28   13   15 1    
    29   14   93 1    
    30   15   16 1    
    31   15   94 1    
    32   15   95 1    
    33   16   17 1    
    34   17   18 1    
    35   17   96 1    
    36   17   97 1    
    37   18   19 1    
    38   18   22 1    
    39   18   98 1    
    40   19   20 am   BACKBONE|DICT|INTERRES
    41   19   21 2    
    42   20   99 1    
    43   20  100 1    
    44   22   23 am   BACKBONE|DICT|INTERRES
    45   22  101 1    
    46   23   24 2    
    47   23   25 1    
    48   25   26 1    
    49   25   27 1    
    50   25  102 1    
    51   26  103 1    
    52   26  104 1    
    53   26  105 1    
    54   27   28 am   BACKBONE|DICT|INTERRES
    55   27  106 1    
    56   28   29 2    
    57   28   30 1    
    58   30   31 1    
    59   30   32 1    
    60   30  107 1    
    61   31  108 1    
    62   31  109 1    
    63   31  110 1    
    64   32   33 am   BACKBONE|DICT|INTERRES
    65   32  111 1    
    66   33   34 2    
    67   33   35 1    
    68   35   36 1    
    69   35   37 1    
    70   35  112 1    
    71   36  113 1    
    72   36  114 1    
    73   36  115 1    
    74   37   38 am   BACKBONE|DICT|INTERRES
    75   37  116 1    
    76   38   39 2    
    77   38   40 1    
    78   40   41 1    
    79   40   42 1    
    80   40  117 1    
    81   41  118 1    
    82   41  119 1    
    83   41  120 1    
    84   42   43 am   BACKBONE|DICT|INTERRES
    85   42  121 1    
    86   43   44 2    
    87   43   45 1    
    88   45   46 1    
    89   45   47 1    
    90   45  122 1    
    91   46  123 1    
    92   46  124 1    
    93   46  125 1    
    94   47   48 am   BACKBONE|DICT|INTERRES
    95   47  126 1    
    96   48   49 2    
    97   48   50 1    
    98   50   51 1    
    99   50   52 1    
   100   50  127 1    
   101   51  128 1    
   102   51  129 1    
   103   51  130 1    
   104   52   53 am   BACKBONE|DICT|INTERRES
   105   52  131 1    
   106   53   54 2    
   107   53   55 1    
   108   55   56 1    
   109   55   59 1    
   110   55  132 1    
   111   56   57 1    
   112   56  133 1    
   113   56  134 1    
   114   57   58 1    
   115   58  135 1    
   116   58  136 1    
   117   59   60 am   BACKBONE|DICT|INTERRES
   118   59  137 1    
   119   60   61 2    
   120   60   62 1    
   121   62   63 1    
   122   62   64 1    
   123   62  138 1    
   124   63  139 1    
   125   63  140 1    
   126   63  141 1    
   127   64   65 am   BACKBONE|DICT|INTERRES
   128   64  142 1    
   129   65   66 2    
   130   65   67 1    
   131   67   68 1    
   132   67   69 1    
   133   67  143 1    
   134   68  144 1    
   135   68  145 1    
   136   68  146 1    
   137   69   70 am   BACKBONE|DICT|INTERRES
   138   69  147 1    
   139   70   71 2    
   140   70   72 1    
   141   72   73 1    
   142   72   74 1    
   143   72  148 1    
   144   73  149 1    
   145   73  150 1    
   146   73  151 1    
   147   74   75 am   BACKBONE|DICT|INTERRES
   148   74  152 1    
   149   75   76 2    
   150   75   77 1    
   151   77   78 1    
   152   77   79 1    
   153   77  153 1    
   154   78  154 1    
   155   78  155 1    
   156   78  156 1    
   157   79   80 am   BACKBONE|DICT|INTERRES
   158   79  157 1    
   159   80   81 2    
@<TRIPOS>SUBSTRUCTURE
     1 UNK         1 GROUP             0       ****    0 ROOT    
