@<TRIPOS>MOLECULE
3R207
157   159    1
SMALL
USER_CHARGES


@<TRIPOS>ATOM
      1 CA        -53.6843  -26.9400    2.4549 C.3       0 UNK        -0.1975 
      2 C         -52.6954  -26.9365    3.6116 C.2       0 UNK         0.4852 
      3 O         -52.7109  -26.0126    4.4258 O.2       0 UNK        -0.5216 
      4 N         -51.8423  -27.9658    3.6939 N.am      1 UNK        -0.4461 
      5 CA        -50.7809  -28.0929    4.6966 C.3       1 UNK         0.0864 
      6 C6        -50.2773  -29.5563    4.7854 C.3       14 UNK        -0.0898 
      7 S7        -49.5441  -29.9473    6.4085 S.3       14 UNK        -0.2598 
      8 C8        -50.9991  -30.5235    7.3431 C.3       14 UNK         0.0286 
      9 C9        -51.1440  -29.7447    8.6397 C.ar      14 UNK        -0.0844 
     10 C10       -51.7781  -28.5004    8.6424 C.ar      14 UNK        -0.0881 
     11 C11       -51.8733  -27.7512    9.8173 C.ar      14 UNK        -0.0643 
     12 C12       -51.3519  -28.2735   11.0066 C.ar      14 UNK        -0.0930 
     13 C13       -50.7213  -29.5236   11.0208 C.ar      14 UNK        -0.0827 
     14 C14       -50.6252  -30.2544    9.8326 C.ar      14 UNK        -0.1249 
     15 C15       -50.0837  -30.0724   12.2946 C.3       14 UNK         0.0141 
     16 S16       -51.1663  -30.0020   13.7587 S.3       14 UNK        -0.2313 
     17 C17       -52.5574  -31.0700   13.2554 C.3       14 UNK        -0.0915 
     18 CA        -53.8486  -30.2528   12.9606 C.3       13 UNK         0.0968 
     19 C         -54.9977  -31.1172   12.3559 C.2       13 UNK         0.5732 
     20 N         -56.2666  -30.8096   12.6066 N.am      13 UNK        -0.7310 
     21 O         -54.7440  -32.0679   11.6197 O.2       13 UNK        -0.5035 
     22 N         -54.2647  -29.3941   14.0815 N.am      13 UNK        -0.4233 
     23 C         -54.7000  -29.8039   15.2830 C.2       13 UNK         0.4989 
     24 O         -54.6995  -30.9782   15.6549 O.2       13 UNK        -0.4996 
     25 CA        -55.2850  -28.7306   16.2254 C.3       12 UNK         0.0216 
     26 CB        -54.2450  -28.3187   17.2772 C.3       12 UNK        -0.1964 
     27 N         -55.7741  -27.5335   15.5312 N.am      12 UNK        -0.4276 
     28 C         -56.7341  -27.5322   14.5924 C.2       12 UNK         0.5020 
     29 O         -57.3962  -28.5283   14.2956 O.2       12 UNK        -0.5489 
     30 CA        -56.9579  -26.2319   13.7993 C.3       11 UNK         0.0294 
     31 CB        -58.1986  -25.4918   14.3239 C.3       11 UNK        -0.2019 
     32 N         -55.8167  -25.3108   13.7927 N.am      11 UNK        -0.4493 
     33 C         -54.5694  -25.5807   13.3779 C.2       11 UNK         0.4932 
     34 O         -54.2089  -26.6746   12.9426 O.2       11 UNK        -0.5029 
     35 CA        -53.5451  -24.4367   13.4904 C.3       10 UNK         0.0280 
     36 CB        -54.1842  -23.0322   13.4368 C.3       10 UNK        -0.1976 
     37 N         -52.6621  -24.5299   14.6604 N.am      10 UNK        -0.4242 
     38 C         -52.9973  -24.7692   15.9388 C.2       10 UNK         0.5072 
     39 O         -54.1313  -25.0890   16.3048 O.2       10 UNK        -0.5224 
     40 CA        -51.8907  -24.5600   16.9962 C.3       9 UNK         0.0343 
     41 CB        -52.2400  -25.1797   18.3670 C.3       9 UNK        -0.2003 
     42 N         -50.5440  -24.9688   16.5767 N.am      9 UNK        -0.4272 
     43 C         -50.1335  -26.1953   16.2246 C.2       9 UNK         0.4988 
     44 O         -50.8845  -27.1651   16.1264 O.2       9 UNK        -0.5108 
     45 CA        -48.6214  -26.3577   15.9556 C.3       8 UNK         0.0248 
     46 CB        -48.2395  -27.8029   15.5844 C.3       8 UNK        -0.2001 
     47 N         -48.1513  -25.4526   14.9035 N.am      8 UNK        -0.4140 
     48 C         -47.9023  -24.1423   15.0615 C.2       8 UNK         0.5028 
     49 O         -47.9742  -23.5696   16.1500 O.2       8 UNK        -0.5428 
     50 CA        -47.5838  -23.3114   13.8002 C.3       7 UNK         0.0264 
     51 CB        -46.0645  -23.1980   13.6004 C.3       7 UNK        -0.1988 
     52 N         -48.1909  -23.8441   12.5778 N.am      7 UNK        -0.4454 
     53 C         -49.5005  -24.0722   12.4045 C.2       7 UNK         0.5027 
     54 O         -50.3580  -23.6837   13.1983 O.2       7 UNK        -0.5083 
     55 CA        -49.9353  -24.9468   11.2093 C.3       6 UNK         0.0844 
     56 C56       -50.7929  -24.1485   10.2005 C.3       14 UNK        -0.0967 
     57 S57       -51.5284  -25.1646    8.8715 S.3       14 UNK        -0.2604 
     58 C58       -52.5418  -26.3831    9.7783 C.3       14 UNK         0.0134 
     59 N         -48.8394  -25.6895   10.5715 N.am      6 UNK        -0.4116 
     60 C         -48.1126  -26.6485   11.1662 C.2       5 UNK         0.5034 
     61 O         -48.2484  -26.9762   12.3444 O.2       5 UNK        -0.5045 
     62 CA        -47.0028  -27.2985   10.3303 C.3       5 UNK         0.0224 
     63 CB        -47.5787  -28.2722    9.2891 C.3       5 UNK        -0.1978 
     64 N         -46.2022  -26.2704    9.6668 N.am      5 UNK        -0.4737 
     65 C         -45.1781  -25.6274   10.2458 C.2       4 UNK         0.5027 
     66 O         -44.7403  -25.9064   11.3615 O.2       4 UNK        -0.5211 
     67 CA        -44.5356  -24.4691    9.4605 C.3       4 UNK         0.0297 
     68 CB        -43.3129  -24.9685    8.6743 C.3       4 UNK        -0.1993 
     69 N         -45.4629  -23.8057    8.5411 N.am      4 UNK        -0.4486 
     70 C         -46.5318  -23.0894    8.9172 C.2       3 UNK         0.4961 
     71 O         -46.8226  -22.8552   10.0891 O.2       3 UNK        -0.5105 
     72 CA        -47.4621  -22.5949    7.7950 C.3       3 UNK         0.0299 
     73 CB        -47.0325  -21.1993    7.3165 C.3       3 UNK        -0.1972 
     74 N         -47.5416  -23.5071    6.6464 N.am      3 UNK        -0.4305 
     75 C         -47.9664  -24.7762    6.7099 C.2       2 UNK         0.5006 
     76 O         -48.3035  -25.3367    7.7552 O.2       2 UNK        -0.5106 
     77 CA        -47.9507  -25.5752    5.4066 C.3       2 UNK         0.0296 
     78 CB        -46.5943  -26.2797    5.2202 C.3       2 UNK        -0.2002 
     79 N         -49.0222  -26.5633    5.4649 N.am      2 UNK        -0.4032 
     80 C         -49.6330  -27.1027    4.4051 C.2       1 UNK         0.5000 
     81 O         -49.3169  -26.8620    3.2355 O.2       1 UNK        -0.5238 
     82 H82       -54.7056  -26.9255    2.8344 H         1 UNK         0.0889 
     83 H83       -53.5382  -26.0562    1.8345 H         1 UNK         0.0889 
     84 H84       -53.5701  -27.8205    1.8228 H         1 UNK         0.0889 
     85 H85       -51.8522  -28.6743    2.9742 H         1 UNK         0.3028 
     86 H86       -51.2238  -27.8193    5.6557 H         1 UNK         0.0864 
     87 H87       -49.5427  -29.7698    4.0062 H         1 UNK         0.0720 
     88 H88       -51.0948  -30.2568    4.6071 H         1 UNK         0.0720 
     89 H89       -50.8922  -31.5900    7.5470 H         1 UNK         0.0814 
     90 H90       -51.9111  -30.4171    6.7543 H         1 UNK         0.0814 
     91 H91       -52.1836  -28.0990    7.7249 H         1 UNK         0.1469 
     92 H92       -51.4305  -27.7117   11.9265 H         1 UNK         0.1381 
     93 H93       -50.1229  -31.2121    9.8283 H         1 UNK         0.1206 
     94 H94       -49.1799  -29.5001   12.5041 H         1 UNK         0.0813 
     95 H95       -49.7631  -31.1056   12.1533 H         1 UNK         0.0813 
     96 H96       -52.2564  -31.6439   12.3775 H         1 UNK         0.0638 
     97 H97       -52.7341  -31.8012   14.0450 H         1 UNK         0.0638 
     98 H98       -53.6049  -29.5563   12.1588 H         1 UNK         0.0568 
     99 H99       -56.5115  -30.0301   13.2069 H         1 UNK         0.3450 
    100 H100      -56.9950  -31.3731   12.1988 H         1 UNK         0.3450 
    101 H101      -54.2983  -28.4032   13.8616 H         1 UNK         0.2987 
    102 H102      -56.1364  -29.1792   16.7410 H         1 UNK         0.0766 
    103 H103      -53.9070  -29.1810   17.8534 H         1 UNK         0.0798 
    104 H104      -54.6530  -27.5942   17.9822 H         1 UNK         0.0798 
    105 H105      -53.3658  -27.8752   16.8096 H         1 UNK         0.0798 
    106 H106      -55.2754  -26.6658   15.7129 H         1 UNK         0.3198 
    107 H107      -57.1428  -26.5208   12.7627 H         1 UNK         0.0843 
    108 H108      -58.4373  -24.6257   13.7064 H         1 UNK         0.0831 
    109 H109      -58.0590  -25.1476   15.3496 H         1 UNK         0.0831 
    110 H110      -59.0741  -26.1429   14.3155 H         1 UNK         0.0831 
    111 H111      -55.9860  -24.3914   14.1744 H         1 UNK         0.3133 
    112 H112      -52.8998  -24.5292   12.6176 H         1 UNK         0.0566 
    113 H113      -54.8551  -22.9330   12.5821 H         1 UNK         0.0814 
    114 H114      -54.7516  -22.8001   14.3388 H         1 UNK         0.0814 
    115 H115      -53.4179  -22.2642   13.3285 H         1 UNK         0.0814 
    116 H116      -51.6931  -24.2981   14.4588 H         1 UNK         0.3091 
    117 H117      -51.8365  -23.4801   17.1400 H         1 UNK         0.0702 
    118 H118      -51.4847  -24.9367   19.1141 H         1 UNK         0.0785 
    119 H119      -52.3178  -26.2652   18.3131 H         1 UNK         0.0785 
    120 H120      -53.1930  -24.8027   18.7405 H         1 UNK         0.0785 
    121 H121      -49.8327  -24.2435   16.5966 H         1 UNK         0.2998 
    122 H122      -48.1023  -26.1114   16.8843 H         1 UNK         0.0697 
    123 H123      -47.1682  -27.9011   15.4095 H         1 UNK         0.0825 
    124 H124      -48.5034  -28.4945   16.3855 H         1 UNK         0.0825 
    125 H125      -48.7584  -28.1375   14.6856 H         1 UNK         0.0825 
    126 H126      -48.1106  -25.8496   13.9685 H         1 UNK         0.3029 
    127 H127      -47.9889  -22.3096   13.9573 H         1 UNK         0.0897 
    128 H128      -45.8218  -22.5518   12.7564 H         1 UNK         0.0792 
    129 H129      -45.5849  -22.7721   14.4829 H         1 UNK         0.0792 
    130 H130      -45.6086  -24.1721   13.4183 H         1 UNK         0.0792 
    131 H131      -47.5588  -24.1045   11.8314 H         1 UNK         0.3086 
    132 H132      -50.5842  -25.6923   11.6630 H         1 UNK         0.0583 
    133 H133      -51.6076  -23.6302   10.7099 H         1 UNK         0.1020 
    134 H134      -50.1895  -23.3687    9.7332 H         1 UNK         0.1020 
    135 H135      -52.7593  -26.0234   10.7826 H         1 UNK         0.0694 
    136 H136      -53.5065  -26.4758    9.2776 H         1 UNK         0.0694 
    137 H137      -48.6813  -25.4991    9.5846 H         1 UNK         0.2989 
    138 H138      -46.3630  -27.8719   11.0053 H         1 UNK         0.1055 
    139 H139      -48.0439  -29.1251    9.7824 H         1 UNK         0.0806 
    140 H140      -48.3417  -27.8101    8.6622 H         1 UNK         0.0806 
    141 H141      -46.8010  -28.6659    8.6349 H         1 UNK         0.0806 
    142 H142      -46.5485  -25.9380    8.7754 H         1 UNK         0.3061 
    143 H143      -44.1972  -23.7281   10.1883 H         1 UNK         0.0734 
    144 H144      -42.7974  -24.1474    8.1758 H         1 UNK         0.0832 
    145 H145      -42.5910  -25.4449    9.3393 H         1 UNK         0.0832 
    146 H146      -43.5907  -25.7027    7.9169 H         1 UNK         0.0832 
    147 H147      -45.3016  -23.9379    7.5535 H         1 UNK         0.3156 
    148 H148      -48.4657  -22.5142    8.2167 H         1 UNK         0.0589 
    149 H149      -47.7390  -20.7919    6.5931 H         1 UNK         0.0808 
    150 H150      -46.9875  -20.4982    8.1513 H         1 UNK         0.0808 
    151 H151      -46.0458  -21.2157    6.8518 H         1 UNK         0.0808 
    152 H152      -47.2689  -23.1297    5.7496 H         1 UNK         0.3098 
    153 H153      -48.1318  -24.8920    4.5739 H         1 UNK         0.0720 
    154 H154      -45.7762  -25.5592    5.1869 H         1 UNK         0.0791 
    155 H155      -46.3877  -26.9751    6.0352 H         1 UNK         0.0791 
    156 H156      -46.5649  -26.8431    4.2873 H         1 UNK         0.0791 
    157 H157      -49.3377  -26.7791    6.4032 H         1 UNK         0.3028 
@<TRIPOS>BOND
     1    1    2 1    
     2    1   82 1    
     3    1   83 1    
     4    1   84 1    
     5    2    3 2    
     6    2    4 am   BACKBONE|DICT|INTERRES
     7    4    5 1    
     8    4   85 1    
     9    5    6 1    
    10    5   80 1    
    11    5   86 1    
    12    6    7 1    
    13    6   87 1    
    14    6   88 1    
    15    7    8 1    
    16    8    9 1    
    17    8   89 1    
    18    8   90 1    
    19    9   10 ar   
    20    9   14 ar   
    21   10   11 ar   
    22   10   91 1    
    23   11   12 ar   
    24   11   58 1    
    25   12   13 ar   
    26   12   92 1    
    27   13   14 ar   
    28   13   15 1    
    29   14   93 1    
    30   15   16 1    
    31   15   94 1    
    32   15   95 1    
    33   16   17 1    
    34   17   18 1    
    35   17   96 1    
    36   17   97 1    
    37   18   19 1    
    38   18   22 1    
    39   18   98 1    
    40   19   20 am   BACKBONE|DICT|INTERRES
    41   19   21 2    
    42   20   99 1    
    43   20  100 1    
    44   22   23 am   BACKBONE|DICT|INTERRES
    45   22  101 1    
    46   23   24 2    
    47   23   25 1    
    48   25   26 1    
    49   25   27 1    
    50   25  102 1    
    51   26  103 1    
    52   26  104 1    
    53   26  105 1    
    54   27   28 am   BACKBONE|DICT|INTERRES
    55   27  106 1    
    56   28   29 2    
    57   28   30 1    
    58   30   31 1    
    59   30   32 1    
    60   30  107 1    
    61   31  108 1    
    62   31  109 1    
    63   31  110 1    
    64   32   33 am   BACKBONE|DICT|INTERRES
    65   32  111 1    
    66   33   34 2    
    67   33   35 1    
    68   35   36 1    
    69   35   37 1    
    70   35  112 1    
    71   36  113 1    
    72   36  114 1    
    73   36  115 1    
    74   37   38 am   BACKBONE|DICT|INTERRES
    75   37  116 1    
    76   38   39 2    
    77   38   40 1    
    78   40   41 1    
    79   40   42 1    
    80   40  117 1    
    81   41  118 1    
    82   41  119 1    
    83   41  120 1    
    84   42   43 am   BACKBONE|DICT|INTERRES
    85   42  121 1    
    86   43   44 2    
    87   43   45 1    
    88   45   46 1    
    89   45   47 1    
    90   45  122 1    
    91   46  123 1    
    92   46  124 1    
    93   46  125 1    
    94   47   48 am   BACKBONE|DICT|INTERRES
    95   47  126 1    
    96   48   49 2    
    97   48   50 1    
    98   50   51 1    
    99   50   52 1    
   100   50  127 1    
   101   51  128 1    
   102   51  129 1    
   103   51  130 1    
   104   52   53 am   BACKBONE|DICT|INTERRES
   105   52  131 1    
   106   53   54 2    
   107   53   55 1    
   108   55   56 1    
   109   55   59 1    
   110   55  132 1    
   111   56   57 1    
   112   56  133 1    
   113   56  134 1    
   114   57   58 1    
   115   58  135 1    
   116   58  136 1    
   117   59   60 am   BACKBONE|DICT|INTERRES
   118   59  137 1    
   119   60   61 2    
   120   60   62 1    
   121   62   63 1    
   122   62   64 1    
   123   62  138 1    
   124   63  139 1    
   125   63  140 1    
   126   63  141 1    
   127   64   65 am   BACKBONE|DICT|INTERRES
   128   64  142 1    
   129   65   66 2    
   130   65   67 1    
   131   67   68 1    
   132   67   69 1    
   133   67  143 1    
   134   68  144 1    
   135   68  145 1    
   136   68  146 1    
   137   69   70 am   BACKBONE|DICT|INTERRES
   138   69  147 1    
   139   70   71 2    
   140   70   72 1    
   141   72   73 1    
   142   72   74 1    
   143   72  148 1    
   144   73  149 1    
   145   73  150 1    
   146   73  151 1    
   147   74   75 am   BACKBONE|DICT|INTERRES
   148   74  152 1    
   149   75   76 2    
   150   75   77 1    
   151   77   78 1    
   152   77   79 1    
   153   77  153 1    
   154   78  154 1    
   155   78  155 1    
   156   78  156 1    
   157   79   80 am   BACKBONE|DICT|INTERRES
   158   79  157 1    
   159   80   81 2    
@<TRIPOS>SUBSTRUCTURE
     1 UNK         1 GROUP             0       ****    0 ROOT    
