@<TRIPOS>MOLECULE
3R207
157   159    1
SMALL
USER_CHARGES


@<TRIPOS>ATOM
      1 CA        -51.9924  -23.7360    4.6603 C.3       0 UNK        -0.1975 
      2 C         -51.6359  -25.1848    4.9568 C.2       0 UNK         0.4852 
      3 O         -51.1530  -25.8898    4.0703 O.2       0 UNK        -0.5216 
      4 N         -51.8403  -25.6230    6.2058 N.am      1 UNK        -0.4461 
      5 CA        -51.6450  -26.9813    6.7452 C.3       1 UNK         0.0864 
      6 C6        -52.5583  -28.0611    6.1060 C.3       14 UNK        -0.0898 
      7 S7        -54.3290  -27.6601    6.3224 S.3       14 UNK        -0.2598 
      8 C8        -54.7753  -28.6228    7.8086 C.3       14 UNK         0.0286 
      9 C9        -53.8625  -28.3195    8.9908 C.ar      14 UNK        -0.0844 
     10 C10       -53.8722  -27.0541    9.5901 C.ar      14 UNK        -0.0881 
     11 C11       -52.9556  -26.7436   10.6001 C.ar      14 UNK        -0.0643 
     12 C12       -52.0690  -27.7254   11.0484 C.ar      14 UNK        -0.0930 
     13 C13       -52.0538  -28.9936   10.4662 C.ar      14 UNK        -0.0827 
     14 C14       -52.9560  -29.2862    9.4395 C.ar      14 UNK        -0.1249 
     15 C15       -50.9969  -30.0074   10.8859 C.3       14 UNK         0.0141 
     16 S16       -51.6967  -31.5400   11.5749 S.3       14 UNK        -0.2313 
     17 C17       -52.3753  -30.9857   13.1762 C.3       14 UNK        -0.0915 
     18 CA        -53.8748  -31.3584   13.3130 C.3       13 UNK         0.0968 
     19 C         -54.3901  -31.2233   14.7770 C.2       13 UNK         0.5732 
     20 N         -55.4894  -30.5300   15.0517 N.am      13 UNK        -0.7310 
     21 O         -53.7925  -31.7894   15.6895 O.2       13 UNK        -0.5035 
     22 N         -54.6902  -30.6453   12.3225 N.am      13 UNK        -0.4233 
     23 C         -55.8351  -31.0987   11.7986 C.2       13 UNK         0.4989 
     24 O         -56.2914  -32.2224   12.0183 O.2       13 UNK        -0.4996 
     25 CA        -56.6022  -30.1213   10.8828 C.3       12 UNK         0.0216 
     26 CB        -58.0971  -30.4795   10.7412 C.3       12 UNK        -0.1964 
     27 N         -56.4417  -28.7131   11.2754 N.am      12 UNK        -0.4276 
     28 C         -56.7437  -28.1714   12.4641 C.2       12 UNK         0.5020 
     29 O         -57.2600  -28.7877   13.3998 O.2       12 UNK        -0.5489 
     30 CA        -56.3866  -26.6867   12.6402 C.3       11 UNK         0.0294 
     31 CB        -57.6334  -25.8059   12.4636 C.3       11 UNK        -0.2019 
     32 N         -55.7778  -26.4142   13.9450 N.am      11 UNK        -0.4493 
     33 C         -54.6382  -26.9604   14.3908 C.2       11 UNK         0.4932 
     34 O         -53.9479  -27.7467   13.7382 O.2       11 UNK        -0.5029 
     35 CA        -54.2238  -26.5771   15.8218 C.3       10 UNK         0.0280 
     36 CB        -55.0079  -27.3999   16.8575 C.3       10 UNK        -0.1976 
     37 N         -52.7928  -26.7914   16.0361 N.am      10 UNK        -0.4242 
     38 C         -51.8285  -25.9843   15.5809 C.2       10 UNK         0.5072 
     39 O         -52.0352  -24.9052   15.0207 O.2       10 UNK        -0.5224 
     40 CA        -50.3928  -26.4783   15.7858 C.3       9 UNK         0.0343 
     41 CB        -50.0274  -27.5655   14.7575 C.3       9 UNK        -0.2003 
     42 N         -49.4681  -25.3524   15.6708 N.am      9 UNK        -0.4272 
     43 C         -48.2894  -25.2611   16.2993 C.2       9 UNK         0.4988 
     44 O         -47.8501  -26.1399   17.0440 O.2       9 UNK        -0.5108 
     45 CA        -47.4668  -23.9807   16.0695 C.3       8 UNK         0.0248 
     46 CB        -45.9732  -24.1568   16.4090 C.3       8 UNK        -0.2001 
     47 N         -47.5964  -23.5079   14.6909 N.am      8 UNK        -0.4140 
     48 C         -47.7036  -22.2218   14.3271 C.2       8 UNK         0.5028 
     49 O         -47.7146  -21.2889   15.1323 O.2       8 UNK        -0.5428 
     50 CA        -47.8073  -21.8929   12.8218 C.3       7 UNK         0.0264 
     51 CB        -46.4840  -21.2926   12.3190 C.3       7 UNK        -0.1988 
     52 N         -48.1834  -23.0278   11.9697 N.am      7 UNK        -0.4454 
     53 C         -49.3683  -23.6549   12.0353 C.2       7 UNK         0.5027 
     54 O         -50.2797  -23.2733   12.7693 O.2       7 UNK        -0.5083 
     55 CA        -49.5526  -24.9622   11.2292 C.3       6 UNK         0.0844 
     56 C56       -50.3523  -24.7830    9.9128 C.3       14 UNK        -0.0967 
     57 S57       -52.0669  -24.1580   10.0633 S.3       14 UNK        -0.2604 
     58 C58       -52.8927  -25.3398   11.1849 C.3       14 UNK         0.0134 
     59 N         -48.3056  -25.6946   10.9775 N.am      6 UNK        -0.4116 
     60 C         -47.4834  -26.1927   11.9122 C.2       5 UNK         0.5034 
     61 O         -47.6074  -25.9863   13.1174 O.2       5 UNK        -0.5045 
     62 CA        -46.3139  -27.0491   11.4134 C.3       5 UNK         0.0224 
     63 CB        -46.8169  -28.3896   10.8483 C.3       5 UNK        -0.1978 
     64 N         -45.5616  -26.3283   10.3887 N.am      5 UNK        -0.4737 
     65 C         -44.4963  -25.5545   10.6374 C.2       4 UNK         0.5027 
     66 O         -43.9642  -25.4572   11.7434 O.2       4 UNK        -0.5211 
     67 CA        -43.9252  -24.7392    9.4606 C.3       4 UNK         0.0297 
     68 CB        -42.7672  -25.5004    8.7952 C.3       4 UNK        -0.1993 
     69 N         -44.9179  -24.3837    8.4414 N.am      4 UNK        -0.4486 
     70 C         -45.9953  -23.6155    8.6556 C.2       3 UNK         0.4961 
     71 O         -46.2700  -23.1035    9.7391 O.2       3 UNK        -0.5105 
     72 CA        -46.9693  -23.4373    7.4784 C.3       3 UNK         0.0299 
     73 CB        -46.5367  -22.2541    6.5985 C.3       3 UNK        -0.1972 
     74 N         -47.1602  -24.6299    6.6409 N.am      3 UNK        -0.4305 
     75 C         -47.4894  -25.8518    7.0844 C.2       2 UNK         0.5006 
     76 O         -47.5578  -26.1505    8.2781 O.2       2 UNK        -0.5106 
     77 CA        -47.8546  -26.8910    6.0132 C.3       2 UNK         0.0296 
     78 CB        -47.1795  -28.2558    6.2643 C.3       2 UNK        -0.2002 
     79 N         -49.3161  -26.9861    5.9256 N.am      2 UNK        -0.4032 
     80 C         -50.1749  -27.4404    6.8509 C.2       1 UNK         0.5000 
     81 O         -49.8508  -28.1451    7.8070 O.2       1 UNK        -0.5238 
     82 H82       -51.1099  -23.1936    4.3220 H         1 UNK         0.0889 
     83 H83       -52.3894  -23.2251    5.5375 H         1 UNK         0.0889 
     84 H84       -52.7440  -23.6899    3.8725 H         1 UNK         0.0889 
     85 H85       -52.2142  -24.9694    6.8799 H         1 UNK         0.3028 
     86 H86       -51.9447  -26.8805    7.7851 H         1 UNK         0.0864 
     87 H87       -52.3507  -28.1583    5.0394 H         1 UNK         0.0720 
     88 H88       -52.3651  -29.0433    6.5414 H         1 UNK         0.0720 
     89 H89       -54.7499  -29.6855    7.5621 H         1 UNK         0.0814 
     90 H90       -55.8076  -28.3956    8.0773 H         1 UNK         0.0814 
     91 H91       -54.5456  -26.2905    9.2245 H         1 UNK         0.1469 
     92 H92       -51.3669  -27.4939   11.8340 H         1 UNK         0.1381 
     93 H93       -52.9227  -30.2583    8.9669 H         1 UNK         0.1206 
     94 H94       -50.3976  -30.2599   10.0099 H         1 UNK         0.0813 
     95 H95       -50.3037  -29.5768   11.6103 H         1 UNK         0.0813 
     96 H96       -52.2352  -29.9100   13.2959 H         1 UNK         0.0638 
     97 H97       -51.7803  -31.4610   13.9579 H         1 UNK         0.0638 
     98 H98       -53.9536  -32.4257   13.0977 H         1 UNK         0.0568 
     99 H99       -56.0024  -30.0390   14.3270 H         1 UNK         0.3450 
    100 H100      -55.8107  -30.4869   16.0043 H         1 UNK         0.3450 
    101 H101      -54.3935  -29.7005   12.1191 H         1 UNK         0.2987 
    102 H102      -56.1464  -30.2225    9.8975 H         1 UNK         0.0766 
    103 H103      -58.2236  -31.4794   10.3242 H         1 UNK         0.0798 
    104 H104      -58.6101  -29.7857   10.0752 H         1 UNK         0.0798 
    105 H105      -58.6097  -30.4617   11.7036 H         1 UNK         0.0798 
    106 H106      -55.9873  -28.1248   10.5910 H         1 UNK         0.3198 
    107 H107      -55.6598  -26.4105   11.8764 H         1 UNK         0.0843 
    108 H108      -58.3893  -26.0221   13.2199 H         1 UNK         0.0831 
    109 H109      -58.0936  -25.9711   11.4883 H         1 UNK         0.0831 
    110 H110      -57.3855  -24.7461   12.5274 H         1 UNK         0.0831 
    111 H111      -56.2987  -25.8125   14.5661 H         1 UNK         0.3133 
    112 H112      -54.4488  -25.5192   15.9751 H         1 UNK         0.0566 
    113 H113      -54.7697  -28.4616   16.7917 H         1 UNK         0.0814 
    114 H114      -56.0844  -27.2979   16.7135 H         1 UNK         0.0814 
    115 H115      -54.7862  -27.0712   17.8731 H         1 UNK         0.0814 
    116 H116      -52.5304  -27.6775   16.4419 H         1 UNK         0.3091 
    117 H117      -50.3276  -26.8974   16.7925 H         1 UNK         0.0702 
    118 H118      -49.0226  -27.9517   14.9297 H         1 UNK         0.0785 
    119 H119      -50.0610  -27.1767   13.7408 H         1 UNK         0.0785 
    120 H120      -50.7144  -28.4110   14.8084 H         1 UNK         0.0785 
    121 H121      -49.8102  -24.5796   15.1110 H         1 UNK         0.2998 
    122 H122      -47.8847  -23.2388   16.7529 H         1 UNK         0.0697 
    123 H123      -45.4229  -23.2258   16.2725 H         1 UNK         0.0825 
    124 H124      -45.5088  -24.9168   15.7793 H         1 UNK         0.0825 
    125 H125      -45.8369  -24.4610   17.4476 H         1 UNK         0.0825 
    126 H126      -47.6120  -24.2371   13.9812 H         1 UNK         0.3029 
    127 H127      -48.5836  -21.1316   12.7189 H         1 UNK         0.0897 
    128 H128      -45.6780  -22.0276   12.3335 H         1 UNK         0.0792 
    129 H129      -46.1712  -20.4509   12.9385 H         1 UNK         0.0792 
    130 H130      -46.5810  -20.9198   11.2993 H         1 UNK         0.0792 
    131 H131      -47.4836  -23.3471   11.3053 H         1 UNK         0.3086 
    132 H132      -50.1325  -25.6149   11.8792 H         1 UNK         0.0583 
    133 H133      -49.8109  -24.1183    9.2380 H         1 UNK         0.1020 
    134 H134      -50.4066  -25.7417    9.3952 H         1 UNK         0.1020 
    135 H135      -52.3988  -25.3412   12.1577 H         1 UNK         0.0694 
    136 H136      -53.9042  -24.9789   11.3709 H         1 UNK         0.0694 
    137 H137      -48.0927  -25.8977   10.0024 H         1 UNK         0.2989 
    138 H138      -45.6688  -27.2659   12.2683 H         1 UNK         0.1055 
    139 H139      -45.9856  -29.0227   10.5381 H         1 UNK         0.0806 
    140 H140      -47.4721  -28.2558    9.9861 H         1 UNK         0.0806 
    141 H141      -47.3809  -28.9418   11.6013 H         1 UNK         0.0806 
    142 H142      -45.9772  -26.3028    9.4626 H         1 UNK         0.3061 
    143 H143      -43.5309  -23.8080    9.8734 H         1 UNK         0.0734 
    144 H144      -43.1051  -26.4325    8.3402 H         1 UNK         0.0832 
    145 H145      -42.2885  -24.9003    8.0211 H         1 UNK         0.0832 
    146 H146      -41.9979  -25.7555    9.5259 H         1 UNK         0.0832 
    147 H147      -44.7878  -24.7739    7.5194 H         1 UNK         0.3156 
    148 H148      -47.9436  -23.1950    7.9068 H         1 UNK         0.0589 
    149 H149      -47.2845  -22.0288    5.8378 H         1 UNK         0.0808 
    150 H150      -45.5902  -22.4502    6.0931 H         1 UNK         0.0808 
    151 H151      -46.4055  -21.3506    7.1962 H         1 UNK         0.0808 
    152 H152      -47.1259  -24.4778    5.6427 H         1 UNK         0.3098 
    153 H153      -47.5105  -26.5286    5.0433 H         1 UNK         0.0720 
    154 H154      -46.0954  -28.1684    6.1854 H         1 UNK         0.0791 
    155 H155      -47.5009  -28.9971    5.5330 H         1 UNK         0.0791 
    156 H156      -47.3944  -28.6508    7.2577 H         1 UNK         0.0791 
    157 H157      -49.7437  -26.4753    5.1562 H         1 UNK         0.3028 
@<TRIPOS>BOND
     1    1    2 1    
     2    1   82 1    
     3    1   83 1    
     4    1   84 1    
     5    2    3 2    
     6    2    4 am   BACKBONE|DICT|INTERRES
     7    4    5 1    
     8    4   85 1    
     9    5    6 1    
    10    5   80 1    
    11    5   86 1    
    12    6    7 1    
    13    6   87 1    
    14    6   88 1    
    15    7    8 1    
    16    8    9 1    
    17    8   89 1    
    18    8   90 1    
    19    9   10 ar   
    20    9   14 ar   
    21   10   11 ar   
    22   10   91 1    
    23   11   12 ar   
    24   11   58 1    
    25   12   13 ar   
    26   12   92 1    
    27   13   14 ar   
    28   13   15 1    
    29   14   93 1    
    30   15   16 1    
    31   15   94 1    
    32   15   95 1    
    33   16   17 1    
    34   17   18 1    
    35   17   96 1    
    36   17   97 1    
    37   18   19 1    
    38   18   22 1    
    39   18   98 1    
    40   19   20 am   BACKBONE|DICT|INTERRES
    41   19   21 2    
    42   20   99 1    
    43   20  100 1    
    44   22   23 am   BACKBONE|DICT|INTERRES
    45   22  101 1    
    46   23   24 2    
    47   23   25 1    
    48   25   26 1    
    49   25   27 1    
    50   25  102 1    
    51   26  103 1    
    52   26  104 1    
    53   26  105 1    
    54   27   28 am   BACKBONE|DICT|INTERRES
    55   27  106 1    
    56   28   29 2    
    57   28   30 1    
    58   30   31 1    
    59   30   32 1    
    60   30  107 1    
    61   31  108 1    
    62   31  109 1    
    63   31  110 1    
    64   32   33 am   BACKBONE|DICT|INTERRES
    65   32  111 1    
    66   33   34 2    
    67   33   35 1    
    68   35   36 1    
    69   35   37 1    
    70   35  112 1    
    71   36  113 1    
    72   36  114 1    
    73   36  115 1    
    74   37   38 am   BACKBONE|DICT|INTERRES
    75   37  116 1    
    76   38   39 2    
    77   38   40 1    
    78   40   41 1    
    79   40   42 1    
    80   40  117 1    
    81   41  118 1    
    82   41  119 1    
    83   41  120 1    
    84   42   43 am   BACKBONE|DICT|INTERRES
    85   42  121 1    
    86   43   44 2    
    87   43   45 1    
    88   45   46 1    
    89   45   47 1    
    90   45  122 1    
    91   46  123 1    
    92   46  124 1    
    93   46  125 1    
    94   47   48 am   BACKBONE|DICT|INTERRES
    95   47  126 1    
    96   48   49 2    
    97   48   50 1    
    98   50   51 1    
    99   50   52 1    
   100   50  127 1    
   101   51  128 1    
   102   51  129 1    
   103   51  130 1    
   104   52   53 am   BACKBONE|DICT|INTERRES
   105   52  131 1    
   106   53   54 2    
   107   53   55 1    
   108   55   56 1    
   109   55   59 1    
   110   55  132 1    
   111   56   57 1    
   112   56  133 1    
   113   56  134 1    
   114   57   58 1    
   115   58  135 1    
   116   58  136 1    
   117   59   60 am   BACKBONE|DICT|INTERRES
   118   59  137 1    
   119   60   61 2    
   120   60   62 1    
   121   62   63 1    
   122   62   64 1    
   123   62  138 1    
   124   63  139 1    
   125   63  140 1    
   126   63  141 1    
   127   64   65 am   BACKBONE|DICT|INTERRES
   128   64  142 1    
   129   65   66 2    
   130   65   67 1    
   131   67   68 1    
   132   67   69 1    
   133   67  143 1    
   134   68  144 1    
   135   68  145 1    
   136   68  146 1    
   137   69   70 am   BACKBONE|DICT|INTERRES
   138   69  147 1    
   139   70   71 2    
   140   70   72 1    
   141   72   73 1    
   142   72   74 1    
   143   72  148 1    
   144   73  149 1    
   145   73  150 1    
   146   73  151 1    
   147   74   75 am   BACKBONE|DICT|INTERRES
   148   74  152 1    
   149   75   76 2    
   150   75   77 1    
   151   77   78 1    
   152   77   79 1    
   153   77  153 1    
   154   78  154 1    
   155   78  155 1    
   156   78  156 1    
   157   79   80 am   BACKBONE|DICT|INTERRES
   158   79  157 1    
   159   80   81 2    
@<TRIPOS>SUBSTRUCTURE
     1 UNK         1 GROUP             0       ****    0 ROOT    
