@<TRIPOS>MOLECULE
3R207
157   159    1
SMALL
USER_CHARGES


@<TRIPOS>ATOM
      1 CA        -47.0494  -28.5305    1.9573 C.3       0 UNK        -0.1975 
      2 C         -48.4445  -28.3089    2.5229 C.2       0 UNK         0.4852 
      3 O         -49.2723  -27.6688    1.8736 O.2       0 UNK        -0.5216 
      4 N         -48.7105  -28.8332    3.7278 N.am      1 UNK        -0.4461 
      5 CA        -49.9939  -28.7095    4.4325 C.3       1 UNK         0.0864 
      6 C6        -50.0881  -29.7269    5.6012 C.3       14 UNK        -0.0898 
      7 S7        -51.8081  -30.1844    6.0026 S.3       14 UNK        -0.2598 
      8 C8        -51.5620  -31.6872    7.0018 C.3       14 UNK         0.0286 
      9 C9        -51.1111  -31.3561    8.4172 C.ar      14 UNK        -0.0844 
     10 C10       -49.7504  -31.2645    8.7229 C.ar      14 UNK        -0.0881 
     11 C11       -49.3321  -30.9510   10.0199 C.ar      14 UNK        -0.0643 
     12 C12       -50.2897  -30.7399   11.0177 C.ar      14 UNK        -0.0930 
     13 C13       -51.6540  -30.8581   10.7323 C.ar      14 UNK        -0.0827 
     14 C14       -52.0569  -31.1627    9.4283 C.ar      14 UNK        -0.1249 
     15 C15       -52.6855  -30.7046   11.8438 C.3       14 UNK         0.0141 
     16 S16       -53.4766  -29.0661   11.8373 S.3       14 UNK        -0.2313 
     17 C17       -54.7277  -29.2637   10.5187 C.3       14 UNK        -0.0915 
     18 CA        -56.0170  -28.4256   10.7316 C.3       13 UNK         0.0968 
     19 C         -56.9002  -28.9712   11.8906 C.2       13 UNK         0.5732 
     20 N         -57.5582  -30.1041   11.6825 N.am      13 UNK        -0.7310 
     21 O         -56.9831  -28.3970   12.9754 O.2       13 UNK        -0.5035 
     22 N         -55.7132  -26.9953   10.8605 N.am      13 UNK        -0.4233 
     23 C         -56.5967  -26.0024   10.7175 C.2       13 UNK         0.4989 
     24 O         -57.7597  -26.1688   10.3443 O.2       13 UNK        -0.4996 
     25 CA        -56.0926  -24.5910   11.0783 C.3       12 UNK         0.0216 
     26 CB        -57.1381  -23.4938   10.8016 C.3       12 UNK        -0.1964 
     27 N         -55.6928  -24.5252   12.4867 N.am      12 UNK        -0.4276 
     28 C         -54.5174  -24.9501   12.9639 C.2       12 UNK         0.5020 
     29 O         -53.6244  -25.4139   12.2533 O.2       12 UNK        -0.5489 
     30 CA        -54.3416  -24.9224   14.4888 C.3       11 UNK         0.0294 
     31 CB        -54.7044  -26.2914   15.0877 C.3       11 UNK        -0.2019 
     32 N         -52.9664  -24.5957   14.8588 N.am      11 UNK        -0.4493 
     33 C         -52.4187  -23.3764   14.7737 C.2       11 UNK         0.4932 
     34 O         -53.0354  -22.3773   14.3990 O.2       11 UNK        -0.5029 
     35 CA        -50.9371  -23.2626   15.1878 C.3       10 UNK         0.0280 
     36 CB        -50.5053  -21.8138   15.4973 C.3       10 UNK        -0.1976 
     37 N         -50.5651  -24.1699   16.2811 N.am      10 UNK        -0.4242 
     38 C         -51.0732  -24.1981   17.5257 C.2       10 UNK         0.5072 
     39 O         -51.9087  -23.3942   17.9417 O.2       10 UNK        -0.5224 
     40 CA        -50.6125  -25.3291   18.4686 C.3       9 UNK         0.0343 
     41 CB        -51.7774  -26.2937   18.7526 C.3       9 UNK        -0.2003 
     42 N         -49.4838  -26.1038   17.9500 N.am      9 UNK        -0.4272 
     43 C         -48.2036  -25.7077   17.9659 C.2       9 UNK         0.4988 
     44 O         -47.8117  -24.6723   18.5047 O.2       9 UNK        -0.5108 
     45 CA        -47.1933  -26.6084   17.2293 C.3       8 UNK         0.0248 
     46 CB        -46.5181  -27.5763   18.2146 C.3       8 UNK        -0.2001 
     47 N         -47.7754  -27.3720   16.1159 N.am      8 UNK        -0.4140 
     48 C         -48.3258  -26.8252   15.0227 C.2       8 UNK         0.5028 
     49 O         -48.4336  -25.6106   14.8462 O.2       8 UNK        -0.5428 
     50 CA        -48.9199  -27.7889   13.9883 C.3       7 UNK         0.0264 
     51 CB        -50.4569  -27.7451   14.0318 C.3       7 UNK        -0.1988 
     52 N         -48.4660  -27.4352   12.6453 N.am      7 UNK        -0.4454 
     53 C         -47.2610  -27.7529   12.1529 C.2       7 UNK         0.5027 
     54 O         -46.4179  -28.3969   12.7805 O.2       7 UNK        -0.5083 
     55 CA        -46.9477  -27.2909   10.7152 C.3       6 UNK         0.0844 
     56 C56       -47.7175  -28.1310    9.6642 C.3       14 UNK        -0.0967 
     57 S57       -46.9172  -29.7256    9.2941 S.3       14 UNK        -0.2604 
     58 C58       -47.8473  -30.8787   10.3577 C.3       14 UNK         0.0134 
     59 N         -47.1839  -25.8608   10.5235 N.am      6 UNK        -0.4116 
     60 C         -46.5158  -24.8602   11.1134 C.2       5 UNK         0.5034 
     61 O         -45.5976  -25.0213   11.9175 O.2       5 UNK        -0.5045 
     62 CA        -46.9293  -23.4326   10.7196 C.3       5 UNK         0.0224 
     63 CB        -46.1851  -22.9870    9.4495 C.3       5 UNK        -0.1978 
     64 N         -48.3734  -23.3485   10.4891 N.am      5 UNK        -0.4737 
     65 C         -49.2570  -22.9095   11.3945 C.2       4 UNK         0.5027 
     66 O         -48.9318  -22.3785   12.4554 O.2       4 UNK        -0.5211 
     67 CA        -50.7566  -23.0767   11.0759 C.3       4 UNK         0.0297 
     68 CB        -51.3754  -21.7345   10.6549 C.3       4 UNK        -0.1993 
     69 N         -51.0547  -24.0863   10.0559 N.am      4 UNK        -0.4486 
     70 C         -50.8614  -25.4038   10.2080 C.2       3 UNK         0.4961 
     71 O         -50.3536  -25.9181   11.2031 O.2       3 UNK        -0.5105 
     72 CA        -51.2311  -26.2949    9.0111 C.3       3 UNK         0.0299 
     73 CB        -52.7486  -26.5098    8.9512 C.3       3 UNK        -0.1972 
     74 N         -50.7642  -25.8246    7.7023 N.am      3 UNK        -0.4305 
     75 C         -49.5429  -25.3716    7.3889 C.2       2 UNK         0.5006 
     76 O         -48.6583  -25.1458    8.2151 O.2       2 UNK        -0.5106 
     77 CA        -49.2495  -25.2073    5.8870 C.3       2 UNK         0.0296 
     78 CB        -47.9249  -24.4663    5.6243 C.3       2 UNK        -0.2002 
     79 N         -49.1973  -26.5219    5.2435 N.am      2 UNK        -0.4032 
     80 C         -50.2651  -27.2708    4.9277 C.2       1 UNK         0.5000 
     81 O         -51.4257  -26.8694    5.0419 O.2       1 UNK        -0.5238 
     82 H82       -47.1101  -29.0609    1.0074 H         1 UNK         0.0889 
     83 H83       -46.4228  -29.1141    2.6316 H         1 UNK         0.0889 
     84 H84       -46.5593  -27.5731    1.7824 H         1 UNK         0.0889 
     85 H85       -47.9930  -29.3616    4.2045 H         1 UNK         0.3028 
     86 H86       -50.7737  -28.9478    3.7053 H         1 UNK         0.0864 
     87 H87       -49.5701  -30.6483    5.3301 H         1 UNK         0.0720 
     88 H88       -49.5901  -29.3559    6.4997 H         1 UNK         0.0720 
     89 H89       -50.8437  -32.3480    6.5141 H         1 UNK         0.0814 
     90 H90       -52.5020  -32.2401    7.0361 H         1 UNK         0.0814 
     91 H91       -49.0127  -31.4328    7.9503 H         1 UNK         0.1469 
     92 H92       -49.9724  -30.5069   12.0249 H         1 UNK         0.1381 
     93 H93       -53.1089  -31.2565    9.1990 H         1 UNK         0.1206 
     94 H94       -53.4418  -31.4868   11.7658 H         1 UNK         0.0813 
     95 H95       -52.2097  -30.8486   12.8149 H         1 UNK         0.0813 
     96 H96       -54.2627  -28.9855    9.5726 H         1 UNK         0.0638 
     97 H97       -54.9840  -30.3189   10.4149 H         1 UNK         0.0638 
     98 H98       -56.6143  -28.5309    9.8238 H         1 UNK         0.0568 
     99 H99       -58.1297  -30.4785   12.4234 H         1 UNK         0.3450 
    100 H100      -57.4997  -30.5898   10.8014 H         1 UNK         0.3450 
    101 H101      -54.8027  -26.7674   11.2471 H         1 UNK         0.2987 
    102 H102      -55.2235  -24.3853   10.4489 H         1 UNK         0.0766 
    103 H103      -56.7393  -22.5028   11.0191 H         1 UNK         0.0798 
    104 H104      -58.0400  -23.6316   11.3994 H         1 UNK         0.0798 
    105 H105      -57.4382  -23.4966    9.7527 H         1 UNK         0.0798 
    106 H106      -56.3956  -24.2048   13.1379 H         1 UNK         0.3198 
    107 H107      -55.0033  -24.1643   14.9138 H         1 UNK         0.0843 
    108 H108      -54.0735  -27.0867   14.6870 H         1 UNK         0.0831 
    109 H109      -55.7379  -26.5561   14.8594 H         1 UNK         0.0831 
    110 H110      -54.6019  -26.2928   16.1731 H         1 UNK         0.0831 
    111 H111      -52.3756  -25.3670   15.1274 H         1 UNK         0.3133 
    112 H112      -50.3623  -23.6002   14.3256 H         1 UNK         0.0566 
    113 H113      -49.4490  -21.7650   15.7617 H         1 UNK         0.0814 
    114 H114      -50.6472  -21.1723   14.6265 H         1 UNK         0.0814 
    115 H115      -51.0804  -21.3838   16.3176 H         1 UNK         0.0814 
    116 H116      -49.8434  -24.8411   16.0338 H         1 UNK         0.3091 
    117 H117      -50.3146  -24.8654   19.4115 H         1 UNK         0.0702 
    118 H118      -52.6283  -25.7641   19.1838 H         1 UNK         0.0785 
    119 H119      -52.1277  -26.7852   17.8440 H         1 UNK         0.0785 
    120 H120      -51.4880  -27.0674   19.4641 H         1 UNK         0.0785 
    121 H121      -49.7036  -26.9815   17.5029 H         1 UNK         0.2998 
    122 H122      -46.4242  -25.9554   16.8112 H         1 UNK         0.0697 
    123 H123      -47.2328  -28.2769   18.6486 H         1 UNK         0.0825 
    124 H124      -46.0540  -27.0328   19.0389 H         1 UNK         0.0825 
    125 H125      -45.7318  -28.1544   17.7288 H         1 UNK         0.0825 
    126 H126      -47.7298  -28.3788   16.1877 H         1 UNK         0.3029 
    127 H127      -48.5988  -28.8087   14.2121 H         1 UNK         0.0897 
    128 H128      -50.8898  -28.4332   13.3063 H         1 UNK         0.0792 
    129 H129      -50.8399  -26.7486   13.8059 H         1 UNK         0.0792 
    130 H130      -50.8341  -28.0294   15.0146 H         1 UNK         0.0792 
    131 H131      -49.0979  -26.8528   12.0946 H         1 UNK         0.3086 
    132 H132      -45.8780  -27.4398   10.5522 H         1 UNK         0.0583 
    133 H133      -48.7621  -28.2748    9.9446 H         1 UNK         0.1020 
    134 H134      -47.7474  -27.5969    8.7138 H         1 UNK         0.1020 
    135 H135      -47.4176  -31.8751   10.2473 H         1 UNK         0.0694 
    136 H136      -47.6979  -30.5986   11.4012 H         1 UNK         0.0694 
    137 H137      -47.8801  -25.6153    9.8259 H         1 UNK         0.2989 
    138 H138      -46.6355  -22.7672   11.5347 H         1 UNK         0.1055 
    139 H139      -45.1050  -23.0266    9.5972 H         1 UNK         0.0806 
    140 H140      -46.4382  -21.9607    9.1834 H         1 UNK         0.0806 
    141 H141      -46.4206  -23.6218    8.5944 H         1 UNK         0.0806 
    142 H142      -48.7208  -23.7885    9.6428 H         1 UNK         0.3061 
    143 H143      -51.2453  -23.3986   11.9974 H         1 UNK         0.0734 
    144 H144      -52.4544  -21.8188   10.5241 H         1 UNK         0.0832 
    145 H145      -51.2039  -20.9722   11.4165 H         1 UNK         0.0832 
    146 H146      -50.9468  -21.3666    9.7220 H         1 UNK         0.0832 
    147 H147      -51.4476  -23.7582    9.1860 H         1 UNK         0.3156 
    148 H148      -50.7682  -27.2689    9.1782 H         1 UNK         0.0589 
    149 H149      -53.2819  -25.5950    8.6909 H         1 UNK         0.0808 
    150 H150      -53.0140  -27.2776    8.2240 H         1 UNK         0.0808 
    151 H151      -53.1195  -26.8367    9.9209 H         1 UNK         0.0808 
    152 H152      -51.3776  -26.0242    6.9184 H         1 UNK         0.3098 
    153 H153      -50.0583  -24.6199    5.4471 H         1 UNK         0.0720 
    154 H154      -47.7578  -24.3200    4.5571 H         1 UNK         0.0791 
    155 H155      -47.0682  -25.0087    6.0268 H         1 UNK         0.0791 
    156 H156      -47.9320  -23.4794    6.0891 H         1 UNK         0.0791 
    157 H157      -48.2816  -26.9310    5.1289 H         1 UNK         0.3028 
@<TRIPOS>BOND
     1    1    2 1    
     2    1   82 1    
     3    1   83 1    
     4    1   84 1    
     5    2    3 2    
     6    2    4 am   BACKBONE|DICT|INTERRES
     7    4    5 1    
     8    4   85 1    
     9    5    6 1    
    10    5   80 1    
    11    5   86 1    
    12    6    7 1    
    13    6   87 1    
    14    6   88 1    
    15    7    8 1    
    16    8    9 1    
    17    8   89 1    
    18    8   90 1    
    19    9   10 ar   
    20    9   14 ar   
    21   10   11 ar   
    22   10   91 1    
    23   11   12 ar   
    24   11   58 1    
    25   12   13 ar   
    26   12   92 1    
    27   13   14 ar   
    28   13   15 1    
    29   14   93 1    
    30   15   16 1    
    31   15   94 1    
    32   15   95 1    
    33   16   17 1    
    34   17   18 1    
    35   17   96 1    
    36   17   97 1    
    37   18   19 1    
    38   18   22 1    
    39   18   98 1    
    40   19   20 am   BACKBONE|DICT|INTERRES
    41   19   21 2    
    42   20   99 1    
    43   20  100 1    
    44   22   23 am   BACKBONE|DICT|INTERRES
    45   22  101 1    
    46   23   24 2    
    47   23   25 1    
    48   25   26 1    
    49   25   27 1    
    50   25  102 1    
    51   26  103 1    
    52   26  104 1    
    53   26  105 1    
    54   27   28 am   BACKBONE|DICT|INTERRES
    55   27  106 1    
    56   28   29 2    
    57   28   30 1    
    58   30   31 1    
    59   30   32 1    
    60   30  107 1    
    61   31  108 1    
    62   31  109 1    
    63   31  110 1    
    64   32   33 am   BACKBONE|DICT|INTERRES
    65   32  111 1    
    66   33   34 2    
    67   33   35 1    
    68   35   36 1    
    69   35   37 1    
    70   35  112 1    
    71   36  113 1    
    72   36  114 1    
    73   36  115 1    
    74   37   38 am   BACKBONE|DICT|INTERRES
    75   37  116 1    
    76   38   39 2    
    77   38   40 1    
    78   40   41 1    
    79   40   42 1    
    80   40  117 1    
    81   41  118 1    
    82   41  119 1    
    83   41  120 1    
    84   42   43 am   BACKBONE|DICT|INTERRES
    85   42  121 1    
    86   43   44 2    
    87   43   45 1    
    88   45   46 1    
    89   45   47 1    
    90   45  122 1    
    91   46  123 1    
    92   46  124 1    
    93   46  125 1    
    94   47   48 am   BACKBONE|DICT|INTERRES
    95   47  126 1    
    96   48   49 2    
    97   48   50 1    
    98   50   51 1    
    99   50   52 1    
   100   50  127 1    
   101   51  128 1    
   102   51  129 1    
   103   51  130 1    
   104   52   53 am   BACKBONE|DICT|INTERRES
   105   52  131 1    
   106   53   54 2    
   107   53   55 1    
   108   55   56 1    
   109   55   59 1    
   110   55  132 1    
   111   56   57 1    
   112   56  133 1    
   113   56  134 1    
   114   57   58 1    
   115   58  135 1    
   116   58  136 1    
   117   59   60 am   BACKBONE|DICT|INTERRES
   118   59  137 1    
   119   60   61 2    
   120   60   62 1    
   121   62   63 1    
   122   62   64 1    
   123   62  138 1    
   124   63  139 1    
   125   63  140 1    
   126   63  141 1    
   127   64   65 am   BACKBONE|DICT|INTERRES
   128   64  142 1    
   129   65   66 2    
   130   65   67 1    
   131   67   68 1    
   132   67   69 1    
   133   67  143 1    
   134   68  144 1    
   135   68  145 1    
   136   68  146 1    
   137   69   70 am   BACKBONE|DICT|INTERRES
   138   69  147 1    
   139   70   71 2    
   140   70   72 1    
   141   72   73 1    
   142   72   74 1    
   143   72  148 1    
   144   73  149 1    
   145   73  150 1    
   146   73  151 1    
   147   74   75 am   BACKBONE|DICT|INTERRES
   148   74  152 1    
   149   75   76 2    
   150   75   77 1    
   151   77   78 1    
   152   77   79 1    
   153   77  153 1    
   154   78  154 1    
   155   78  155 1    
   156   78  156 1    
   157   79   80 am   BACKBONE|DICT|INTERRES
   158   79  157 1    
   159   80   81 2    
@<TRIPOS>SUBSTRUCTURE
     1 UNK         1 GROUP             0       ****    0 ROOT    
