@<TRIPOS>MOLECULE
3R207
157   159    1
SMALL
USER_CHARGES


@<TRIPOS>ATOM
      1 CA        -50.2989  -28.5997   11.0609 C.3       0 UNK        -0.1975 
      2 C         -49.4655  -29.1856    9.9335 C.2       0 UNK         0.4852 
      3 O         -48.5703  -29.9919   10.1868 O.2       0 UNK        -0.5216 
      4 N         -49.7514  -28.7790    8.6906 N.am      1 UNK        -0.4461 
      5 CA        -49.0280  -29.1838    7.4800 C.3       1 UNK         0.0864 
      6 C6        -49.8323  -28.8720    6.1933 C.3       14 UNK        -0.0898 
      7 S7        -50.4087  -27.1413    6.0768 S.3       14 UNK        -0.2598 
      8 C8        -52.2074  -27.3417    5.8957 C.3       14 UNK         0.0286 
      9 C9        -52.9139  -27.5849    7.2234 C.ar      14 UNK        -0.0844 
     10 C10       -53.4356  -26.5075    7.9476 C.ar      14 UNK        -0.0881 
     11 C11       -54.1819  -26.7231    9.1137 C.ar      14 UNK        -0.0643 
     12 C12       -54.3869  -28.0327    9.5548 C.ar      14 UNK        -0.0930 
     13 C13       -53.8732  -29.1192    8.8422 C.ar      14 UNK        -0.0827 
     14 C14       -53.1296  -28.8881    7.6819 C.ar      14 UNK        -0.1249 
     15 C15       -54.2093  -30.5434    9.2630 C.3       14 UNK         0.0141 
     16 S16       -52.9360  -31.2996   10.3221 S.3       14 UNK        -0.2313 
     17 C17       -53.2211  -30.4908   11.9293 C.3       14 UNK        -0.0915 
     18 CA        -54.6030  -30.8319   12.5657 C.3       13 UNK         0.0968 
     19 C         -54.4677  -31.4959   13.9647 C.2       13 UNK         0.5732 
     20 N         -54.0086  -32.7388   14.0100 N.am      13 UNK        -0.7310 
     21 O         -54.7444  -30.8976   15.0032 O.2       13 UNK        -0.5035 
     22 N         -55.4525  -29.6380   12.5914 N.am      13 UNK        -0.4233 
     23 C         -56.7832  -29.6110   12.6888 C.2       13 UNK         0.4989 
     24 O         -57.4925  -30.6187   12.7056 O.2       13 UNK        -0.4996 
     25 CA        -57.4148  -28.2044   12.7804 C.3       12 UNK         0.0216 
     26 CB        -58.9540  -28.2432   12.7328 C.3       12 UNK        -0.1964 
     27 N         -56.9942  -27.4783   13.9844 N.am      12 UNK        -0.4276 
     28 C         -55.7750  -26.9713   14.2088 C.2       12 UNK         0.5020 
     29 O         -54.8501  -27.0225   13.3890 O.2       12 UNK        -0.5489 
     30 CA        -55.5385  -26.3358   15.5855 C.3       11 UNK         0.0294 
     31 CB        -55.6970  -27.3789   16.7121 C.3       11 UNK        -0.2019 
     32 N         -54.1835  -25.7995   15.5936 N.am      11 UNK        -0.4493 
     33 C         -53.6439  -24.9635   16.4870 C.2       11 UNK         0.4932 
     34 O         -54.2729  -24.4516   17.4147 O.2       11 UNK        -0.5029 
     35 CA        -52.1397  -24.6697   16.3069 C.3       10 UNK         0.0280 
     36 CB        -51.4783  -24.0673   17.5639 C.3       10 UNK        -0.1976 
     37 N         -51.3998  -25.8454   15.8298 N.am      10 UNK        -0.4242 
     38 C         -51.2694  -27.0351   16.4406 C.2       10 UNK         0.5072 
     39 O         -51.6727  -27.2808   17.5779 O.2       10 UNK        -0.5224 
     40 CA        -50.5946  -28.1537   15.6336 C.3       9 UNK         0.0343 
     41 CB        -51.6278  -28.8563   14.7388 C.3       9 UNK        -0.2003 
     42 N         -49.5095  -27.6350   14.7997 N.am      9 UNK        -0.4272 
     43 C         -48.2047  -27.7776   15.0682 C.2       9 UNK         0.4988 
     44 O         -47.7640  -28.4421   16.0071 O.2       9 UNK        -0.5108 
     45 CA        -47.2107  -27.0521   14.1407 C.3       8 UNK         0.0248 
     46 CB        -46.6842  -28.0044   13.0558 C.3       8 UNK        -0.2001 
     47 N         -47.7600  -25.8408   13.5200 N.am      8 UNK        -0.4140 
     48 C         -48.0746  -24.7295   14.2016 C.2       8 UNK         0.5028 
     49 O         -47.8545  -24.5835   15.4043 O.2       8 UNK        -0.5428 
     50 CA        -48.7665  -23.5872   13.4350 C.3       7 UNK         0.0264 
     51 CB        -47.7304  -22.5305   13.0263 C.3       7 UNK        -0.1988 
     52 N         -49.5562  -23.9647   12.2535 N.am      7 UNK        -0.4454 
     53 C         -50.5505  -24.8671   12.2143 C.2       7 UNK         0.5027 
     54 O         -50.7998  -25.6450   13.1358 O.2       7 UNK        -0.5083 
     55 CA        -51.4559  -24.8921   10.9657 C.3       6 UNK         0.0844 
     56 C56       -52.8364  -24.2870   11.3278 C.3       14 UNK        -0.0967 
     57 S57       -53.9356  -24.0212    9.8954 S.3       14 UNK        -0.2604 
     58 C58       -54.8803  -25.5781    9.8458 C.3       14 UNK         0.0134 
     59 N         -50.8564  -24.2455    9.7978 N.am      6 UNK        -0.4116 
     60 C         -49.8258  -24.7154    9.0873 C.2       5 UNK         0.5034 
     61 O         -49.1912  -25.7288    9.3855 O.2       5 UNK        -0.5045 
     62 CA        -49.4433  -23.9290    7.8215 C.3       5 UNK         0.0224 
     63 CB        -50.5097  -22.9113    7.3541 C.3       5 UNK        -0.1978 
     64 N         -48.1334  -23.2867    7.9406 N.am      5 UNK        -0.4737 
     65 C         -47.7379  -22.3779    8.8439 C.2       4 UNK         0.5027 
     66 O         -48.4575  -21.9780    9.7605 O.2       4 UNK        -0.5211 
     67 CA        -46.3005  -21.8287    8.6994 C.3       4 UNK         0.0297 
     68 CB        -45.6731  -21.4546   10.0544 C.3       4 UNK        -0.1993 
     69 N         -45.4180  -22.7812    8.0212 N.am      4 UNK        -0.4486 
     70 C         -45.1254  -22.7979    6.7131 C.2       3 UNK         0.4961 
     71 O         -45.4740  -21.9264    5.9173 O.2       3 UNK        -0.5105 
     72 CA        -44.3563  -24.0338    6.2008 C.3       3 UNK         0.0299 
     73 CB        -42.8438  -23.7610    6.1874 C.3       3 UNK        -0.1972 
     74 N         -44.6305  -25.2424    6.9914 N.am      3 UNK        -0.4305 
     75 C         -45.8339  -25.8278    7.0827 C.2       2 UNK         0.5006 
     76 O         -46.8058  -25.4871    6.4049 O.2       2 UNK        -0.5106 
     77 CA        -45.9807  -26.8991    8.1741 C.3       2 UNK         0.0296 
     78 CB        -45.8182  -26.2712    9.5703 C.3       2 UNK        -0.2002 
     79 N         -47.2937  -27.5404    8.1186 N.am      2 UNK        -0.4032 
     80 C         -47.5840  -28.6341    7.4018 C.2       1 UNK         0.5000 
     81 O         -46.7562  -29.2309    6.7088 O.2       1 UNK        -0.5238 
     82 H82       -50.4446  -29.3397   11.8465 H         1 UNK         0.0889 
     83 H83       -51.2790  -28.2845   10.7043 H         1 UNK         0.0889 
     84 H84       -49.7907  -27.7390   11.4917 H         1 UNK         0.0889 
     85 H85       -50.4883  -28.1028    8.5398 H         1 UNK         0.3028 
     86 H86       -48.9220  -30.2698    7.5299 H         1 UNK         0.0864 
     87 H87       -49.2427  -29.0984    5.3028 H         1 UNK         0.0720 
     88 H88       -50.6891  -29.5428    6.1397 H         1 UNK         0.0720 
     89 H89       -52.4213  -28.1510    5.1958 H         1 UNK         0.0814 
     90 H90       -52.6066  -26.4388    5.4311 H         1 UNK         0.0814 
     91 H91       -53.2997  -25.5021    7.5745 H         1 UNK         0.1469 
     92 H92       -54.9939  -28.2067   10.4293 H         1 UNK         0.1381 
     93 H93       -52.7604  -29.7293    7.1123 H         1 UNK         0.1206 
     94 H94       -55.1783  -30.5726    9.7622 H         1 UNK         0.0813 
     95 H95       -54.3219  -31.1634    8.3724 H         1 UNK         0.0813 
     96 H96       -53.0902  -29.4152   11.8043 H         1 UNK         0.0638 
     97 H97       -52.3948  -30.8015   12.5697 H         1 UNK         0.0638 
     98 H98       -55.1159  -31.5690   11.9451 H         1 UNK         0.0568 
     99 H99       -53.9025  -33.1887   14.9055 H         1 UNK         0.3450 
    100 H100      -53.7630  -33.2339   13.1669 H         1 UNK         0.3450 
    101 H101      -54.9733  -28.7490   12.7117 H         1 UNK         0.2987 
    102 H102      -57.0735  -27.6428   11.9079 H         1 UNK         0.0766 
    103 H103      -59.3768  -27.2384   12.7251 H         1 UNK         0.0798 
    104 H104      -59.3726  -28.7779   13.5865 H         1 UNK         0.0798 
    105 H105      -59.3044  -28.7455   11.8300 H         1 UNK         0.0798 
    106 H106      -57.6798  -27.4154   14.7234 H         1 UNK         0.3198 
    107 H107      -56.2494  -25.5184   15.7221 H         1 UNK         0.0843 
    108 H108      -55.0160  -28.2207   16.5753 H         1 UNK         0.0831 
    109 H109      -56.7098  -27.7809   16.7479 H         1 UNK         0.0831 
    110 H110      -55.4950  -26.9460   17.6918 H         1 UNK         0.0831 
    111 H111      -53.6269  -26.1303   14.8134 H         1 UNK         0.3133 
    112 H112      -52.0690  -23.9271   15.5108 H         1 UNK         0.0566 
    113 H113      -50.4183  -23.8734   17.3979 H         1 UNK         0.0814 
    114 H114      -51.9435  -23.1184   17.8331 H         1 UNK         0.0814 
    115 H115      -51.5679  -24.7284   18.4262 H         1 UNK         0.0814 
    116 H116      -51.0729  -25.7758   14.8676 H         1 UNK         0.3091 
    117 H117      -50.2126  -28.8887   16.3452 H         1 UNK         0.0702 
    118 H118      -51.1856  -29.7240   14.2512 H         1 UNK         0.0785 
    119 H119      -52.0192  -28.1939   13.9651 H         1 UNK         0.0785 
    120 H120      -52.4769  -29.2118   15.3246 H         1 UNK         0.0785 
    121 H121      -49.7830  -27.0347   14.0290 H         1 UNK         0.2998 
    122 H122      -46.3620  -26.7535   14.7600 H         1 UNK         0.0697 
    123 H123      -47.4437  -28.2388   12.3097 H         1 UNK         0.0825 
    124 H124      -46.3537  -28.9494   13.4897 H         1 UNK         0.0825 
    125 H125      -45.8226  -27.5746   12.5470 H         1 UNK         0.0825 
    126 H126      -47.9641  -25.8724   12.5318 H         1 UNK         0.3029 
    127 H127      -49.4623  -23.1221   14.1367 H         1 UNK         0.0897 
    128 H128      -48.2036  -21.6557   12.5795 H         1 UNK         0.0792 
    129 H129      -47.1585  -22.1835   13.8883 H         1 UNK         0.0792 
    130 H130      -47.0217  -22.9358   12.3053 H         1 UNK         0.0792 
    131 H131      -49.4150  -23.3901   11.4310 H         1 UNK         0.3086 
    132 H132      -51.6145  -25.9391   10.7041 H         1 UNK         0.0583 
    133 H133      -53.3453  -24.9166   12.0614 H         1 UNK         0.1020 
    134 H134      -52.7125  -23.3148   11.8100 H         1 UNK         0.1020 
    135 H135      -55.1438  -25.8706   10.8634 H         1 UNK         0.0694 
    136 H136      -55.8234  -25.3835    9.3339 H         1 UNK         0.0694 
    137 H137      -51.3153  -23.4054    9.4772 H         1 UNK         0.2989 
    138 H138      -49.3376  -24.6720    7.0316 H         1 UNK         0.1055 
    139 H139      -51.4795  -23.3914    7.2140 H         1 UNK         0.0806 
    140 H140      -50.2329  -22.4752    6.3942 H         1 UNK         0.0806 
    141 H141      -50.6403  -22.0894    8.0590 H         1 UNK         0.0806 
    142 H142      -47.4509  -23.6122    7.2660 H         1 UNK         0.3061 
    143 H143      -46.3792  -20.9146    8.1073 H         1 UNK         0.0734 
    144 H144      -44.7087  -20.9653    9.9172 H         1 UNK         0.0832 
    145 H145      -46.3056  -20.7615   10.6109 H         1 UNK         0.0832 
    146 H146      -45.5120  -22.3323   10.6796 H         1 UNK         0.0832 
    147 H147      -45.0812  -23.5485    8.5835 H         1 UNK         0.3156 
    148 H148      -44.6796  -24.2228    5.1748 H         1 UNK         0.0589 
    149 H149      -42.4550  -23.5789    7.1901 H         1 UNK         0.0808 
    150 H150      -42.2926  -24.5984    5.7590 H         1 UNK         0.0808 
    151 H151      -42.6125  -22.8817    5.5843 H         1 UNK         0.0808 
    152 H152      -43.8733  -25.5925    7.5617 H         1 UNK         0.3098 
    153 H153      -45.1993  -27.6486    8.0320 H         1 UNK         0.0720 
    154 H154      -45.9964  -27.0133   10.3459 H         1 UNK         0.0791 
    155 H155      -46.5169  -25.4491    9.7320 H         1 UNK         0.0791 
    156 H156      -44.8105  -25.8848    9.7246 H         1 UNK         0.0791 
    157 H157      -48.0498  -27.0567    8.5965 H         1 UNK         0.3028 
@<TRIPOS>BOND
     1    1    2 1    
     2    1   82 1    
     3    1   83 1    
     4    1   84 1    
     5    2    3 2    
     6    2    4 am   BACKBONE|DICT|INTERRES
     7    4    5 1    
     8    4   85 1    
     9    5    6 1    
    10    5   80 1    
    11    5   86 1    
    12    6    7 1    
    13    6   87 1    
    14    6   88 1    
    15    7    8 1    
    16    8    9 1    
    17    8   89 1    
    18    8   90 1    
    19    9   10 ar   
    20    9   14 ar   
    21   10   11 ar   
    22   10   91 1    
    23   11   12 ar   
    24   11   58 1    
    25   12   13 ar   
    26   12   92 1    
    27   13   14 ar   
    28   13   15 1    
    29   14   93 1    
    30   15   16 1    
    31   15   94 1    
    32   15   95 1    
    33   16   17 1    
    34   17   18 1    
    35   17   96 1    
    36   17   97 1    
    37   18   19 1    
    38   18   22 1    
    39   18   98 1    
    40   19   20 am   BACKBONE|DICT|INTERRES
    41   19   21 2    
    42   20   99 1    
    43   20  100 1    
    44   22   23 am   BACKBONE|DICT|INTERRES
    45   22  101 1    
    46   23   24 2    
    47   23   25 1    
    48   25   26 1    
    49   25   27 1    
    50   25  102 1    
    51   26  103 1    
    52   26  104 1    
    53   26  105 1    
    54   27   28 am   BACKBONE|DICT|INTERRES
    55   27  106 1    
    56   28   29 2    
    57   28   30 1    
    58   30   31 1    
    59   30   32 1    
    60   30  107 1    
    61   31  108 1    
    62   31  109 1    
    63   31  110 1    
    64   32   33 am   BACKBONE|DICT|INTERRES
    65   32  111 1    
    66   33   34 2    
    67   33   35 1    
    68   35   36 1    
    69   35   37 1    
    70   35  112 1    
    71   36  113 1    
    72   36  114 1    
    73   36  115 1    
    74   37   38 am   BACKBONE|DICT|INTERRES
    75   37  116 1    
    76   38   39 2    
    77   38   40 1    
    78   40   41 1    
    79   40   42 1    
    80   40  117 1    
    81   41  118 1    
    82   41  119 1    
    83   41  120 1    
    84   42   43 am   BACKBONE|DICT|INTERRES
    85   42  121 1    
    86   43   44 2    
    87   43   45 1    
    88   45   46 1    
    89   45   47 1    
    90   45  122 1    
    91   46  123 1    
    92   46  124 1    
    93   46  125 1    
    94   47   48 am   BACKBONE|DICT|INTERRES
    95   47  126 1    
    96   48   49 2    
    97   48   50 1    
    98   50   51 1    
    99   50   52 1    
   100   50  127 1    
   101   51  128 1    
   102   51  129 1    
   103   51  130 1    
   104   52   53 am   BACKBONE|DICT|INTERRES
   105   52  131 1    
   106   53   54 2    
   107   53   55 1    
   108   55   56 1    
   109   55   59 1    
   110   55  132 1    
   111   56   57 1    
   112   56  133 1    
   113   56  134 1    
   114   57   58 1    
   115   58  135 1    
   116   58  136 1    
   117   59   60 am   BACKBONE|DICT|INTERRES
   118   59  137 1    
   119   60   61 2    
   120   60   62 1    
   121   62   63 1    
   122   62   64 1    
   123   62  138 1    
   124   63  139 1    
   125   63  140 1    
   126   63  141 1    
   127   64   65 am   BACKBONE|DICT|INTERRES
   128   64  142 1    
   129   65   66 2    
   130   65   67 1    
   131   67   68 1    
   132   67   69 1    
   133   67  143 1    
   134   68  144 1    
   135   68  145 1    
   136   68  146 1    
   137   69   70 am   BACKBONE|DICT|INTERRES
   138   69  147 1    
   139   70   71 2    
   140   70   72 1    
   141   72   73 1    
   142   72   74 1    
   143   72  148 1    
   144   73  149 1    
   145   73  150 1    
   146   73  151 1    
   147   74   75 am   BACKBONE|DICT|INTERRES
   148   74  152 1    
   149   75   76 2    
   150   75   77 1    
   151   77   78 1    
   152   77   79 1    
   153   77  153 1    
   154   78  154 1    
   155   78  155 1    
   156   78  156 1    
   157   79   80 am   BACKBONE|DICT|INTERRES
   158   79  157 1    
   159   80   81 2    
@<TRIPOS>SUBSTRUCTURE
     1 UNK         1 GROUP             0       ****    0 ROOT    
