@<TRIPOS>MOLECULE
3R207
157   159    1
SMALL
USER_CHARGES


@<TRIPOS>ATOM
      1 CA        -49.7119  -30.6395    1.0659 C.3       0 UNK        -0.1975 
      2 C         -50.5152  -29.5285    1.7258 C.2       0 UNK         0.4852 
      3 O         -50.8838  -28.5622    1.0572 O.2       0 UNK        -0.5216 
      4 N         -50.7913  -29.6621    3.0309 N.am      1 UNK        -0.4461 
      5 CA        -51.5278  -28.6846    3.8421 C.3       1 UNK         0.0864 
      6 C6        -51.9432  -29.3025    5.2009 C.3       14 UNK        -0.0898 
      7 S7        -53.1728  -28.3027    6.1059 S.3       14 UNK        -0.2598 
      8 C8        -53.6902  -29.4625    7.4196 C.3       14 UNK         0.0286 
      9 C9        -52.6299  -29.8245    8.4635 C.ar      14 UNK        -0.0844 
     10 C10       -51.4205  -29.1293    8.6029 C.ar      14 UNK        -0.0881 
     11 C11       -50.4906  -29.5019    9.5768 C.ar      14 UNK        -0.0643 
     12 C12       -50.7912  -30.5471   10.4539 C.ar      14 UNK        -0.0930 
     13 C13       -52.0025  -31.2364   10.3464 C.ar      14 UNK        -0.0827 
     14 C14       -52.9006  -30.8855    9.3334 C.ar      14 UNK        -0.1249 
     15 C15       -52.3272  -32.3663   11.3194 C.3       14 UNK         0.0141 
     16 S16       -53.9450  -32.1741   12.1466 S.3       14 UNK        -0.2313 
     17 C17       -53.8011  -30.5242   12.9130 C.3       14 UNK        -0.0915 
     18 CA        -54.6311  -29.4534   12.1525 C.3       13 UNK         0.0968 
     19 C         -56.1181  -29.4352   12.5992 C.2       13 UNK         0.5732 
     20 N         -56.4748  -28.6761   13.6274 N.am      13 UNK        -0.7310 
     21 O         -56.9577  -30.1028   11.9999 O.2       13 UNK        -0.5035 
     22 N         -53.9927  -28.1339   12.2263 N.am      13 UNK        -0.4233 
     23 C         -54.1418  -27.1733   11.3052 C.2       13 UNK         0.4989 
     24 O         -54.8207  -27.2999   10.2843 O.2       13 UNK        -0.4996 
     25 CA        -53.3894  -25.8556   11.5726 C.3       12 UNK         0.0216 
     26 CB        -53.7588  -24.7311   10.5795 C.3       12 UNK        -0.1964 
     27 N         -53.5171  -25.4120   12.9671 N.am      12 UNK        -0.4276 
     28 C         -54.6328  -25.0394   13.6118 C.2       12 UNK         0.5020 
     29 O         -55.7380  -24.9425   13.0755 O.2       12 UNK        -0.5489 
     30 CA        -54.4834  -24.7424   15.1221 C.3       11 UNK         0.0294 
     31 CB        -55.8374  -24.7538   15.8630 C.3       11 UNK        -0.2019 
     32 N         -53.5236  -25.6186   15.8130 N.am      11 UNK        -0.4493 
     33 C         -53.5270  -26.9612   15.8349 C.2       11 UNK         0.4932 
     34 O         -54.3667  -27.6473   15.2518 O.2       11 UNK        -0.5029 
     35 CA        -52.3935  -27.6650   16.5990 C.3       10 UNK         0.0280 
     36 CB        -51.9345  -28.9537   15.8880 C.3       10 UNK        -0.1976 
     37 N         -51.2312  -26.7961   16.8070 N.am      10 UNK        -0.4242 
     38 C         -50.4922  -26.7789   17.9241 C.2       10 UNK         0.5072 
     39 O         -50.7717  -27.4213   18.9378 O.2       10 UNK        -0.5224 
     40 CA        -49.2031  -25.9396   17.9217 C.3       9 UNK         0.0343 
     41 CB        -47.9965  -26.8171   17.5494 C.3       9 UNK        -0.2003 
     42 N         -49.2272  -24.7640   17.0486 N.am      9 UNK        -0.4272 
     43 C         -49.9245  -23.6472   17.3037 C.2       9 UNK         0.4988 
     44 O         -50.7417  -23.5428   18.2183 O.2       9 UNK        -0.5108 
     45 CA        -49.6457  -22.4355   16.4029 C.3       8 UNK         0.0248 
     46 CB        -48.2875  -21.8033   16.7516 C.3       8 UNK        -0.2001 
     47 N         -49.6552  -22.8171   14.9933 N.am      8 UNK        -0.4140 
     48 C         -50.7155  -22.7007   14.1832 C.2       8 UNK         0.5028 
     49 O         -51.7823  -22.1798   14.5096 O.2       8 UNK        -0.5428 
     50 CA        -50.5779  -23.3065   12.7756 C.3       7 UNK         0.0264 
     51 CB        -50.0216  -22.2706   11.7868 C.3       7 UNK        -0.1988 
     52 N         -49.7493  -24.5158   12.7388 N.am      7 UNK        -0.4454 
     53 C         -50.0011  -25.6386   13.4323 C.2       7 UNK         0.5027 
     54 O         -50.9933  -25.7834   14.1448 O.2       7 UNK        -0.5083 
     55 CA        -48.9782  -26.7911   13.3618 C.3       6 UNK         0.0844 
     56 C56       -49.4124  -27.8389   12.3071 C.3       14 UNK        -0.0967 
     57 S57       -49.2894  -27.2270   10.5878 S.3       14 UNK        -0.2604 
     58 C58       -49.1541  -28.7818    9.6612 C.3       14 UNK         0.0134 
     59 N         -47.5989  -26.3441   13.1548 N.am      6 UNK        -0.4116 
     60 C         -46.9380  -25.4094   13.8535 C.2       5 UNK         0.5034 
     61 O         -47.3709  -24.8821   14.8801 O.2       5 UNK        -0.5045 
     62 CA        -45.6040  -24.9197   13.2564 C.3       5 UNK         0.0224 
     63 CB        -44.4226  -25.5850   13.9791 C.3       5 UNK        -0.1978 
     64 N         -45.4677  -25.1278   11.8038 N.am      5 UNK        -0.4737 
     65 C         -46.3185  -24.6800   10.8667 C.2       4 UNK         0.5027 
     66 O         -47.3270  -24.0242   11.1387 O.2       4 UNK        -0.5211 
     67 CA        -46.0147  -25.0762    9.4071 C.3       4 UNK         0.0297 
     68 CB        -45.6145  -26.5590    9.2729 C.3       4 UNK        -0.1993 
     69 N         -47.1708  -24.8340    8.5437 N.am      4 UNK        -0.4486 
     70 C         -47.5056  -23.6573    8.0049 C.2       3 UNK         0.4961 
     71 O         -46.8081  -22.6431    8.0755 O.2       3 UNK        -0.5105 
     72 CA        -48.8297  -23.6366    7.2197 C.3       3 UNK         0.0299 
     73 CB        -49.3006  -22.2082    6.8883 C.3       3 UNK        -0.1972 
     74 N         -48.7048  -24.4014    5.9773 N.am      3 UNK        -0.4305 
     75 C         -48.7903  -25.7342    5.8846 C.2       2 UNK         0.5006 
     76 O         -49.0103  -26.4776    6.8440 O.2       2 UNK        -0.5106 
     77 CA        -48.5317  -26.3408    4.4958 C.3       2 UNK         0.0296 
     78 CB        -47.0718  -26.8096    4.3817 C.3       2 UNK        -0.2002 
     79 N         -49.4216  -27.4721    4.2327 N.am      2 UNK        -0.4032 
     80 C         -50.7416  -27.3647    4.0202 C.2       1 UNK         0.5000 
     81 O         -51.3323  -26.2855    3.9330 O.2       1 UNK        -0.5238 
     82 H82       -50.2818  -31.0790    0.2476 H         1 UNK         0.0889 
     83 H83       -49.4596  -31.4341    1.7679 H         1 UNK         0.0889 
     84 H84       -48.7836  -30.2397    0.6586 H         1 UNK         0.0889 
     85 H85       -50.4722  -30.4878    3.5179 H         1 UNK         0.3028 
     86 H86       -52.4405  -28.4412    3.2931 H         1 UNK         0.0864 
     87 H87       -51.0693  -29.4672    5.8332 H         1 UNK         0.0720 
     88 H88       -52.3846  -30.2867    5.0351 H         1 UNK         0.0720 
     89 H89       -54.5389  -29.0194    7.9429 H         1 UNK         0.0814 
     90 H90       -54.0624  -30.3736    6.9486 H         1 UNK         0.0814 
     91 H91       -51.1819  -28.2970    7.9555 H         1 UNK         0.1469 
     92 H92       -50.0780  -30.8252   11.2175 H         1 UNK         0.1381 
     93 H93       -53.8335  -31.4254    9.2428 H         1 UNK         0.1206 
     94 H94       -51.5558  -32.4505   12.0866 H         1 UNK         0.0813 
     95 H95       -52.3217  -33.3112   10.7747 H         1 UNK         0.0813 
     96 H96       -52.7450  -30.2507   12.9300 H         1 UNK         0.0638 
     97 H97       -54.1012  -30.5906   13.9603 H         1 UNK         0.0638 
     98 H98       -54.6392  -29.7306   11.0977 H         1 UNK         0.0568 
     99 H99       -55.7690  -28.1758   14.1619 H         1 UNK         0.3450 
    100 H100      -57.4390  -28.6510   13.9158 H         1 UNK         0.3450 
    101 H101      -53.5141  -27.9192   13.0883 H         1 UNK         0.2987 
    102 H102      -52.3329  -26.0823   11.4215 H         1 UNK         0.0766 
    103 H103      -53.2034  -23.8159   10.7792 H         1 UNK         0.0798 
    104 H104      -54.8218  -24.4915   10.6146 H         1 UNK         0.0798 
    105 H105      -53.5294  -25.0292    9.5556 H         1 UNK         0.0798 
    106 H106      -52.6651  -25.4845   13.5220 H         1 UNK         0.3198 
    107 H107      -54.0780  -23.7314   15.1886 H         1 UNK         0.0843 
    108 H108      -56.3254  -25.7268   15.7942 H         1 UNK         0.0831 
    109 H109      -56.5217  -24.0161   15.4421 H         1 UNK         0.0831 
    110 H110      -55.7149  -24.5133   16.9189 H         1 UNK         0.0831 
    111 H111      -52.7870  -25.1457   16.3176 H         1 UNK         0.3133 
    112 H112      -52.8240  -27.9427   17.5630 H         1 UNK         0.0566 
    113 H113      -51.1448  -29.4560   16.4469 H         1 UNK         0.0814 
    114 H114      -52.7557  -29.6643   15.7910 H         1 UNK         0.0814 
    115 H115      -51.5560  -28.7461   14.8867 H         1 UNK         0.0814 
    116 H116      -50.9395  -26.2521   15.9996 H         1 UNK         0.3091 
    117 H117      -49.0515  -25.5857   18.9439 H         1 UNK         0.0702 
    118 H118      -47.0622  -26.2604   17.6267 H         1 UNK         0.0785 
    119 H119      -48.0726  -27.2007   16.5323 H         1 UNK         0.0785 
    120 H120      -47.9168  -27.6764   18.2167 H         1 UNK         0.0785 
    121 H121      -48.5618  -24.7640   16.2787 H         1 UNK         0.2998 
    122 H122      -50.4198  -21.6890   16.5940 H         1 UNK         0.0697 
    123 H123      -47.4584  -22.4889   16.5709 H         1 UNK         0.0825 
    124 H124      -48.2499  -21.5149   17.8030 H         1 UNK         0.0825 
    125 H125      -48.1094  -20.9030   16.1633 H         1 UNK         0.0825 
    126 H126      -48.8346  -23.2990   14.6470 H         1 UNK         0.3029 
    127 H127      -51.5782  -23.5801   12.4438 H         1 UNK         0.0897 
    128 H128      -49.0106  -21.9604   12.0541 H         1 UNK         0.0792 
    129 H129      -50.6447  -21.3755   11.7658 H         1 UNK         0.0792 
    130 H130      -49.9901  -22.6685   10.7720 H         1 UNK         0.0792 
    131 H131      -48.9113  -24.4704   12.1619 H         1 UNK         0.3086 
    132 H132      -48.9999  -27.2798   14.3371 H         1 UNK         0.0583 
    133 H133      -48.7901  -28.7289   12.4117 H         1 UNK         0.1020 
    134 H134      -50.4357  -28.1753   12.4878 H         1 UNK         0.1020 
    135 H135      -48.7990  -28.5575    8.6542 H         1 UNK         0.0694 
    136 H136      -48.3939  -29.4207   10.1130 H         1 UNK         0.0694 
    137 H137      -47.1588  -26.6826   12.3125 H         1 UNK         0.2989 
    138 H138      -45.5569  -23.8436   13.4364 H         1 UNK         0.1055 
    139 H139      -44.4857  -25.4281   15.0572 H         1 UNK         0.0806 
    140 H140      -43.4698  -25.1693   13.6505 H         1 UNK         0.0806 
    141 H141      -44.3978  -26.6620   13.8079 H         1 UNK         0.0806 
    142 H142      -44.6617  -25.6572   11.5026 H         1 UNK         0.3061 
    143 H143      -45.1803  -24.4606    9.0649 H         1 UNK         0.0734 
    144 H144      -46.3670  -27.2234    9.6986 H         1 UNK         0.0832 
    145 H145      -45.4834  -26.8377    8.2269 H         1 UNK         0.0832 
    146 H146      -44.6684  -26.7687    9.7725 H         1 UNK         0.0832 
    147 H147      -47.8150  -25.6065    8.4119 H         1 UNK         0.3156 
    148 H148      -49.5944  -24.0970    7.8500 H         1 UNK         0.0589 
    149 H149      -48.5946  -21.6864    6.2409 H         1 UNK         0.0808 
    150 H150      -50.2702  -22.2164    6.3901 H         1 UNK         0.0808 
    151 H151      -49.4098  -21.6149    7.7973 H         1 UNK         0.0808 
    152 H152      -48.4771  -23.8713    5.1481 H         1 UNK         0.3098 
    153 H153      -48.7139  -25.5798    3.7338 H         1 UNK         0.0720 
    154 H154      -46.8606  -27.2156    3.3921 H         1 UNK         0.0791 
    155 H155      -46.8360  -27.5786    5.1188 H         1 UNK         0.0791 
    156 H156      -46.3813  -25.9809    4.5450 H         1 UNK         0.0791 
    157 H157      -49.0188  -28.3942    4.3048 H         1 UNK         0.3028 
@<TRIPOS>BOND
     1    1    2 1    
     2    1   82 1    
     3    1   83 1    
     4    1   84 1    
     5    2    3 2    
     6    2    4 am   BACKBONE|DICT|INTERRES
     7    4    5 1    
     8    4   85 1    
     9    5    6 1    
    10    5   80 1    
    11    5   86 1    
    12    6    7 1    
    13    6   87 1    
    14    6   88 1    
    15    7    8 1    
    16    8    9 1    
    17    8   89 1    
    18    8   90 1    
    19    9   10 ar   
    20    9   14 ar   
    21   10   11 ar   
    22   10   91 1    
    23   11   12 ar   
    24   11   58 1    
    25   12   13 ar   
    26   12   92 1    
    27   13   14 ar   
    28   13   15 1    
    29   14   93 1    
    30   15   16 1    
    31   15   94 1    
    32   15   95 1    
    33   16   17 1    
    34   17   18 1    
    35   17   96 1    
    36   17   97 1    
    37   18   19 1    
    38   18   22 1    
    39   18   98 1    
    40   19   20 am   BACKBONE|DICT|INTERRES
    41   19   21 2    
    42   20   99 1    
    43   20  100 1    
    44   22   23 am   BACKBONE|DICT|INTERRES
    45   22  101 1    
    46   23   24 2    
    47   23   25 1    
    48   25   26 1    
    49   25   27 1    
    50   25  102 1    
    51   26  103 1    
    52   26  104 1    
    53   26  105 1    
    54   27   28 am   BACKBONE|DICT|INTERRES
    55   27  106 1    
    56   28   29 2    
    57   28   30 1    
    58   30   31 1    
    59   30   32 1    
    60   30  107 1    
    61   31  108 1    
    62   31  109 1    
    63   31  110 1    
    64   32   33 am   BACKBONE|DICT|INTERRES
    65   32  111 1    
    66   33   34 2    
    67   33   35 1    
    68   35   36 1    
    69   35   37 1    
    70   35  112 1    
    71   36  113 1    
    72   36  114 1    
    73   36  115 1    
    74   37   38 am   BACKBONE|DICT|INTERRES
    75   37  116 1    
    76   38   39 2    
    77   38   40 1    
    78   40   41 1    
    79   40   42 1    
    80   40  117 1    
    81   41  118 1    
    82   41  119 1    
    83   41  120 1    
    84   42   43 am   BACKBONE|DICT|INTERRES
    85   42  121 1    
    86   43   44 2    
    87   43   45 1    
    88   45   46 1    
    89   45   47 1    
    90   45  122 1    
    91   46  123 1    
    92   46  124 1    
    93   46  125 1    
    94   47   48 am   BACKBONE|DICT|INTERRES
    95   47  126 1    
    96   48   49 2    
    97   48   50 1    
    98   50   51 1    
    99   50   52 1    
   100   50  127 1    
   101   51  128 1    
   102   51  129 1    
   103   51  130 1    
   104   52   53 am   BACKBONE|DICT|INTERRES
   105   52  131 1    
   106   53   54 2    
   107   53   55 1    
   108   55   56 1    
   109   55   59 1    
   110   55  132 1    
   111   56   57 1    
   112   56  133 1    
   113   56  134 1    
   114   57   58 1    
   115   58  135 1    
   116   58  136 1    
   117   59   60 am   BACKBONE|DICT|INTERRES
   118   59  137 1    
   119   60   61 2    
   120   60   62 1    
   121   62   63 1    
   122   62   64 1    
   123   62  138 1    
   124   63  139 1    
   125   63  140 1    
   126   63  141 1    
   127   64   65 am   BACKBONE|DICT|INTERRES
   128   64  142 1    
   129   65   66 2    
   130   65   67 1    
   131   67   68 1    
   132   67   69 1    
   133   67  143 1    
   134   68  144 1    
   135   68  145 1    
   136   68  146 1    
   137   69   70 am   BACKBONE|DICT|INTERRES
   138   69  147 1    
   139   70   71 2    
   140   70   72 1    
   141   72   73 1    
   142   72   74 1    
   143   72  148 1    
   144   73  149 1    
   145   73  150 1    
   146   73  151 1    
   147   74   75 am   BACKBONE|DICT|INTERRES
   148   74  152 1    
   149   75   76 2    
   150   75   77 1    
   151   77   78 1    
   152   77   79 1    
   153   77  153 1    
   154   78  154 1    
   155   78  155 1    
   156   78  156 1    
   157   79   80 am   BACKBONE|DICT|INTERRES
   158   79  157 1    
   159   80   81 2    
@<TRIPOS>SUBSTRUCTURE
     1 UNK         1 GROUP             0       ****    0 ROOT    
