@<TRIPOS>MOLECULE
3R207
157   159    1
SMALL
USER_CHARGES


@<TRIPOS>ATOM
      1 CA        -47.7331  -27.8117    6.0972 C.3       0 UNK        -0.1975 
      2 C         -48.8249  -28.7352    5.5858 C.2       0 UNK         0.4852 
      3 O         -49.2268  -28.6306    4.4268 O.2       0 UNK        -0.5216 
      4 N         -49.3256  -29.6243    6.4540 N.am      1 UNK        -0.4461 
      5 CA        -50.4054  -30.5789    6.1532 C.3       1 UNK         0.0864 
      6 C6        -50.2324  -31.9458    6.8748 C.3       14 UNK        -0.0898 
      7 S7        -48.5121  -32.5729    6.8713 S.3       14 UNK        -0.2598 
      8 C8        -48.0630  -32.5161    8.6409 C.3       14 UNK         0.0286 
      9 C9        -48.2255  -31.1264    9.2446 C.ar      14 UNK        -0.0844 
     10 C10       -47.2357  -30.1532    9.0784 C.ar      14 UNK        -0.0881 
     11 C11       -47.4047  -28.8718    9.6150 C.ar      14 UNK        -0.0643 
     12 C12       -48.5773  -28.5665   10.3158 C.ar      14 UNK        -0.0930 
     13 C13       -49.5601  -29.5406   10.5108 C.ar      14 UNK        -0.0827 
     14 C14       -49.3731  -30.8174    9.9788 C.ar      14 UNK        -0.1249 
     15 C15       -50.8058  -29.2451   11.3320 C.3       14 UNK         0.0141 
     16 S16       -51.9214  -28.0500   10.5274 S.3       14 UNK        -0.2313 
     17 C17       -53.4230  -28.3533   11.5160 C.3       14 UNK        -0.0915 
     18 CA        -54.7000  -27.7297   10.8933 C.3       13 UNK         0.0968 
     19 C         -55.9855  -28.4580   11.3899 C.2       13 UNK         0.5732 
     20 N         -56.9437  -27.7989   12.0301 N.am      13 UNK        -0.7310 
     21 O         -56.1255  -29.6593   11.1739 O.2       13 UNK        -0.5035 
     22 N         -54.7406  -26.2687   11.0711 N.am      13 UNK        -0.4233 
     23 C         -55.3685  -25.4333   10.2319 C.2       13 UNK         0.4989 
     24 O         -55.7826  -25.7816    9.1239 O.2       13 UNK        -0.4996 
     25 CA        -55.5488  -23.9616   10.6715 C.3       12 UNK         0.0216 
     26 CB        -56.8113  -23.3208   10.0576 C.3       12 UNK        -0.1964 
     27 N         -55.5175  -23.7433   12.1244 N.am      12 UNK        -0.4276 
     28 C         -56.3186  -24.2871   13.0512 C.2       12 UNK         0.5020 
     29 O         -57.2463  -25.0590   12.8031 O.2       12 UNK        -0.5489 
     30 CA        -55.9708  -23.9624   14.5161 C.3       11 UNK         0.0294 
     31 CB        -57.2069  -23.4472   15.2728 C.3       11 UNK        -0.2019 
     32 N         -55.4078  -25.1129   15.2352 N.am      11 UNK        -0.4493 
     33 C         -54.3746  -25.8645   14.8298 C.2       11 UNK         0.4932 
     34 O         -53.7848  -25.7026   13.7586 O.2       11 UNK        -0.5029 
     35 CA        -53.9493  -27.0126   15.7628 C.3       10 UNK         0.0280 
     36 CB        -54.8986  -28.2114   15.5972 C.3       10 UNK        -0.1976 
     37 N         -52.5858  -27.4449   15.4509 N.am      10 UNK        -0.4242 
     38 C         -51.4773  -26.7545   15.7480 C.2       10 UNK         0.5072 
     39 O         -51.4398  -25.7944   16.5223 O.2       10 UNK        -0.5224 
     40 CA        -50.2246  -27.1672   14.9571 C.3       9 UNK         0.0343 
     41 CB        -50.2290  -26.4449   13.6029 C.3       9 UNK        -0.2003 
     42 N         -48.9632  -26.8743   15.6398 N.am      9 UNK        -0.4272 
     43 C         -48.5401  -27.4844   16.7564 C.2       9 UNK         0.4988 
     44 O         -49.1972  -28.3448   17.3454 O.2       9 UNK        -0.5108 
     45 CA        -47.1379  -27.1303   17.2946 C.3       8 UNK         0.0248 
     46 CB        -46.2615  -28.3920   17.3988 C.3       8 UNK        -0.2001 
     47 N         -46.4263  -26.1401   16.4813 N.am      8 UNK        -0.4140 
     48 C         -46.5170  -24.8122   16.6293 C.2       8 UNK         0.5028 
     49 O         -47.2081  -24.2645   17.4888 O.2       8 UNK        -0.5428 
     50 CA        -45.7006  -23.9424   15.6527 C.3       7 UNK         0.0264 
     51 CB        -44.3714  -23.5176   16.2987 C.3       7 UNK        -0.1988 
     52 N         -45.4262  -24.5662   14.3495 N.am      7 UNK        -0.4454 
     53 C         -46.3671  -24.9001   13.4557 C.2       7 UNK         0.5027 
     54 O         -47.5749  -24.8081   13.6785 O.2       7 UNK        -0.5083 
     55 CA        -45.8889  -25.4680   12.1090 C.3       6 UNK         0.0844 
     56 C56       -45.9211  -27.0188   12.1323 C.3       14 UNK        -0.0967 
     57 S57       -45.0687  -27.7711   10.7022 S.3       14 UNK        -0.2604 
     58 C58       -46.3393  -27.8080    9.3950 C.3       14 UNK         0.0134 
     59 N         -46.7691  -24.9306   11.0729 N.am      6 UNK        -0.4116 
     60 C         -46.4525  -24.0030   10.1621 C.2       5 UNK         0.5034 
     61 O         -45.3355  -23.4945   10.0602 O.2       5 UNK        -0.5045 
     62 CA        -47.5638  -23.5746    9.1785 C.3       5 UNK         0.0224 
     63 CB        -47.2413  -24.0413    7.7485 C.3       5 UNK        -0.1978 
     64 N         -48.9056  -24.0518    9.5409 N.am      5 UNK        -0.4737 
     65 C         -49.6387  -23.5499   10.5437 C.2       4 UNK         0.5027 
     66 O         -49.2648  -22.6156   11.2537 O.2       4 UNK        -0.5211 
     67 CA        -51.0017  -24.2235   10.7924 C.3       4 UNK         0.0297 
     68 CB        -51.8421  -23.4952   11.8599 C.3       4 UNK        -0.1993 
     69 N         -51.7881  -24.4397    9.5719 N.am      4 UNK        -0.4486 
     70 C         -52.2024  -23.5098    8.6980 C.2       3 UNK         0.4961 
     71 O         -51.9472  -22.3101    8.8047 O.2       3 UNK        -0.5105 
     72 CA        -53.1040  -23.9690    7.5333 C.3       3 UNK         0.0299 
     73 CB        -52.6316  -23.3884    6.1832 C.3       3 UNK        -0.1972 
     74 N         -53.3339  -25.4192    7.4313 N.am      3 UNK        -0.4305 
     75 C         -52.4423  -26.3625    7.0996 C.2       2 UNK         0.5006 
     76 O         -51.2331  -26.1479    6.9656 O.2       2 UNK        -0.5106 
     77 CA        -52.9967  -27.7779    6.8672 C.3       2 UNK         0.0296 
     78 CB        -53.9908  -27.7946    5.6861 C.3       2 UNK        -0.2002 
     79 N         -51.8524  -28.6385    6.5960 N.am      2 UNK        -0.4032 
     80 C         -51.8028  -29.9640    6.4185 C.2       1 UNK         0.5000 
     81 O         -52.7935  -30.6960    6.4646 O.2       1 UNK        -0.5238 
     82 H82       -46.7939  -28.3545    6.1987 H         1 UNK         0.0889 
     83 H83       -48.0112  -27.3959    7.0644 H         1 UNK         0.0889 
     84 H84       -47.5759  -26.9811    5.4093 H         1 UNK         0.0889 
     85 H85       -48.9513  -29.6830    7.3930 H         1 UNK         0.3028 
     86 H86       -50.3768  -30.7927    5.0826 H         1 UNK         0.0864 
     87 H87       -50.8525  -32.6963    6.3813 H         1 UNK         0.0720 
     88 H88       -50.6075  -31.9021    7.8958 H         1 UNK         0.0720 
     89 H89       -47.0289  -32.8448    8.7533 H         1 UNK         0.0814 
     90 H90       -48.6701  -33.2413    9.1852 H         1 UNK         0.0814 
     91 H91       -46.3390  -30.3906    8.5217 H         1 UNK         0.1469 
     92 H92       -48.7265  -27.5748   10.7170 H         1 UNK         0.1381 
     93 H93       -50.1281  -31.5759   10.1339 H         1 UNK         0.1206 
     94 H94       -50.5109  -28.8751   12.3121 H         1 UNK         0.0813 
     95 H95       -51.3502  -30.1720   11.5178 H         1 UNK         0.0813 
     96 H96       -53.2655  -27.9878   12.5304 H         1 UNK         0.0638 
     97 H97       -53.5318  -29.4360   11.6009 H         1 UNK         0.0638 
     98 H98       -54.6676  -27.9422    9.8240 H         1 UNK         0.0568 
     99 H99       -57.7617  -28.3058   12.3261 H         1 UNK         0.3450 
    100 H100      -56.8872  -26.8004   12.2136 H         1 UNK         0.3450 
    101 H101      -54.4141  -25.9264   11.9711 H         1 UNK         0.2987 
    102 H102      -54.6874  -23.4248   10.2749 H         1 UNK         0.0766 
    103 H103      -56.7754  -23.3424    8.9676 H         1 UNK         0.0798 
    104 H104      -56.9111  -22.2767   10.3540 H         1 UNK         0.0798 
    105 H105      -57.7178  -23.8443   10.3634 H         1 UNK         0.0798 
    106 H106      -54.7657  -23.1536   12.4533 H         1 UNK         0.3198 
    107 H107      -55.2171  -23.1724   14.5303 H         1 UNK         0.0843 
    108 H108      -57.9822  -24.2110   15.3471 H         1 UNK         0.0831 
    109 H109      -57.6457  -22.5882   14.7633 H         1 UNK         0.0831 
    110 H110      -56.9520  -23.1267   16.2831 H         1 UNK         0.0831 
    111 H111      -55.8497  -25.3459   16.1127 H         1 UNK         0.3133 
    112 H112      -53.9851  -26.6640   16.7970 H         1 UNK         0.0566 
    113 H113      -54.6087  -29.0398   16.2439 H         1 UNK         0.0814 
    114 H114      -54.9151  -28.5772   14.5695 H         1 UNK         0.0814 
    115 H115      -55.9224  -27.9421   15.8600 H         1 UNK         0.0814 
    116 H116      -52.5085  -28.1959   14.7824 H         1 UNK         0.3091 
    117 H117      -50.2640  -28.2443   14.7812 H         1 UNK         0.0702 
    118 H118      -49.4036  -26.7703   12.9710 H         1 UNK         0.0785 
    119 H119      -50.1509  -25.3650   13.7315 H         1 UNK         0.0785 
    120 H120      -51.1559  -26.6316   13.0608 H         1 UNK         0.0785 
    121 H121      -48.3927  -26.1447   15.2306 H         1 UNK         0.2998 
    122 H122      -47.2749  -26.7333   18.3027 H         1 UNK         0.0697 
    123 H123      -46.1098  -28.8604   16.4256 H         1 UNK         0.0825 
    124 H124      -46.7201  -29.1372   18.0503 H         1 UNK         0.0825 
    125 H125      -45.2819  -28.1617   17.8182 H         1 UNK         0.0825 
    126 H126      -45.8293  -26.4973   15.7500 H         1 UNK         0.3029 
    127 H127      -46.2894  -23.0415   15.4651 H         1 UNK         0.0897 
    128 H128      -43.7206  -24.3729   16.4847 H         1 UNK         0.0792 
    129 H129      -44.5427  -23.0247   17.2570 H         1 UNK         0.0792 
    130 H130      -43.8297  -22.8122   15.6681 H         1 UNK         0.0792 
    131 H131      -44.4535  -24.6833   14.1011 H         1 UNK         0.3086 
    132 H132      -44.8613  -25.1382   11.9415 H         1 UNK         0.0583 
    133 H133      -45.4067  -27.3911   13.0204 H         1 UNK         0.1020 
    134 H134      -46.9396  -27.3986   12.2100 H         1 UNK         0.1020 
    135 H135      -46.8058  -26.8321    9.2879 H         1 UNK         0.0694 
    136 H136      -45.8313  -27.9934    8.4480 H         1 UNK         0.0694 
    137 H137      -47.7373  -25.2015   11.1439 H         1 UNK         0.2989 
    138 H138      -47.5794  -22.4822    9.1805 H         1 UNK         0.1055 
    139 H139      -47.2178  -25.1274    7.6692 H         1 UNK         0.0806 
    140 H140      -46.2670  -23.6712    7.4261 H         1 UNK         0.0806 
    141 H141      -47.9773  -23.6697    7.0350 H         1 UNK         0.0806 
    142 H142      -49.3019  -24.7890    8.9738 H         1 UNK         0.3061 
    143 H143      -50.7738  -25.2170   11.1753 H         1 UNK         0.0734 
    144 H144      -52.1182  -22.4888   11.5443 H         1 UNK         0.0832 
    145 H145      -52.7526  -24.0473   12.0755 H         1 UNK         0.0832 
    146 H146      -51.2948  -23.4035   12.7987 H         1 UNK         0.0832 
    147 H147      -52.0259  -25.4010    9.3694 H         1 UNK         0.3156 
    148 H148      -54.0852  -23.5391    7.7394 H         1 UNK         0.0589 
    149 H149      -53.2938  -23.6842    5.3696 H         1 UNK         0.0808 
    150 H150      -52.6199  -22.2980    6.2073 H         1 UNK         0.0808 
    151 H151      -51.6222  -23.7149    5.9309 H         1 UNK         0.0808 
    152 H152      -54.2915  -25.7080    7.6057 H         1 UNK         0.3098 
    153 H153      -53.4873  -28.1224    7.7781 H         1 UNK         0.0720 
    154 H154      -53.5204  -27.4553    4.7623 H         1 UNK         0.0791 
    155 H155      -54.8459  -27.1449    5.8758 H         1 UNK         0.0791 
    156 H156      -54.3912  -28.7924    5.5086 H         1 UNK         0.0791 
    157 H157      -50.9834  -28.1175    6.5593 H         1 UNK         0.3028 
@<TRIPOS>BOND
     1    1    2 1    
     2    1   82 1    
     3    1   83 1    
     4    1   84 1    
     5    2    3 2    
     6    2    4 am   BACKBONE|DICT|INTERRES
     7    4    5 1    
     8    4   85 1    
     9    5    6 1    
    10    5   80 1    
    11    5   86 1    
    12    6    7 1    
    13    6   87 1    
    14    6   88 1    
    15    7    8 1    
    16    8    9 1    
    17    8   89 1    
    18    8   90 1    
    19    9   10 ar   
    20    9   14 ar   
    21   10   11 ar   
    22   10   91 1    
    23   11   12 ar   
    24   11   58 1    
    25   12   13 ar   
    26   12   92 1    
    27   13   14 ar   
    28   13   15 1    
    29   14   93 1    
    30   15   16 1    
    31   15   94 1    
    32   15   95 1    
    33   16   17 1    
    34   17   18 1    
    35   17   96 1    
    36   17   97 1    
    37   18   19 1    
    38   18   22 1    
    39   18   98 1    
    40   19   20 am   BACKBONE|DICT|INTERRES
    41   19   21 2    
    42   20   99 1    
    43   20  100 1    
    44   22   23 am   BACKBONE|DICT|INTERRES
    45   22  101 1    
    46   23   24 2    
    47   23   25 1    
    48   25   26 1    
    49   25   27 1    
    50   25  102 1    
    51   26  103 1    
    52   26  104 1    
    53   26  105 1    
    54   27   28 am   BACKBONE|DICT|INTERRES
    55   27  106 1    
    56   28   29 2    
    57   28   30 1    
    58   30   31 1    
    59   30   32 1    
    60   30  107 1    
    61   31  108 1    
    62   31  109 1    
    63   31  110 1    
    64   32   33 am   BACKBONE|DICT|INTERRES
    65   32  111 1    
    66   33   34 2    
    67   33   35 1    
    68   35   36 1    
    69   35   37 1    
    70   35  112 1    
    71   36  113 1    
    72   36  114 1    
    73   36  115 1    
    74   37   38 am   BACKBONE|DICT|INTERRES
    75   37  116 1    
    76   38   39 2    
    77   38   40 1    
    78   40   41 1    
    79   40   42 1    
    80   40  117 1    
    81   41  118 1    
    82   41  119 1    
    83   41  120 1    
    84   42   43 am   BACKBONE|DICT|INTERRES
    85   42  121 1    
    86   43   44 2    
    87   43   45 1    
    88   45   46 1    
    89   45   47 1    
    90   45  122 1    
    91   46  123 1    
    92   46  124 1    
    93   46  125 1    
    94   47   48 am   BACKBONE|DICT|INTERRES
    95   47  126 1    
    96   48   49 2    
    97   48   50 1    
    98   50   51 1    
    99   50   52 1    
   100   50  127 1    
   101   51  128 1    
   102   51  129 1    
   103   51  130 1    
   104   52   53 am   BACKBONE|DICT|INTERRES
   105   52  131 1    
   106   53   54 2    
   107   53   55 1    
   108   55   56 1    
   109   55   59 1    
   110   55  132 1    
   111   56   57 1    
   112   56  133 1    
   113   56  134 1    
   114   57   58 1    
   115   58  135 1    
   116   58  136 1    
   117   59   60 am   BACKBONE|DICT|INTERRES
   118   59  137 1    
   119   60   61 2    
   120   60   62 1    
   121   62   63 1    
   122   62   64 1    
   123   62  138 1    
   124   63  139 1    
   125   63  140 1    
   126   63  141 1    
   127   64   65 am   BACKBONE|DICT|INTERRES
   128   64  142 1    
   129   65   66 2    
   130   65   67 1    
   131   67   68 1    
   132   67   69 1    
   133   67  143 1    
   134   68  144 1    
   135   68  145 1    
   136   68  146 1    
   137   69   70 am   BACKBONE|DICT|INTERRES
   138   69  147 1    
   139   70   71 2    
   140   70   72 1    
   141   72   73 1    
   142   72   74 1    
   143   72  148 1    
   144   73  149 1    
   145   73  150 1    
   146   73  151 1    
   147   74   75 am   BACKBONE|DICT|INTERRES
   148   74  152 1    
   149   75   76 2    
   150   75   77 1    
   151   77   78 1    
   152   77   79 1    
   153   77  153 1    
   154   78  154 1    
   155   78  155 1    
   156   78  156 1    
   157   79   80 am   BACKBONE|DICT|INTERRES
   158   79  157 1    
   159   80   81 2    
@<TRIPOS>SUBSTRUCTURE
     1 UNK         1 GROUP             0       ****    0 ROOT    
