@<TRIPOS>MOLECULE
3R207
157   159    1
SMALL
USER_CHARGES


@<TRIPOS>ATOM
      1 CA        -44.5528  -28.5406    6.9421 C.3       0 UNK        -0.1975 
      2 C         -45.5040  -28.6945    5.7645 C.2       0 UNK         0.4852 
      3 O         -45.1972  -28.2342    4.6646 O.2       0 UNK        -0.5216 
      4 N         -46.6598  -29.3333    5.9901 N.am      1 UNK        -0.4461 
      5 CA        -47.7322  -29.5382    5.0052 C.3       1 UNK         0.0864 
      6 C6        -48.7210  -30.6473    5.4520 C.3       14 UNK        -0.0898 
      7 S7        -49.3121  -30.4523    7.1681 S.3       14 UNK        -0.2598 
      8 C8        -51.0583  -30.0075    6.9207 C.3       14 UNK         0.0286 
      9 C9        -51.6657  -29.4018    8.1798 C.ar      14 UNK        -0.0844 
     10 C10       -52.2088  -28.1150    8.1452 C.ar      14 UNK        -0.0881 
     11 C11       -52.7691  -27.5476    9.2930 C.ar      14 UNK        -0.0643 
     12 C12       -52.7697  -28.2706   10.4876 C.ar      14 UNK        -0.0930 
     13 C13       -52.2508  -29.5695   10.5355 C.ar      14 UNK        -0.0827 
     14 C14       -51.7018  -30.1268    9.3758 C.ar      14 UNK        -0.1249 
     15 C15       -52.2641  -30.3871   11.8255 C.3       14 UNK         0.0141 
     16 S16       -53.7407  -30.1356   12.8723 S.3       14 UNK        -0.2313 
     17 C17       -55.0786  -30.6801   11.7522 C.3       14 UNK        -0.0915 
     18 CA        -56.4898  -30.1652   12.1557 C.3       13 UNK         0.0968 
     19 C         -57.0492  -30.8439   13.4343 C.2       13 UNK         0.5732 
     20 N         -57.2592  -32.1529   13.4038 N.am      13 UNK        -0.7310 
     21 O         -57.3010  -30.1980   14.4516 O.2       13 UNK        -0.5035 
     22 N         -56.5592  -28.7056   12.2739 N.am      13 UNK        -0.4233 
     23 C         -56.5870  -27.8231   11.2704 C.2       13 UNK         0.4989 
     24 O         -56.5268  -28.1361   10.0813 O.2       13 UNK        -0.4996 
     25 CA        -56.7452  -26.3350   11.6447 C.3       12 UNK         0.0216 
     26 CB        -58.1576  -25.8411   11.2884 C.3       12 UNK        -0.1964 
     27 N         -56.4899  -26.0607   13.0630 N.am      12 UNK        -0.4276 
     28 C         -55.2731  -25.9584   13.6117 C.2       12 UNK         0.5020 
     29 O         -54.2183  -26.0152   12.9760 O.2       12 UNK        -0.5489 
     30 CA        -55.2387  -25.8039   15.1354 C.3       11 UNK         0.0294 
     31 CB        -55.5037  -27.1603   15.8198 C.3       11 UNK        -0.2019 
     32 N         -53.9299  -25.2980   15.5342 N.am      11 UNK        -0.4493 
     33 C         -53.6385  -24.7235   16.7079 C.2       11 UNK         0.4932 
     34 O         -54.4782  -24.4837   17.5778 O.2       11 UNK        -0.5029 
     35 CA        -52.1548  -24.3826   16.9491 C.3       10 UNK         0.0280 
     36 CB        -51.8327  -24.0334   18.4175 C.3       10 UNK        -0.1976 
     37 N         -51.2692  -25.4367   16.4444 N.am      10 UNK        -0.4242 
     38 C         -51.2063  -26.7170   16.8417 C.2       10 UNK         0.5072 
     39 O         -51.8190  -27.1791   17.8052 O.2       10 UNK        -0.5224 
     40 CA        -50.3266  -27.6560   15.9994 C.3       9 UNK         0.0343 
     41 CB        -51.1687  -28.3212   14.9000 C.3       9 UNK        -0.2003 
     42 N         -49.1807  -26.9803   15.3865 N.am      9 UNK        -0.4272 
     43 C         -48.1043  -26.5562   16.0638 C.2       9 UNK         0.4988 
     44 O         -47.9369  -26.7383   17.2705 O.2       9 UNK        -0.5108 
     45 CA        -47.0362  -25.7906   15.2649 C.3       8 UNK         0.0248 
     46 CB        -46.1400  -26.7647   14.4838 C.3       8 UNK        -0.2001 
     47 N         -47.6084  -24.7941   14.3544 N.am      8 UNK        -0.4140 
     48 C         -48.2790  -23.7025   14.7543 C.2       8 UNK         0.5028 
     49 O         -48.4482  -23.3944   15.9343 O.2       8 UNK        -0.5428 
     50 CA        -48.8822  -22.8069   13.6600 C.3       7 UNK         0.0264 
     51 CB        -47.8168  -21.8635   13.0793 C.3       7 UNK        -0.1988 
     52 N         -49.5076  -23.5647   12.5759 N.am      7 UNK        -0.4454 
     53 C         -50.5790  -24.3616   12.7091 C.2       7 UNK         0.5027 
     54 O         -51.1874  -24.5234   13.7662 O.2       7 UNK        -0.5083 
     55 CA        -51.0145  -25.1367   11.4506 C.3       6 UNK         0.0844 
     56 C56       -51.8290  -24.2059   10.5149 C.3       14 UNK        -0.0967 
     57 S57       -52.1865  -24.8796    8.8593 S.3       14 UNK        -0.2604 
     58 C58       -53.4090  -26.1704    9.2256 C.3       14 UNK         0.0134 
     59 N         -49.8668  -25.7787   10.8020 N.am      6 UNK        -0.4116 
     60 C         -49.0739  -26.6915   11.3849 C.2       5 UNK         0.5034 
     61 O         -49.2463  -27.1365   12.5192 O.2       5 UNK        -0.5045 
     62 CA        -47.8350  -27.1343   10.5979 C.3       5 UNK         0.0224 
     63 CB        -48.1863  -28.2664    9.6241 C.3       5 UNK        -0.1978 
     64 N         -47.2303  -26.0136    9.8762 N.am      5 UNK        -0.4737 
     65 C         -46.5338  -25.0332   10.4690 C.2       4 UNK         0.5027 
     66 O         -46.2904  -25.0047   11.6748 O.2       4 UNK        -0.5211 
     67 CA        -46.0653  -23.8686    9.5782 C.3       4 UNK         0.0297 
     68 CB        -44.7238  -24.2102    8.9110 C.3       4 UNK        -0.1993 
     69 N         -47.0426  -23.4988    8.5509 N.am      4 UNK        -0.4486 
     70 C         -48.2751  -23.0381    8.8053 C.2       3 UNK         0.4961 
     71 O         -48.6966  -22.8108    9.9391 O.2       3 UNK        -0.5105 
     72 CA        -49.2138  -22.8285    7.6027 C.3       3 UNK         0.0299 
     73 CB        -49.1023  -21.3827    7.0937 C.3       3 UNK        -0.1972 
     74 N         -49.0327  -23.7544    6.4743 N.am      3 UNK        -0.4305 
     75 C         -48.9575  -25.0935    6.5283 C.2       2 UNK         0.5006 
     76 O         -48.9379  -25.7385    7.5786 O.2       2 UNK        -0.5106 
     77 CA        -48.8560  -25.8357    5.1860 C.3       2 UNK         0.0296 
     78 CB        -47.9291  -25.1190    4.1776 C.3       2 UNK        -0.2002 
     79 N         -48.3711  -27.1916    5.4342 N.am      2 UNK        -0.4032 
     80 C         -48.4569  -28.2334    4.5976 C.2       1 UNK         0.5000 
     81 O         -49.0528  -28.1919    3.5190 O.2       1 UNK        -0.5238 
     82 H82       -44.9489  -28.9953    7.8499 H         1 UNK         0.0889 
     83 H83       -44.3726  -27.4850    7.1431 H         1 UNK         0.0889 
     84 H84       -43.5971  -29.0126    6.7162 H         1 UNK         0.0889 
     85 H85       -46.8573  -29.7064    6.9084 H         1 UNK         0.3028 
     86 H86       -47.2516  -29.8956    4.0916 H         1 UNK         0.0864 
     87 H87       -49.5661  -30.7265    4.7651 H         1 UNK         0.0720 
     88 H88       -48.2167  -31.6132    5.3976 H         1 UNK         0.0720 
     89 H89       -51.6222  -30.8966    6.6355 H         1 UNK         0.0814 
     90 H90       -51.1336  -29.3074    6.0870 H         1 UNK         0.0814 
     91 H91       -52.2002  -27.5477    7.2246 H         1 UNK         0.1469 
     92 H92       -53.1983  -27.8290   11.3764 H         1 UNK         0.1381 
     93 H93       -51.2896  -31.1263    9.4021 H         1 UNK         0.1206 
     94 H94       -52.1875  -31.4516   11.5989 H         1 UNK         0.0813 
     95 H95       -51.3755  -30.1305   12.4015 H         1 UNK         0.0813 
     96 H96       -55.0605  -31.7693   11.6939 H         1 UNK         0.0638 
     97 H97       -54.8562  -30.3333   10.7428 H         1 UNK         0.0638 
     98 H98       -57.1842  -30.4438   11.3608 H         1 UNK         0.0568 
     99 H99       -57.6226  -32.6076   14.2266 H         1 UNK         0.3450 
    100 H100      -57.0613  -32.6955   12.5779 H         1 UNK         0.3450 
    101 H101      -56.6464  -28.3796   13.2259 H         1 UNK         0.2987 
    102 H102      -56.0316  -25.7671   11.0461 H         1 UNK         0.0766 
    103 H103      -58.2678  -24.7749   11.4878 H         1 UNK         0.0798 
    104 H104      -58.9268  -26.3709   11.8517 H         1 UNK         0.0798 
    105 H105      -58.3685  -25.9926   10.2286 H         1 UNK         0.0798 
    106 H106      -57.3011  -25.9898   13.6615 H         1 UNK         0.3198 
    107 H107      -56.0034  -25.0819   15.4299 H         1 UNK         0.0843 
    108 H108      -54.7630  -27.9068   15.5283 H         1 UNK         0.0831 
    109 H109      -56.4857  -27.5549   15.5570 H         1 UNK         0.0831 
    110 H110      -55.4765  -27.0734   16.9061 H         1 UNK         0.0831 
    111 H111      -53.2088  -25.3991   14.8260 H         1 UNK         0.3133 
    112 H112      -51.9427  -23.4979   16.3472 H         1 UNK         0.0566 
    113 H113      -50.7756  -23.7994   18.5444 H         1 UNK         0.0814 
    114 H114      -52.3996  -23.1606   18.7434 H         1 UNK         0.0814 
    115 H115      -52.0799  -24.8514   19.0946 H         1 UNK         0.0814 
    116 H116      -50.7845  -25.1935   15.5859 H         1 UNK         0.3091 
    117 H117      -49.9489  -28.4391   16.6601 H         1 UNK         0.0702 
    118 H118      -50.5784  -29.0487   14.3440 H         1 UNK         0.0785 
    119 H119      -51.5580  -27.5917   14.1875 H         1 UNK         0.0785 
    120 H120      -52.0230  -28.8506   15.3242 H         1 UNK         0.0785 
    121 H121      -49.2142  -26.8508   14.3771 H         1 UNK         0.2998 
    122 H122      -46.4074  -25.2578   15.9814 H         1 UNK         0.0697 
    123 H123      -46.7026  -27.3151   13.7296 H         1 UNK         0.0825 
    124 H124      -45.6856  -27.4979   15.1514 H         1 UNK         0.0825 
    125 H125      -45.3286  -26.2398   13.9794 H         1 UNK         0.0825 
    126 H126      -47.4512  -24.9383   13.3618 H         1 UNK         0.3029 
    127 H127      -49.6599  -22.1977   14.1257 H         1 UNK         0.0897 
    128 H128      -48.2525  -21.1686   12.3610 H         1 UNK         0.0792 
    129 H129      -47.3510  -21.2682   13.8659 H         1 UNK         0.0792 
    130 H130      -47.0238  -22.4135   12.5713 H         1 UNK         0.0792 
    131 H131      -49.1049  -23.4457   11.6477 H         1 UNK         0.3086 
    132 H132      -51.6754  -25.9394   11.7814 H         1 UNK         0.0583 
    133 H133      -52.7744  -23.9383   10.9916 H         1 UNK         0.1020 
    134 H134      -51.3044  -23.2619   10.3566 H         1 UNK         0.1020 
    135 H135      -53.9255  -25.9348   10.1557 H         1 UNK         0.0694 
    136 H136      -54.1689  -26.1719    8.4431 H         1 UNK         0.0694 
    137 H137      -49.6678  -25.4971    9.8509 H         1 UNK         0.2989 
    138 H138      -47.1032  -27.5182   11.3117 H         1 UNK         0.1055 
    139 H139      -48.5701  -29.1346   10.1618 H         1 UNK         0.0806 
    140 H140      -47.3139  -28.5929    9.0597 H         1 UNK         0.0806 
    141 H141      -48.9588  -27.9677    8.9149 H         1 UNK         0.0806 
    142 H142      -47.5002  -25.9053    8.9037 H         1 UNK         0.3061 
    143 H143      -45.9165  -23.0001   10.2234 H         1 UNK         0.0734 
    144 H144      -44.3326  -23.3628    8.3477 H         1 UNK         0.0832 
    145 H145      -43.9739  -24.4736    9.6584 H         1 UNK         0.0832 
    146 H146      -44.8140  -25.0563    8.2286 H         1 UNK         0.0832 
    147 H147      -46.7815  -23.6548    7.5886 H         1 UNK         0.3156 
    148 H148      -50.2309  -22.9709    7.9666 H         1 UNK         0.0589 
    149 H149      -48.1210  -21.1806    6.6625 H         1 UNK         0.0808 
    150 H150      -49.8550  -21.1682    6.3349 H         1 UNK         0.0808 
    151 H151      -49.2544  -20.6697    7.9056 H         1 UNK         0.0808 
    152 H152      -49.0233  -23.3277    5.5594 H         1 UNK         0.3098 
    153 H153      -49.8646  -25.8966    4.7727 H         1 UNK         0.0720 
    154 H154      -47.8289  -25.6880    3.2532 H         1 UNK         0.0791 
    155 H155      -46.9270  -24.9771    4.5847 H         1 UNK         0.0791 
    156 H156      -48.3163  -24.1398    3.8952 H         1 UNK         0.0791 
    157 H157      -47.9541  -27.3277    6.3452 H         1 UNK         0.3028 
@<TRIPOS>BOND
     1    1    2 1    
     2    1   82 1    
     3    1   83 1    
     4    1   84 1    
     5    2    3 2    
     6    2    4 am   BACKBONE|DICT|INTERRES
     7    4    5 1    
     8    4   85 1    
     9    5    6 1    
    10    5   80 1    
    11    5   86 1    
    12    6    7 1    
    13    6   87 1    
    14    6   88 1    
    15    7    8 1    
    16    8    9 1    
    17    8   89 1    
    18    8   90 1    
    19    9   10 ar   
    20    9   14 ar   
    21   10   11 ar   
    22   10   91 1    
    23   11   12 ar   
    24   11   58 1    
    25   12   13 ar   
    26   12   92 1    
    27   13   14 ar   
    28   13   15 1    
    29   14   93 1    
    30   15   16 1    
    31   15   94 1    
    32   15   95 1    
    33   16   17 1    
    34   17   18 1    
    35   17   96 1    
    36   17   97 1    
    37   18   19 1    
    38   18   22 1    
    39   18   98 1    
    40   19   20 am   BACKBONE|DICT|INTERRES
    41   19   21 2    
    42   20   99 1    
    43   20  100 1    
    44   22   23 am   BACKBONE|DICT|INTERRES
    45   22  101 1    
    46   23   24 2    
    47   23   25 1    
    48   25   26 1    
    49   25   27 1    
    50   25  102 1    
    51   26  103 1    
    52   26  104 1    
    53   26  105 1    
    54   27   28 am   BACKBONE|DICT|INTERRES
    55   27  106 1    
    56   28   29 2    
    57   28   30 1    
    58   30   31 1    
    59   30   32 1    
    60   30  107 1    
    61   31  108 1    
    62   31  109 1    
    63   31  110 1    
    64   32   33 am   BACKBONE|DICT|INTERRES
    65   32  111 1    
    66   33   34 2    
    67   33   35 1    
    68   35   36 1    
    69   35   37 1    
    70   35  112 1    
    71   36  113 1    
    72   36  114 1    
    73   36  115 1    
    74   37   38 am   BACKBONE|DICT|INTERRES
    75   37  116 1    
    76   38   39 2    
    77   38   40 1    
    78   40   41 1    
    79   40   42 1    
    80   40  117 1    
    81   41  118 1    
    82   41  119 1    
    83   41  120 1    
    84   42   43 am   BACKBONE|DICT|INTERRES
    85   42  121 1    
    86   43   44 2    
    87   43   45 1    
    88   45   46 1    
    89   45   47 1    
    90   45  122 1    
    91   46  123 1    
    92   46  124 1    
    93   46  125 1    
    94   47   48 am   BACKBONE|DICT|INTERRES
    95   47  126 1    
    96   48   49 2    
    97   48   50 1    
    98   50   51 1    
    99   50   52 1    
   100   50  127 1    
   101   51  128 1    
   102   51  129 1    
   103   51  130 1    
   104   52   53 am   BACKBONE|DICT|INTERRES
   105   52  131 1    
   106   53   54 2    
   107   53   55 1    
   108   55   56 1    
   109   55   59 1    
   110   55  132 1    
   111   56   57 1    
   112   56  133 1    
   113   56  134 1    
   114   57   58 1    
   115   58  135 1    
   116   58  136 1    
   117   59   60 am   BACKBONE|DICT|INTERRES
   118   59  137 1    
   119   60   61 2    
   120   60   62 1    
   121   62   63 1    
   122   62   64 1    
   123   62  138 1    
   124   63  139 1    
   125   63  140 1    
   126   63  141 1    
   127   64   65 am   BACKBONE|DICT|INTERRES
   128   64  142 1    
   129   65   66 2    
   130   65   67 1    
   131   67   68 1    
   132   67   69 1    
   133   67  143 1    
   134   68  144 1    
   135   68  145 1    
   136   68  146 1    
   137   69   70 am   BACKBONE|DICT|INTERRES
   138   69  147 1    
   139   70   71 2    
   140   70   72 1    
   141   72   73 1    
   142   72   74 1    
   143   72  148 1    
   144   73  149 1    
   145   73  150 1    
   146   73  151 1    
   147   74   75 am   BACKBONE|DICT|INTERRES
   148   74  152 1    
   149   75   76 2    
   150   75   77 1    
   151   77   78 1    
   152   77   79 1    
   153   77  153 1    
   154   78  154 1    
   155   78  155 1    
   156   78  156 1    
   157   79   80 am   BACKBONE|DICT|INTERRES
   158   79  157 1    
   159   80   81 2    
@<TRIPOS>SUBSTRUCTURE
     1 UNK         1 GROUP             0       ****    0 ROOT    
