@<TRIPOS>MOLECULE
3R207
157   159    1
SMALL
USER_CHARGES


@<TRIPOS>ATOM
      1 CA        -46.6756  -32.2180    9.7382 C.3       0 UNK        -0.1975 
      2 C         -46.9401  -31.3748    8.4997 C.2       0 UNK         0.4852 
      3 O         -46.2554  -31.5389    7.4895 O.2       0 UNK        -0.5216 
      4 N         -47.9264  -30.4704    8.5728 N.am      1 UNK        -0.4461 
      5 CA        -48.3429  -29.5845    7.4751 C.3       1 UNK         0.0864 
      6 C6        -49.7481  -28.9825    7.7268 C.3       14 UNK        -0.0898 
      7 S7        -51.0253  -30.2855    7.7831 S.3       14 UNK        -0.2598 
      8 C8        -52.2582  -29.6743    6.5929 C.3       14 UNK         0.0286 
      9 C9        -53.1668  -28.6205    7.2109 C.ar      14 UNK        -0.0844 
     10 C10       -52.9235  -27.2597    7.0024 C.ar      14 UNK        -0.0881 
     11 C11       -53.7833  -26.2917    7.5350 C.ar      14 UNK        -0.0643 
     12 C12       -54.8926  -26.7036    8.2837 C.ar      14 UNK        -0.0930 
     13 C13       -55.1580  -28.0622    8.4917 C.ar      14 UNK        -0.0827 
     14 C14       -54.2848  -29.0137    7.9526 C.ar      14 UNK        -0.1249 
     15 C15       -56.4432  -28.4824    9.2073 C.3       14 UNK         0.0141 
     16 S16       -56.2587  -29.9073   10.3361 S.3       14 UNK        -0.2313 
     17 C17       -55.4313  -29.1407   11.7643 C.3       14 UNK        -0.0915 
     18 CA        -55.7672  -29.8288   13.1174 C.3       13 UNK         0.0968 
     19 C         -54.9805  -31.1555   13.3068 C.2       13 UNK         0.5732 
     20 N         -53.8092  -31.1291   13.9313 N.am      13 UNK        -0.7310 
     21 O         -55.4462  -32.2189   12.9047 O.2       13 UNK        -0.5035 
     22 N         -55.5760  -28.8989   14.2410 N.am      13 UNK        -0.4233 
     23 C         -56.2648  -28.9289   15.3877 C.2       13 UNK         0.4989 
     24 O         -57.1734  -29.7299   15.6171 O.2       13 UNK        -0.4996 
     25 CA        -55.9026  -27.8542   16.4330 C.3       12 UNK         0.0216 
     26 CB        -56.6171  -28.0527   17.7881 C.3       12 UNK        -0.1964 
     27 N         -54.4565  -27.6689   16.6137 N.am      12 UNK        -0.4276 
     28 C         -53.5731  -28.5393   17.1304 C.2       12 UNK         0.5020 
     29 O         -53.8812  -29.6625   17.5312 O.2       12 UNK        -0.5489 
     30 CA        -52.0970  -28.0925   17.2292 C.3       11 UNK         0.0294 
     31 CB        -51.1364  -29.2190   16.8051 C.3       11 UNK        -0.2019 
     32 N         -51.8150  -26.9085   16.4148 N.am      11 UNK        -0.4493 
     33 C         -51.7440  -25.6445   16.8563 C.2       11 UNK         0.4932 
     34 O         -51.8272  -25.3300   18.0433 O.2       11 UNK        -0.5029 
     35 CA        -51.5988  -24.5326   15.7935 C.3       10 UNK         0.0280 
     36 CB        -50.1359  -24.0773   15.6731 C.3       10 UNK        -0.1976 
     37 N         -52.0985  -24.9167   14.4685 N.am      10 UNK        -0.4242 
     38 C         -53.3696  -25.2498   14.2011 C.2       10 UNK         0.5072 
     39 O         -54.2847  -25.1793   15.0214 O.2       10 UNK        -0.5224 
     40 CA        -53.6470  -25.8690   12.8247 C.3       9 UNK         0.0343 
     41 CB        -53.9546  -24.7835   11.7843 C.3       9 UNK        -0.2003 
     42 N         -52.5430  -26.7252   12.3730 N.am      9 UNK        -0.4272 
     43 C         -52.2111  -27.8899   12.9506 C.2       9 UNK         0.4988 
     44 O         -52.8217  -28.3619   13.9069 O.2       9 UNK        -0.5108 
     45 CA        -51.0009  -28.6555   12.3967 C.3       8 UNK         0.0248 
     46 CB        -51.4185  -29.5144   11.1959 C.3       8 UNK        -0.2001 
     47 N         -49.9002  -27.7696   12.0212 N.am      8 UNK        -0.4140 
     48 C         -49.1470  -27.0929   12.9006 C.2       8 UNK         0.5028 
     49 O         -49.2364  -27.2253   14.1207 O.2       8 UNK        -0.5428 
     50 CA        -48.1604  -26.0607   12.3206 C.3       7 UNK         0.0264 
     51 CB        -46.7826  -26.7013   12.1039 C.3       7 UNK        -0.1988 
     52 N         -48.6114  -25.4394   11.0678 N.am      7 UNK        -0.4454 
     53 C         -49.7615  -24.7660   10.9256 C.2       7 UNK         0.5027 
     54 O         -50.5715  -24.6051   11.8405 O.2       7 UNK        -0.5083 
     55 CA        -50.0671  -24.2254    9.5174 C.3       6 UNK         0.0844 
     56 C56       -51.5610  -24.4053    9.1425 C.3       14 UNK        -0.0967 
     57 S57       -51.8460  -24.2391    7.3556 S.3       14 UNK        -0.2604 
     58 C58       -53.5785  -24.8045    7.2423 C.3       14 UNK         0.0134 
     59 N         -49.5605  -22.8556    9.3964 N.am      6 UNK        -0.4116 
     60 C         -49.9641  -21.7642   10.0682 C.2       5 UNK         0.5034 
     61 O         -50.9822  -21.7046   10.7588 O.2       5 UNK        -0.5045 
     62 CA        -49.0461  -20.5275    9.9537 C.3       5 UNK         0.0224 
     63 CB        -49.2814  -19.4969   11.0790 C.3       5 UNK        -0.1978 
     64 N         -47.6221  -20.8863    9.8653 N.am      5 UNK        -0.4737 
     65 C         -46.8917  -21.5787   10.7534 C.2       4 UNK         0.5027 
     66 O         -47.3072  -21.9452   11.8529 O.2       4 UNK        -0.5211 
     67 CA        -45.4790  -21.9843   10.2868 C.3       4 UNK         0.0297 
     68 CB        -44.6770  -22.7085   11.3842 C.3       4 UNK        -0.1993 
     69 N         -45.5524  -22.8511    9.1067 N.am      4 UNK        -0.4486 
     70 C         -45.7961  -22.4485    7.8536 C.2       3 UNK         0.4961 
     71 O         -45.9214  -21.2606    7.5505 O.2       3 UNK        -0.5105 
     72 CA        -45.9775  -23.5254    6.7627 C.3       3 UNK         0.0299 
     73 CB        -45.3579  -23.0814    5.4246 C.3       3 UNK        -0.1972 
     74 N         -45.4688  -24.8620    7.0917 N.am      3 UNK        -0.4305 
     75 C         -46.0073  -25.7315    7.9548 C.2       2 UNK         0.5006 
     76 O         -46.9237  -25.4588    8.7358 O.2       2 UNK        -0.5106 
     77 CA        -45.3852  -27.1358    7.9684 C.3       2 UNK         0.0296 
     78 CB        -44.3530  -27.2698    9.0990 C.3       2 UNK        -0.2002 
     79 N         -46.4089  -28.1730    8.1054 N.am      2 UNK        -0.4032 
     80 C         -47.3170  -28.4725    7.1626 C.2       1 UNK         0.5000 
     81 O         -47.3616  -27.9164    6.0631 O.2       1 UNK        -0.5238 
     82 H82       -45.6547  -32.0634   10.0866 H         1 UNK         0.0889 
     83 H83       -46.7995  -33.2751    9.5047 H         1 UNK         0.0889 
     84 H84       -47.3540  -31.9700   10.5543 H         1 UNK         0.0889 
     85 H85       -48.4785  -30.4091    9.4156 H         1 UNK         0.3028 
     86 H86       -48.4023  -30.1943    6.5705 H         1 UNK         0.0864 
     87 H87       -50.0044  -28.2684    6.9421 H         1 UNK         0.0720 
     88 H88       -49.7729  -28.4234    8.6633 H         1 UNK         0.0720 
     89 H89       -51.7617  -29.2894    5.7009 H         1 UNK         0.0814 
     90 H90       -52.8624  -30.5181    6.2565 H         1 UNK         0.0814 
     91 H91       -52.0766  -26.9530    6.4045 H         1 UNK         0.1469 
     92 H92       -55.5777  -25.9621    8.6718 H         1 UNK         0.1381 
     93 H93       -54.4871  -30.0673    8.0878 H         1 UNK         0.1206 
     94 H94       -57.1769  -28.7485    8.4455 H         1 UNK         0.0813 
     95 H95       -56.8728  -27.6447    9.7588 H         1 UNK         0.0813 
     96 H96       -54.3595  -29.1222   11.5729 H         1 UNK         0.0638 
     97 H97       -55.7506  -28.0989   11.7973 H         1 UNK         0.0638 
     98 H98       -56.8264  -30.0926   13.0925 H         1 UNK         0.0568 
     99 H99       -53.4165  -30.2432   14.2248 H         1 UNK         0.3450 
    100 H100      -53.3018  -31.9868   14.0748 H         1 UNK         0.3450 
    101 H101      -54.7503  -28.3141   14.1860 H         1 UNK         0.2987 
    102 H102      -56.2676  -26.9132   16.0186 H         1 UNK         0.0766 
    103 H103      -56.3636  -27.2588   18.4906 H         1 UNK         0.0798 
    104 H104      -57.7006  -28.0389   17.6634 H         1 UNK         0.0798 
    105 H105      -56.3578  -29.0057   18.2500 H         1 UNK         0.0798 
    106 H106      -54.1040  -26.7769   16.2815 H         1 UNK         0.3198 
    107 H107      -51.9062  -27.8691   18.2808 H         1 UNK         0.0843 
    108 H108      -50.0964  -28.8983   16.8696 H         1 UNK         0.0831 
    109 H109      -51.3211  -29.5452   15.7815 H         1 UNK         0.0831 
    110 H110      -51.2452  -30.0923   17.4493 H         1 UNK         0.0831 
    111 H111      -51.7383  -27.0762   15.4196 H         1 UNK         0.3133 
    112 H112      -52.1921  -23.6804   16.1310 H         1 UNK         0.0566 
    113 H113      -49.4840  -24.8910   15.3558 H         1 UNK         0.0814 
    114 H114      -49.7608  -23.7162   16.6316 H         1 UNK         0.0814 
    115 H115      -50.0293  -23.2634   14.9553 H         1 UNK         0.0814 
    116 H116      -51.4243  -24.9604   13.7102 H         1 UNK         0.3091 
    117 H117      -54.5360  -26.4922   12.9215 H         1 UNK         0.0702 
    118 H118      -53.1567  -24.0435   11.7253 H         1 UNK         0.0785 
    119 H119      -54.8670  -24.2471   12.0476 H         1 UNK         0.0785 
    120 H120      -54.1052  -25.2095   10.7927 H         1 UNK         0.0785 
    121 H121      -51.9410  -26.3433   11.6583 H         1 UNK         0.2998 
    122 H122      -50.6439  -29.3251   13.1823 H         1 UNK         0.0697 
    123 H123      -52.1912  -30.2306   11.4784 H         1 UNK         0.0825 
    124 H124      -50.5787  -30.0915   10.8105 H         1 UNK         0.0825 
    125 H125      -51.8198  -28.9100   10.3809 H         1 UNK         0.0825 
    126 H126      -49.7498  -27.6056   11.0379 H         1 UNK         0.3029 
    127 H127      -48.0565  -25.2621   13.0585 H         1 UNK         0.0897 
    128 H128      -46.0509  -25.9612   11.7810 H         1 UNK         0.0792 
    129 H129      -46.4076  -27.1440   13.0278 H         1 UNK         0.0792 
    130 H130      -46.8216  -27.4920   11.3543 H         1 UNK         0.0792 
    131 H131      -47.9860  -25.5081   10.2660 H         1 UNK         0.3086 
    132 H132      -49.4873  -24.8256    8.8146 H         1 UNK         0.0583 
    133 H133      -51.9100  -25.3963    9.4379 H         1 UNK         0.1020 
    134 H134      -52.1937  -23.6891    9.6658 H         1 UNK         0.1020 
    135 H135      -54.1846  -24.1936    7.9134 H         1 UNK         0.0694 
    136 H136      -53.9408  -24.6026    6.2337 H         1 UNK         0.0694 
    137 H137      -48.7091  -22.7683    8.8633 H         1 UNK         0.2989 
    138 H138      -49.3052  -20.0482    9.0081 H         1 UNK         0.1055 
    139 H139      -48.6252  -18.6335   10.9706 H         1 UNK         0.0806 
    140 H140      -49.1091  -19.9283   12.0657 H         1 UNK         0.0806 
    141 H141      -50.3072  -19.1265   11.0623 H         1 UNK         0.0806 
    142 H142      -47.1664  -20.6751    8.9806 H         1 UNK         0.3061 
    143 H143      -44.9416  -21.0698   10.0264 H         1 UNK         0.0734 
    144 H144      -44.5760  -22.0809   12.2706 H         1 UNK         0.0832 
    145 H145      -45.1610  -23.6349   11.6951 H         1 UNK         0.0832 
    146 H146      -43.6701  -22.9526   11.0451 H         1 UNK         0.0832 
    147 H147      -45.5638  -23.8480    9.2774 H         1 UNK         0.3156 
    148 H148      -47.0546  -23.6195    6.6098 H         1 UNK         0.0589 
    149 H149      -44.2791  -22.9435    5.5072 H         1 UNK         0.0808 
    150 H150      -45.5449  -23.8120    4.6372 H         1 UNK         0.0808 
    151 H151      -45.7820  -22.1356    5.0845 H         1 UNK         0.0808 
    152 H152      -44.6826  -25.1739    6.5391 H         1 UNK         0.3098 
    153 H153      -44.8722  -27.3021    7.0185 H         1 UNK         0.0720 
    154 H154      -44.8008  -27.1299   10.0812 H         1 UNK         0.0791 
    155 H155      -43.8767  -28.2504    9.0856 H         1 UNK         0.0791 
    156 H156      -43.5611  -26.5267    8.9954 H         1 UNK         0.0791 
    157 H157      -46.4438  -28.6729    8.9803 H         1 UNK         0.3028 
@<TRIPOS>BOND
     1    1    2 1    
     2    1   82 1    
     3    1   83 1    
     4    1   84 1    
     5    2    3 2    
     6    2    4 am   BACKBONE|DICT|INTERRES
     7    4    5 1    
     8    4   85 1    
     9    5    6 1    
    10    5   80 1    
    11    5   86 1    
    12    6    7 1    
    13    6   87 1    
    14    6   88 1    
    15    7    8 1    
    16    8    9 1    
    17    8   89 1    
    18    8   90 1    
    19    9   10 ar   
    20    9   14 ar   
    21   10   11 ar   
    22   10   91 1    
    23   11   12 ar   
    24   11   58 1    
    25   12   13 ar   
    26   12   92 1    
    27   13   14 ar   
    28   13   15 1    
    29   14   93 1    
    30   15   16 1    
    31   15   94 1    
    32   15   95 1    
    33   16   17 1    
    34   17   18 1    
    35   17   96 1    
    36   17   97 1    
    37   18   19 1    
    38   18   22 1    
    39   18   98 1    
    40   19   20 am   BACKBONE|DICT|INTERRES
    41   19   21 2    
    42   20   99 1    
    43   20  100 1    
    44   22   23 am   BACKBONE|DICT|INTERRES
    45   22  101 1    
    46   23   24 2    
    47   23   25 1    
    48   25   26 1    
    49   25   27 1    
    50   25  102 1    
    51   26  103 1    
    52   26  104 1    
    53   26  105 1    
    54   27   28 am   BACKBONE|DICT|INTERRES
    55   27  106 1    
    56   28   29 2    
    57   28   30 1    
    58   30   31 1    
    59   30   32 1    
    60   30  107 1    
    61   31  108 1    
    62   31  109 1    
    63   31  110 1    
    64   32   33 am   BACKBONE|DICT|INTERRES
    65   32  111 1    
    66   33   34 2    
    67   33   35 1    
    68   35   36 1    
    69   35   37 1    
    70   35  112 1    
    71   36  113 1    
    72   36  114 1    
    73   36  115 1    
    74   37   38 am   BACKBONE|DICT|INTERRES
    75   37  116 1    
    76   38   39 2    
    77   38   40 1    
    78   40   41 1    
    79   40   42 1    
    80   40  117 1    
    81   41  118 1    
    82   41  119 1    
    83   41  120 1    
    84   42   43 am   BACKBONE|DICT|INTERRES
    85   42  121 1    
    86   43   44 2    
    87   43   45 1    
    88   45   46 1    
    89   45   47 1    
    90   45  122 1    
    91   46  123 1    
    92   46  124 1    
    93   46  125 1    
    94   47   48 am   BACKBONE|DICT|INTERRES
    95   47  126 1    
    96   48   49 2    
    97   48   50 1    
    98   50   51 1    
    99   50   52 1    
   100   50  127 1    
   101   51  128 1    
   102   51  129 1    
   103   51  130 1    
   104   52   53 am   BACKBONE|DICT|INTERRES
   105   52  131 1    
   106   53   54 2    
   107   53   55 1    
   108   55   56 1    
   109   55   59 1    
   110   55  132 1    
   111   56   57 1    
   112   56  133 1    
   113   56  134 1    
   114   57   58 1    
   115   58  135 1    
   116   58  136 1    
   117   59   60 am   BACKBONE|DICT|INTERRES
   118   59  137 1    
   119   60   61 2    
   120   60   62 1    
   121   62   63 1    
   122   62   64 1    
   123   62  138 1    
   124   63  139 1    
   125   63  140 1    
   126   63  141 1    
   127   64   65 am   BACKBONE|DICT|INTERRES
   128   64  142 1    
   129   65   66 2    
   130   65   67 1    
   131   67   68 1    
   132   67   69 1    
   133   67  143 1    
   134   68  144 1    
   135   68  145 1    
   136   68  146 1    
   137   69   70 am   BACKBONE|DICT|INTERRES
   138   69  147 1    
   139   70   71 2    
   140   70   72 1    
   141   72   73 1    
   142   72   74 1    
   143   72  148 1    
   144   73  149 1    
   145   73  150 1    
   146   73  151 1    
   147   74   75 am   BACKBONE|DICT|INTERRES
   148   74  152 1    
   149   75   76 2    
   150   75   77 1    
   151   77   78 1    
   152   77   79 1    
   153   77  153 1    
   154   78  154 1    
   155   78  155 1    
   156   78  156 1    
   157   79   80 am   BACKBONE|DICT|INTERRES
   158   79  157 1    
   159   80   81 2    
@<TRIPOS>SUBSTRUCTURE
     1 UNK         1 GROUP             0       ****    0 ROOT    
