@<TRIPOS>MOLECULE
3R207
157   159    1
SMALL
USER_CHARGES


@<TRIPOS>ATOM
      1 CA        -45.7905  -29.1391    7.2662 C.3       0 UNK        -0.1975 
      2 C         -46.5141  -28.8864    5.9527 C.2       0 UNK         0.4852 
      3 O         -45.8656  -28.7156    4.9188 O.2       0 UNK        -0.5216 
      4 N         -47.8523  -28.8719    5.9832 N.am      1 UNK        -0.4461 
      5 CA        -48.7487  -28.7454    4.8277 C.3       1 UNK         0.0864 
      6 C6        -50.1778  -29.2403    5.1736 C.3       14 UNK        -0.0898 
      7 S7        -50.1867  -31.0003    5.6531 S.3       14 UNK        -0.2598 
      8 C8        -51.9552  -31.2811    5.9787 C.3       14 UNK         0.0286 
      9 C9        -52.4164  -30.6311    7.2764 C.ar      14 UNK        -0.0844 
     10 C10       -52.0040  -31.1519    8.5081 C.ar      14 UNK        -0.0881 
     11 C11       -52.4526  -30.5873    9.7063 C.ar      14 UNK        -0.0643 
     12 C12       -53.3246  -29.4961    9.6621 C.ar      14 UNK        -0.0930 
     13 C13       -53.7344  -28.9571    8.4390 C.ar      14 UNK        -0.0827 
     14 C14       -53.2778  -29.5294    7.2480 C.ar      14 UNK        -0.1249 
     15 C15       -54.6526  -27.7441    8.4176 C.3       14 UNK         0.0141 
     16 S16       -56.2750  -28.1247    9.1517 S.3       14 UNK        -0.2313 
     17 C17       -56.8288  -26.4629    9.6652 C.3       14 UNK        -0.0915 
     18 CA        -56.1658  -25.9761   10.9846 C.3       13 UNK         0.0968 
     19 C         -56.6480  -24.5499   11.3771 C.2       13 UNK         0.5732 
     20 N         -57.1915  -24.3334   12.5690 N.am      13 UNK        -0.7310 
     21 O         -56.5157  -23.6177   10.5877 O.2       13 UNK        -0.5035 
     22 N         -56.2726  -26.9766   12.0617 N.am      13 UNK        -0.4233 
     23 C         -55.3466  -27.1524   13.0092 C.2       13 UNK         0.4989 
     24 O         -54.3297  -26.4646   13.1093 O.2       13 UNK        -0.4996 
     25 CA        -55.5719  -28.3089   13.9902 C.3       12 UNK         0.0216 
     26 CB        -55.4786  -29.6680   13.2643 C.3       12 UNK        -0.1964 
     27 N         -54.5571  -28.2166   15.0382 N.am      12 UNK        -0.4276 
     28 C         -54.5242  -28.9063   16.1840 C.2       12 UNK         0.5020 
     29 O         -55.3904  -29.7120   16.5270 O.2       12 UNK        -0.5489 
     30 CA        -53.3184  -28.6644   17.1046 C.3       11 UNK         0.0294 
     31 CB        -52.1576  -29.5970   16.7191 C.3       11 UNK        -0.2019 
     32 N         -52.8511  -27.2803   17.0484 N.am      11 UNK        -0.4493 
     33 C         -53.3029  -26.2797   17.8142 C.2       11 UNK         0.4932 
     34 O         -54.1842  -26.4139   18.6649 O.2       11 UNK        -0.5029 
     35 CA        -52.6486  -24.9015   17.5841 C.3       10 UNK         0.0280 
     36 CB        -52.8838  -23.9135   18.7460 C.3       10 UNK        -0.1976 
     37 N         -51.2214  -25.0019   17.2529 N.am      10 UNK        -0.4242 
     38 C         -50.2280  -25.4937   18.0108 C.2       10 UNK         0.5072 
     39 O         -50.3675  -25.8657   19.1766 O.2       10 UNK        -0.5224 
     40 CA        -48.8396  -25.6245   17.3510 C.3       9 UNK         0.0343 
     41 CB        -48.5563  -27.0955   17.0026 C.3       9 UNK        -0.2003 
     42 N         -48.6858  -24.8186   16.1370 N.am      9 UNK        -0.4272 
     43 C         -48.5827  -23.4821   16.1060 C.2       9 UNK         0.4988 
     44 O         -48.5072  -22.7741   17.1103 O.2       9 UNK        -0.5108 
     45 CA        -48.6208  -22.8257   14.7159 C.3       8 UNK         0.0248 
     46 CB        -47.2259  -22.8099   14.0700 C.3       8 UNK        -0.2001 
     47 N         -49.5799  -23.4957   13.8318 N.am      8 UNK        -0.4140 
     48 C         -50.9119  -23.3877   13.9526 C.2       8 UNK         0.5028 
     49 O         -51.4650  -22.6431   14.7612 O.2       8 UNK        -0.5428 
     50 CA        -51.7790  -24.2854   13.0581 C.3       7 UNK         0.0264 
     51 CB        -52.1705  -23.5582   11.7621 C.3       7 UNK        -0.1988 
     52 N         -51.1290  -25.5566   12.7340 N.am      7 UNK        -0.4454 
     53 C         -51.0353  -26.5930   13.5808 C.2       7 UNK         0.5027 
     54 O         -51.4850  -26.5824   14.7263 O.2       7 UNK        -0.5083 
     55 CA        -50.3014  -27.8544   13.0810 C.3       6 UNK         0.0844 
     56 C56       -51.3060  -28.7652   12.3366 C.3       14 UNK        -0.0967 
     57 S57       -50.5627  -30.3195   11.7354 S.3       14 UNK        -0.2604 
     58 C58       -52.0169  -31.1727   11.0439 C.3       14 UNK         0.0134 
     59 N         -49.1322  -27.5477   12.2536 N.am      6 UNK        -0.4116 
     60 C         -48.1128  -26.7388   12.5700 C.2       5 UNK         0.5034 
     61 O         -47.9997  -26.1637   13.6529 O.2       5 UNK        -0.5045 
     62 CA        -47.0755  -26.4739   11.4628 C.3       5 UNK         0.0224 
     63 CB        -46.9469  -27.6359   10.4544 C.3       5 UNK        -0.1978 
     64 N         -47.3079  -25.2186   10.7319 N.am      5 UNK        -0.4737 
     65 C         -48.4619  -24.7589   10.2190 C.2       4 UNK         0.5027 
     66 O         -49.5635  -25.2811   10.3864 O.2       4 UNK        -0.5211 
     67 CA        -48.3633  -23.5076    9.3322 C.3       4 UNK         0.0297 
     68 CB        -48.2110  -22.2410   10.1903 C.3       4 UNK        -0.1993 
     69 N         -47.2828  -23.5732    8.3399 N.am      4 UNK        -0.4486 
     70 C         -47.1537  -24.5261    7.4048 C.2       3 UNK         0.4961 
     71 O         -47.9028  -25.4998    7.2986 O.2       3 UNK        -0.5105 
     72 CA        -45.9676  -24.3756    6.4386 C.3       3 UNK         0.0299 
     73 CB        -44.6822  -24.9376    7.0670 C.3       3 UNK        -0.1972 
     74 N         -46.2431  -25.0880    5.1907 N.am      3 UNK        -0.4305 
     75 C         -46.9987  -24.6072    4.1933 C.2       2 UNK         0.5006 
     76 O         -47.4069  -23.4463    4.1363 O.2       2 UNK        -0.5106 
     77 CA        -47.3771  -25.5956    3.0775 C.3       2 UNK         0.0296 
     78 CB        -46.2716  -25.6626    2.0113 C.3       2 UNK        -0.2002 
     79 N         -47.6352  -26.9389    3.6009 N.am      2 UNK        -0.4032 
     80 C         -48.7433  -27.3086    4.2581 C.2       1 UNK         0.5000 
     81 O         -49.7184  -26.5712    4.4199 O.2       1 UNK        -0.5238 
     82 H82       -45.2033  -28.2683    7.5509 H         1 UNK         0.0889 
     83 H83       -45.1121  -29.9852    7.1607 H         1 UNK         0.0889 
     84 H84       -46.4849  -29.3656    8.0746 H         1 UNK         0.0889 
     85 H85       -48.3234  -28.9909    6.8682 H         1 UNK         0.3028 
     86 H86       -48.3657  -29.3939    4.0362 H         1 UNK         0.0864 
     87 H87       -50.8435  -29.1202    4.3166 H         1 UNK         0.0720 
     88 H88       -50.6057  -28.6495    5.9862 H         1 UNK         0.0720 
     89 H89       -52.1336  -32.3558    6.0382 H         1 UNK         0.0814 
     90 H90       -52.5418  -30.9240    5.1308 H         1 UNK         0.0814 
     91 H91       -51.3354  -32.0019    8.5315 H         1 UNK         0.1469 
     92 H92       -53.6912  -29.0605   10.5810 H         1 UNK         0.1381 
     93 H93       -53.5954  -29.1200    6.2986 H         1 UNK         0.1206 
     94 H94       -54.1671  -26.9379    8.9677 H         1 UNK         0.0813 
     95 H95       -54.7996  -27.3781    7.4003 H         1 UNK         0.0813 
     96 H96       -56.6289  -25.7650    8.8499 H         1 UNK         0.0638 
     97 H97       -57.9137  -26.4952    9.7792 H         1 UNK         0.0638 
     98 H98       -55.1046  -25.8464   10.7667 H         1 UNK         0.0568 
     99 H99       -57.4945  -23.4034   12.8108 H         1 UNK         0.3450 
    100 H100      -57.3000  -25.0877   13.2269 H         1 UNK         0.3450 
    101 H101      -57.0848  -27.5750   12.0347 H         1 UNK         0.2987 
    102 H102      -56.5591  -28.1928   14.4415 H         1 UNK         0.0766 
    103 H103      -55.6762  -30.4998   13.9403 H         1 UNK         0.0798 
    104 H104      -54.4914  -29.8210   12.8307 H         1 UNK         0.0798 
    105 H105      -56.2050  -29.7414   12.4541 H         1 UNK         0.0798 
    106 H106      -53.8369  -27.5284   14.8433 H         1 UNK         0.3198 
    107 H107      -53.6219  -28.9017   18.1268 H         1 UNK         0.0843 
    108 H108      -51.8051  -29.4092   15.7041 H         1 UNK         0.0831 
    109 H109      -52.4645  -30.6426   16.7699 H         1 UNK         0.0831 
    110 H110      -51.3110  -29.4745   17.3950 H         1 UNK         0.0831 
    111 H111      -52.1754  -27.0520   16.3202 H         1 UNK         0.3133 
    112 H112      -53.1300  -24.4853   16.6978 H         1 UNK         0.0566 
    113 H113      -52.4159  -22.9495   18.5462 H         1 UNK         0.0814 
    114 H114      -53.9489  -23.7314   18.8941 H         1 UNK         0.0814 
    115 H115      -52.4859  -24.2918   19.6880 H         1 UNK         0.0814 
    116 H116      -50.9885  -24.7650   16.2985 H         1 UNK         0.3091 
    117 H117      -48.0963  -25.2924   18.0787 H         1 UNK         0.0702 
    118 H118      -47.5592  -27.2187   16.5794 H         1 UNK         0.0785 
    119 H119      -49.2761  -27.4843   16.2814 H         1 UNK         0.0785 
    120 H120      -48.6123  -27.7262   17.8909 H         1 UNK         0.0785 
    121 H121      -48.6480  -25.3248   15.2560 H         1 UNK         0.2998 
    122 H122      -48.9406  -21.7895   14.8470 H         1 UNK         0.0697 
    123 H123      -46.8465  -23.8143   13.8822 H         1 UNK         0.0825 
    124 H124      -46.5054  -22.3080   14.7172 H         1 UNK         0.0825 
    125 H125      -47.2353  -22.2712   13.1235 H         1 UNK         0.0825 
    126 H126      -49.2071  -24.1757   13.1841 H         1 UNK         0.3029 
    127 H127      -52.6960  -24.4986   13.6112 H         1 UNK         0.0897 
    128 H128      -51.2999  -23.3076   11.1558 H         1 UNK         0.0792 
    129 H129      -52.6953  -22.6275   11.9816 H         1 UNK         0.0792 
    130 H130      -52.8385  -24.1700   11.1553 H         1 UNK         0.0792 
    131 H131      -50.6874  -25.6227   11.8175 H         1 UNK         0.3086 
    132 H132      -49.9366  -28.3883   13.9606 H         1 UNK         0.0583 
    133 H133      -52.1461  -29.0158   12.9875 H         1 UNK         0.1020 
    134 H134      -51.7222  -28.2286   11.4828 H         1 UNK         0.1020 
    135 H135      -51.7702  -32.2283   10.9204 H         1 UNK         0.0694 
    136 H136      -52.8392  -31.1415   11.7590 H         1 UNK         0.0694 
    137 H137      -49.1433  -27.9468   11.3267 H         1 UNK         0.2989 
    138 H138      -46.1159  -26.3713   11.9726 H         1 UNK         0.1055 
    139 H139      -46.8142  -28.5930   10.9613 H         1 UNK         0.0806 
    140 H140      -46.0766  -27.4907    9.8150 H         1 UNK         0.0806 
    141 H141      -47.8181  -27.7171    9.8029 H         1 UNK         0.0806 
    142 H142      -46.4782  -24.6747   10.5411 H         1 UNK         0.3061 
    143 H143      -49.3031  -23.4302    8.7812 H         1 UNK         0.0734 
    144 H144      -48.3037  -21.3397    9.5842 H         1 UNK         0.0832 
    145 H145      -48.9834  -22.1904   10.9592 H         1 UNK         0.0832 
    146 H146      -47.2449  -22.2061   10.6943 H         1 UNK         0.0832 
    147 H147      -46.6129  -22.8172    8.3514 H         1 UNK         0.3156 
    148 H148      -45.8172  -23.3156    6.2220 H         1 UNK         0.0589 
    149 H149      -44.7894  -25.9873    7.3379 H         1 UNK         0.0808 
    150 H150      -43.8366  -24.8522    6.3842 H         1 UNK         0.0808 
    151 H151      -44.4190  -24.3939    7.9751 H         1 UNK         0.0808 
    152 H152      -45.9954  -26.0664    5.1685 H         1 UNK         0.3098 
    153 H153      -48.2885  -25.2284    2.6005 H         1 UNK         0.0720 
    154 H154      -46.5600  -26.3091    1.1822 H         1 UNK         0.0791 
    155 H155      -45.3343  -26.0410    2.4214 H         1 UNK         0.0791 
    156 H156      -46.0708  -24.6741    1.5957 H         1 UNK         0.0791 
    157 H157      -46.8623  -27.5976    3.5943 H         1 UNK         0.3028 
@<TRIPOS>BOND
     1    1    2 1    
     2    1   82 1    
     3    1   83 1    
     4    1   84 1    
     5    2    3 2    
     6    2    4 am   BACKBONE|DICT|INTERRES
     7    4    5 1    
     8    4   85 1    
     9    5    6 1    
    10    5   80 1    
    11    5   86 1    
    12    6    7 1    
    13    6   87 1    
    14    6   88 1    
    15    7    8 1    
    16    8    9 1    
    17    8   89 1    
    18    8   90 1    
    19    9   10 ar   
    20    9   14 ar   
    21   10   11 ar   
    22   10   91 1    
    23   11   12 ar   
    24   11   58 1    
    25   12   13 ar   
    26   12   92 1    
    27   13   14 ar   
    28   13   15 1    
    29   14   93 1    
    30   15   16 1    
    31   15   94 1    
    32   15   95 1    
    33   16   17 1    
    34   17   18 1    
    35   17   96 1    
    36   17   97 1    
    37   18   19 1    
    38   18   22 1    
    39   18   98 1    
    40   19   20 am   BACKBONE|DICT|INTERRES
    41   19   21 2    
    42   20   99 1    
    43   20  100 1    
    44   22   23 am   BACKBONE|DICT|INTERRES
    45   22  101 1    
    46   23   24 2    
    47   23   25 1    
    48   25   26 1    
    49   25   27 1    
    50   25  102 1    
    51   26  103 1    
    52   26  104 1    
    53   26  105 1    
    54   27   28 am   BACKBONE|DICT|INTERRES
    55   27  106 1    
    56   28   29 2    
    57   28   30 1    
    58   30   31 1    
    59   30   32 1    
    60   30  107 1    
    61   31  108 1    
    62   31  109 1    
    63   31  110 1    
    64   32   33 am   BACKBONE|DICT|INTERRES
    65   32  111 1    
    66   33   34 2    
    67   33   35 1    
    68   35   36 1    
    69   35   37 1    
    70   35  112 1    
    71   36  113 1    
    72   36  114 1    
    73   36  115 1    
    74   37   38 am   BACKBONE|DICT|INTERRES
    75   37  116 1    
    76   38   39 2    
    77   38   40 1    
    78   40   41 1    
    79   40   42 1    
    80   40  117 1    
    81   41  118 1    
    82   41  119 1    
    83   41  120 1    
    84   42   43 am   BACKBONE|DICT|INTERRES
    85   42  121 1    
    86   43   44 2    
    87   43   45 1    
    88   45   46 1    
    89   45   47 1    
    90   45  122 1    
    91   46  123 1    
    92   46  124 1    
    93   46  125 1    
    94   47   48 am   BACKBONE|DICT|INTERRES
    95   47  126 1    
    96   48   49 2    
    97   48   50 1    
    98   50   51 1    
    99   50   52 1    
   100   50  127 1    
   101   51  128 1    
   102   51  129 1    
   103   51  130 1    
   104   52   53 am   BACKBONE|DICT|INTERRES
   105   52  131 1    
   106   53   54 2    
   107   53   55 1    
   108   55   56 1    
   109   55   59 1    
   110   55  132 1    
   111   56   57 1    
   112   56  133 1    
   113   56  134 1    
   114   57   58 1    
   115   58  135 1    
   116   58  136 1    
   117   59   60 am   BACKBONE|DICT|INTERRES
   118   59  137 1    
   119   60   61 2    
   120   60   62 1    
   121   62   63 1    
   122   62   64 1    
   123   62  138 1    
   124   63  139 1    
   125   63  140 1    
   126   63  141 1    
   127   64   65 am   BACKBONE|DICT|INTERRES
   128   64  142 1    
   129   65   66 2    
   130   65   67 1    
   131   67   68 1    
   132   67   69 1    
   133   67  143 1    
   134   68  144 1    
   135   68  145 1    
   136   68  146 1    
   137   69   70 am   BACKBONE|DICT|INTERRES
   138   69  147 1    
   139   70   71 2    
   140   70   72 1    
   141   72   73 1    
   142   72   74 1    
   143   72  148 1    
   144   73  149 1    
   145   73  150 1    
   146   73  151 1    
   147   74   75 am   BACKBONE|DICT|INTERRES
   148   74  152 1    
   149   75   76 2    
   150   75   77 1    
   151   77   78 1    
   152   77   79 1    
   153   77  153 1    
   154   78  154 1    
   155   78  155 1    
   156   78  156 1    
   157   79   80 am   BACKBONE|DICT|INTERRES
   158   79  157 1    
   159   80   81 2    
@<TRIPOS>SUBSTRUCTURE
     1 UNK         1 GROUP             0       ****    0 ROOT    
