@<TRIPOS>MOLECULE
3R207
157   159    1
SMALL
USER_CHARGES


@<TRIPOS>ATOM
      1 CA        -46.0881  -26.0818   13.4474 C.3       0 UNK        -0.1975 
      2 C         -46.5531  -26.4425   12.0453 C.2       0 UNK         0.4852 
      3 O         -46.8035  -25.5518   11.2306 O.2       0 UNK        -0.5216 
      4 N         -46.6544  -27.7483   11.7604 N.am      1 UNK        -0.4461 
      5 CA        -47.1018  -28.3769   10.5063 C.3       1 UNK         0.0864 
      6 C6        -48.4540  -27.8473    9.9598 C.3       14 UNK        -0.0898 
      7 S7        -49.8256  -27.9549   11.1546 S.3       14 UNK        -0.2598 
      8 C8        -50.9724  -29.0782   10.2974 C.3       14 UNK         0.0286 
      9 C9        -52.0070  -28.3039    9.4936 C.ar      14 UNK        -0.0844 
     10 C10       -51.6670  -27.6837    8.2856 C.ar      14 UNK        -0.0881 
     11 C11       -52.6193  -26.9447    7.5739 C.ar      14 UNK        -0.0643 
     12 C12       -53.9292  -26.8670    8.0591 C.ar      14 UNK        -0.0930 
     13 C13       -54.2856  -27.5043    9.2501 C.ar      14 UNK        -0.0827 
     14 C14       -53.3178  -28.2095    9.9670 C.ar      14 UNK        -0.1249 
     15 C15       -55.7176  -27.4475    9.7561 C.3       14 UNK         0.0141 
     16 S16       -56.0014  -25.9773   10.7842 S.3       14 UNK        -0.2313 
     17 C17       -57.7287  -26.2611   11.2975 C.3       14 UNK        -0.0915 
     18 CA        -57.8709  -26.5652   12.8129 C.3       13 UNK         0.0968 
     19 C         -59.3650  -26.6190   13.2203 C.2       13 UNK         0.5732 
     20 N         -59.9723  -25.4755   13.5061 N.am      13 UNK        -0.7310 
     21 O         -59.9873  -27.6804   13.2503 O.2       13 UNK        -0.5035 
     22 N         -57.2042  -27.8178   13.1975 N.am      13 UNK        -0.4233 
     23 C         -56.0923  -27.9010   13.9337 C.2       13 UNK         0.4989 
     24 O         -55.4262  -26.9271   14.2887 O.2       13 UNK        -0.4996 
     25 CA        -55.6355  -29.3193   14.3219 C.3       12 UNK         0.0216 
     26 CB        -54.7746  -29.9328   13.2079 C.3       12 UNK        -0.1964 
     27 N         -54.8669  -29.3208   15.5698 N.am      12 UNK        -0.4276 
     28 C         -55.3821  -29.0501   16.7787 C.2       12 UNK         0.5020 
     29 O         -56.5873  -28.8779   16.9757 O.2       12 UNK        -0.5489 
     30 CA        -54.3970  -28.9354   17.9619 C.3       11 UNK         0.0294 
     31 CB        -55.0572  -29.2339   19.3256 C.3       11 UNK        -0.2019 
     32 N         -53.1672  -29.7168   17.7881 N.am      11 UNK        -0.4493 
     33 C         -53.0508  -31.0503   17.6769 C.2       11 UNK         0.4932 
     34 O         -53.9962  -31.8324   17.7852 O.2       11 UNK        -0.5029 
     35 CA        -51.6350  -31.5993   17.3848 C.3       10 UNK         0.0280 
     36 CB        -51.6699  -32.9393   16.6187 C.3       10 UNK        -0.1976 
     37 N         -50.7531  -30.6380   16.7034 N.am      10 UNK        -0.4242 
     38 C         -50.9794  -30.0427   15.5231 C.2       10 UNK         0.5072 
     39 O         -51.9645  -30.2617   14.8146 O.2       10 UNK        -0.5224 
     40 CA        -49.9462  -28.9925   15.0825 C.3       9 UNK         0.0343 
     41 CB        -48.9245  -29.6159   14.1213 C.3       9 UNK        -0.2003 
     42 N         -50.5908  -27.8341   14.4528 N.am      9 UNK        -0.4272 
     43 C         -51.4495  -27.0222   15.0880 C.2       9 UNK         0.4988 
     44 O         -51.7227  -27.1371   16.2868 O.2       9 UNK        -0.5108 
     45 CA        -52.1215  -25.9135   14.2507 C.3       8 UNK         0.0248 
     46 CB        -52.9406  -24.9394   15.1257 C.3       8 UNK        -0.2001 
     47 N         -51.2190  -25.1419   13.3851 N.am      8 UNK        -0.4140 
     48 C         -50.0994  -24.4934   13.7379 C.2       8 UNK         0.5028 
     49 O         -49.5413  -24.6175   14.8294 O.2       8 UNK        -0.5428 
     50 CA        -49.5439  -23.4908   12.7074 C.3       7 UNK         0.0264 
     51 CB        -48.1905  -22.8776   13.1128 C.3       7 UNK        -0.1988 
     52 N         -49.4355  -24.0396   11.3536 N.am      7 UNK        -0.4454 
     53 C         -50.4289  -24.0455   10.4507 C.2       7 UNK         0.5027 
     54 O         -51.5920  -23.7541   10.7360 O.2       7 UNK        -0.5083 
     55 CA        -50.0431  -24.4036    8.9956 C.3       6 UNK         0.0844 
     56 C56       -51.1741  -24.1594    7.9595 C.3       14 UNK        -0.0967 
     57 S57       -50.8254  -25.0917    6.4258 S.3       14 UNK        -0.2604 
     58 C58       -52.2519  -26.2251    6.2787 C.3       14 UNK         0.0134 
     59 N         -48.7682  -23.7784    8.6049 N.am      6 UNK        -0.4116 
     60 C         -48.4988  -22.4620    8.6138 C.2       5 UNK         0.5034 
     61 O         -49.3256  -21.5863    8.8714 O.2       5 UNK        -0.5045 
     62 CA        -47.0563  -22.0456    8.3071 C.3       5 UNK         0.0224 
     63 CB        -46.0986  -22.5369    9.4070 C.3       5 UNK        -0.1978 
     64 N         -46.6186  -22.5581    7.0091 N.am      5 UNK        -0.4737 
     65 C         -46.4818  -21.8116    5.9039 C.2       4 UNK         0.5027 
     66 O         -46.7547  -20.6117    5.8549 O.2       4 UNK        -0.5211 
     67 CA        -45.9122  -22.4886    4.6420 C.3       4 UNK         0.0297 
     68 CB        -44.4638  -22.0311    4.4003 C.3       4 UNK        -0.1993 
     69 N         -45.9376  -23.9498    4.7121 N.am      4 UNK        -0.4486 
     70 C         -47.0119  -24.7053    4.4518 C.2       3 UNK         0.4961 
     71 O         -48.0761  -24.2576    4.0254 O.2       3 UNK        -0.5105 
     72 CA        -46.8803  -26.2167    4.7211 C.3       3 UNK         0.0299 
     73 CB        -46.5853  -26.9703    3.4141 C.3       3 UNK        -0.1972 
     74 N         -45.8667  -26.5727    5.7251 N.am      3 UNK        -0.4305 
     75 C         -45.9105  -26.2056    7.0122 C.2       2 UNK         0.5006 
     76 O         -46.7654  -25.4497    7.4814 O.2       2 UNK        -0.5106 
     77 CA        -44.8102  -26.7444    7.9361 C.3       2 UNK         0.0296 
     78 CB        -43.7461  -25.6686    8.2054 C.3       2 UNK        -0.2002 
     79 N         -45.4446  -27.1314    9.1926 N.am      2 UNK        -0.4032 
     80 C         -46.0538  -28.3076    9.3801 C.2       1 UNK         0.5000 
     81 O         -45.8622  -29.2986    8.6726 O.2       1 UNK        -0.5238 
     82 H82       -45.4022  -25.2359   13.4121 H         1 UNK         0.0889 
     83 H83       -45.5728  -26.9126   13.9289 H         1 UNK         0.0889 
     84 H84       -46.9429  -25.8071   14.0652 H         1 UNK         0.0889 
     85 H85       -46.3875  -28.4097   12.4757 H         1 UNK         0.3028 
     86 H86       -47.2350  -29.4345   10.7405 H         1 UNK         0.0864 
     87 H87       -48.3456  -26.8092    9.6555 H         1 UNK         0.0720 
     88 H88       -48.7239  -28.3870    9.0510 H         1 UNK         0.0720 
     89 H89       -51.4653  -29.6960   11.0501 H         1 UNK         0.0814 
     90 H90       -50.4329  -29.7730    9.6527 H         1 UNK         0.0814 
     91 H91       -50.6568  -27.7506    7.9081 H         1 UNK         0.1469 
     92 H92       -54.6762  -26.3088    7.5112 H         1 UNK         0.1381 
     93 H93       -53.5892  -28.6903   10.8944 H         1 UNK         0.1206 
     94 H94       -55.9463  -28.3430   10.3359 H         1 UNK         0.0813 
     95 H95       -56.4107  -27.4402    8.9133 H         1 UNK         0.0813 
     96 H96       -58.2869  -25.3593   11.0391 H         1 UNK         0.0638 
     97 H97       -58.1666  -27.0648   10.7026 H         1 UNK         0.0638 
     98 H98       -57.4283  -25.7347   13.3666 H         1 UNK         0.0568 
     99 H99       -60.9474  -25.4903   13.7612 H         1 UNK         0.3450 
    100 H100      -59.4766  -24.5981   13.4732 H         1 UNK         0.3450 
    101 H101      -57.7269  -28.6564   12.9865 H         1 UNK         0.2987 
    102 H102      -56.5195  -29.9438   14.4670 H         1 UNK         0.0766 
    103 H103      -53.8593  -29.3599   13.0554 H         1 UNK         0.0798 
    104 H104      -54.4872  -30.9568   13.4478 H         1 UNK         0.0798 
    105 H105      -55.3124  -29.9602   12.2596 H         1 UNK         0.0798 
    106 H106      -53.8669  -29.4654   15.4837 H         1 UNK         0.3198 
    107 H107      -54.0818  -27.8906   17.9750 H         1 UNK         0.0843 
    108 H108      -55.8755  -28.5406   19.5239 H         1 UNK         0.0831 
    109 H109      -54.3442  -29.1320   20.1437 H         1 UNK         0.0831 
    110 H110      -55.4717  -30.2416   19.3636 H         1 UNK         0.0831 
    111 H111      -52.3304  -29.1635   17.6533 H         1 UNK         0.3133 
    112 H112      -51.1814  -31.7891   18.3586 H         1 UNK         0.0566 
    113 H113      -50.6646  -33.3167   16.4320 H         1 UNK         0.0814 
    114 H114      -52.1997  -33.7040   17.1881 H         1 UNK         0.0814 
    115 H115      -52.1759  -32.8421   15.6575 H         1 UNK         0.0814 
    116 H116      -49.9181  -30.3810   17.2127 H         1 UNK         0.3091 
    117 H117      -49.4121  -28.6287   15.9628 H         1 UNK         0.0702 
    118 H118      -48.1893  -28.8803   13.7996 H         1 UNK         0.0785 
    119 H119      -49.4052  -30.0292   13.2338 H         1 UNK         0.0785 
    120 H120      -48.3806  -30.4293   14.6031 H         1 UNK         0.0785 
    121 H121      -50.4278  -27.7000   13.4636 H         1 UNK         0.2998 
    122 H122      -52.8179  -26.4243   13.5840 H         1 UNK         0.0697 
    123 H123      -52.3036  -24.3825   15.8138 H         1 UNK         0.0825 
    124 H124      -53.4871  -24.2218   14.5140 H         1 UNK         0.0825 
    125 H125      -53.6784  -25.4732   15.7259 H         1 UNK         0.0825 
    126 H126      -51.5662  -24.9561   12.4500 H         1 UNK         0.3029 
    127 H127      -50.2596  -22.6655   12.6869 H         1 UNK         0.0897 
    128 H128      -47.8938  -22.0895   12.4208 H         1 UNK         0.0792 
    129 H129      -47.3956  -23.6200   13.1307 H         1 UNK         0.0792 
    130 H130      -48.2416  -22.4278   14.1052 H         1 UNK         0.0792 
    131 H131      -48.5201  -24.3887   11.0845 H         1 UNK         0.3086 
    132 H132      -49.8726  -25.4760    9.0174 H         1 UNK         0.0583 
    133 H133      -52.1460  -24.4601    8.3524 H         1 UNK         0.1020 
    134 H134      -51.2691  -23.0988    7.7236 H         1 UNK         0.1020 
    135 H135      -53.1012  -25.6500    5.9066 H         1 UNK         0.0694 
    136 H136      -52.0293  -26.9694    5.5133 H         1 UNK         0.0694 
    137 H137      -48.0296  -24.4208    8.3257 H         1 UNK         0.2989 
    138 H138      -47.0241  -20.9536    8.3122 H         1 UNK         0.1055 
    139 H139      -45.0784  -22.2008    9.2220 H         1 UNK         0.0806 
    140 H140      -46.0834  -23.6239    9.4822 H         1 UNK         0.0806 
    141 H141      -46.3945  -22.1505   10.3829 H         1 UNK         0.0806 
    142 H142      -46.4619  -23.5586    6.9510 H         1 UNK         0.3061 
    143 H143      -46.5176  -22.1625    3.7933 H         1 UNK         0.0734 
    144 H144      -44.4085  -20.9457    4.3040 H         1 UNK         0.0832 
    145 H145      -43.8060  -22.3180    5.2217 H         1 UNK         0.0832 
    146 H146      -44.0607  -22.4558    3.4808 H         1 UNK         0.0832 
    147 H147      -45.0994  -24.4077    5.0386 H         1 UNK         0.3156 
    148 H148      -47.8469  -26.5575    5.0992 H         1 UNK         0.0589 
    149 H149      -46.5925  -28.0498    3.5665 H         1 UNK         0.0808 
    150 H150      -47.3390  -26.7483    2.6570 H         1 UNK         0.0808 
    151 H151      -45.6154  -26.6942    2.9982 H         1 UNK         0.0808 
    152 H152      -45.1250  -27.1869    5.4189 H         1 UNK         0.3098 
    153 H153      -44.3286  -27.6096    7.4754 H         1 UNK         0.0720 
    154 H154      -42.9754  -26.0383    8.8818 H         1 UNK         0.0791 
    155 H155      -44.1752  -24.7709    8.6504 H         1 UNK         0.0791 
    156 H156      -43.2495  -25.3696    7.2815 H         1 UNK         0.0791 
    157 H157      -45.7426  -26.3720    9.7989 H         1 UNK         0.3028 
@<TRIPOS>BOND
     1    1    2 1    
     2    1   82 1    
     3    1   83 1    
     4    1   84 1    
     5    2    3 2    
     6    2    4 am   BACKBONE|DICT|INTERRES
     7    4    5 1    
     8    4   85 1    
     9    5    6 1    
    10    5   80 1    
    11    5   86 1    
    12    6    7 1    
    13    6   87 1    
    14    6   88 1    
    15    7    8 1    
    16    8    9 1    
    17    8   89 1    
    18    8   90 1    
    19    9   10 ar   
    20    9   14 ar   
    21   10   11 ar   
    22   10   91 1    
    23   11   12 ar   
    24   11   58 1    
    25   12   13 ar   
    26   12   92 1    
    27   13   14 ar   
    28   13   15 1    
    29   14   93 1    
    30   15   16 1    
    31   15   94 1    
    32   15   95 1    
    33   16   17 1    
    34   17   18 1    
    35   17   96 1    
    36   17   97 1    
    37   18   19 1    
    38   18   22 1    
    39   18   98 1    
    40   19   20 am   BACKBONE|DICT|INTERRES
    41   19   21 2    
    42   20   99 1    
    43   20  100 1    
    44   22   23 am   BACKBONE|DICT|INTERRES
    45   22  101 1    
    46   23   24 2    
    47   23   25 1    
    48   25   26 1    
    49   25   27 1    
    50   25  102 1    
    51   26  103 1    
    52   26  104 1    
    53   26  105 1    
    54   27   28 am   BACKBONE|DICT|INTERRES
    55   27  106 1    
    56   28   29 2    
    57   28   30 1    
    58   30   31 1    
    59   30   32 1    
    60   30  107 1    
    61   31  108 1    
    62   31  109 1    
    63   31  110 1    
    64   32   33 am   BACKBONE|DICT|INTERRES
    65   32  111 1    
    66   33   34 2    
    67   33   35 1    
    68   35   36 1    
    69   35   37 1    
    70   35  112 1    
    71   36  113 1    
    72   36  114 1    
    73   36  115 1    
    74   37   38 am   BACKBONE|DICT|INTERRES
    75   37  116 1    
    76   38   39 2    
    77   38   40 1    
    78   40   41 1    
    79   40   42 1    
    80   40  117 1    
    81   41  118 1    
    82   41  119 1    
    83   41  120 1    
    84   42   43 am   BACKBONE|DICT|INTERRES
    85   42  121 1    
    86   43   44 2    
    87   43   45 1    
    88   45   46 1    
    89   45   47 1    
    90   45  122 1    
    91   46  123 1    
    92   46  124 1    
    93   46  125 1    
    94   47   48 am   BACKBONE|DICT|INTERRES
    95   47  126 1    
    96   48   49 2    
    97   48   50 1    
    98   50   51 1    
    99   50   52 1    
   100   50  127 1    
   101   51  128 1    
   102   51  129 1    
   103   51  130 1    
   104   52   53 am   BACKBONE|DICT|INTERRES
   105   52  131 1    
   106   53   54 2    
   107   53   55 1    
   108   55   56 1    
   109   55   59 1    
   110   55  132 1    
   111   56   57 1    
   112   56  133 1    
   113   56  134 1    
   114   57   58 1    
   115   58  135 1    
   116   58  136 1    
   117   59   60 am   BACKBONE|DICT|INTERRES
   118   59  137 1    
   119   60   61 2    
   120   60   62 1    
   121   62   63 1    
   122   62   64 1    
   123   62  138 1    
   124   63  139 1    
   125   63  140 1    
   126   63  141 1    
   127   64   65 am   BACKBONE|DICT|INTERRES
   128   64  142 1    
   129   65   66 2    
   130   65   67 1    
   131   67   68 1    
   132   67   69 1    
   133   67  143 1    
   134   68  144 1    
   135   68  145 1    
   136   68  146 1    
   137   69   70 am   BACKBONE|DICT|INTERRES
   138   69  147 1    
   139   70   71 2    
   140   70   72 1    
   141   72   73 1    
   142   72   74 1    
   143   72  148 1    
   144   73  149 1    
   145   73  150 1    
   146   73  151 1    
   147   74   75 am   BACKBONE|DICT|INTERRES
   148   74  152 1    
   149   75   76 2    
   150   75   77 1    
   151   77   78 1    
   152   77   79 1    
   153   77  153 1    
   154   78  154 1    
   155   78  155 1    
   156   78  156 1    
   157   79   80 am   BACKBONE|DICT|INTERRES
   158   79  157 1    
   159   80   81 2    
@<TRIPOS>SUBSTRUCTURE
     1 UNK         1 GROUP             0       ****    0 ROOT    
