@<TRIPOS>MOLECULE
3R207
157   159    1
SMALL
USER_CHARGES


@<TRIPOS>ATOM
      1 CA        -53.0391  -27.9532    5.2874 C.3       0 UNK        -0.1975 
      2 C         -52.4349  -29.3028    4.9057 C.2       0 UNK         0.4852 
      3 O         -53.0398  -30.0330    4.1217 O.2       0 UNK        -0.5216 
      4 N         -51.2624  -29.6848    5.4301 N.am      1 UNK        -0.4461 
      5 CA        -50.4015  -28.9034    6.3264 C.3       1 UNK         0.0864 
      6 C6        -49.4459  -29.8060    7.1516 C.3       14 UNK        -0.0898 
      7 S7        -50.2910  -31.1337    8.0759 S.3       14 UNK        -0.2598 
      8 C8        -50.7685  -30.2960    9.6233 C.3       14 UNK         0.0286 
      9 C9        -51.9752  -29.3868    9.4331 C.ar      14 UNK        -0.0844 
     10 C10       -51.8710  -28.0093    9.6468 C.ar      14 UNK        -0.0881 
     11 C11       -52.9751  -27.1715    9.4461 C.ar      14 UNK        -0.0643 
     12 C12       -54.1976  -27.7277    9.0586 C.ar      14 UNK        -0.0930 
     13 C13       -54.3229  -29.1067    8.8701 C.ar      14 UNK        -0.0827 
     14 C14       -53.2053  -29.9274    9.0489 C.ar      14 UNK        -0.1249 
     15 C15       -55.6594  -29.7113    8.4615 C.3       14 UNK         0.0141 
     16 S16       -56.2589  -30.9350    9.6715 S.3       14 UNK        -0.2313 
     17 C17       -57.0050  -29.8969   10.9794 C.3       14 UNK        -0.0915 
     18 CA        -56.0058  -29.1715   11.9342 C.3       13 UNK         0.0968 
     19 C         -56.7261  -28.4421   13.1085 C.2       13 UNK         0.5732 
     20 N         -56.1776  -28.4134   14.3187 N.am      13 UNK        -0.7310 
     21 O         -57.7951  -27.8671   12.9164 O.2       13 UNK        -0.5035 
     22 N         -54.8544  -29.9848   12.3491 N.am      13 UNK        -0.4233 
     23 C         -54.8861  -31.1405   13.0246 C.2       13 UNK         0.4989 
     24 O         -55.9176  -31.7348   13.3404 O.2       13 UNK        -0.4996 
     25 CA        -53.5256  -31.7320   13.4399 C.3       12 UNK         0.0216 
     26 CB        -53.0546  -32.7599   12.3977 C.3       12 UNK        -0.1964 
     27 N         -52.4779  -30.7222   13.6304 N.am      12 UNK        -0.4276 
     28 C         -52.5018  -29.7474   14.5508 C.2       12 UNK         0.5020 
     29 O         -53.3979  -29.6283   15.3897 O.2       12 UNK        -0.5489 
     30 CA        -51.3555  -28.7130   14.5181 C.3       11 UNK         0.0294 
     31 CB        -50.3546  -28.9097   13.3561 C.3       11 UNK        -0.2019 
     32 N         -51.8568  -27.3328   14.5217 N.am      11 UNK        -0.4493 
     33 C         -52.7517  -26.7994   13.6736 C.2       11 UNK         0.4932 
     34 O         -53.2473  -27.4240   12.7363 O.2       11 UNK        -0.5029 
     35 CA        -53.1487  -25.3194   13.8501 C.3       10 UNK         0.0280 
     36 CB        -54.6797  -25.1310   13.8809 C.3       10 UNK        -0.1976 
     37 N         -52.4860  -24.6224   14.9597 N.am      10 UNK        -0.4242 
     38 C         -52.6842  -24.7812   16.2763 C.2       10 UNK         0.5072 
     39 O         -53.5145  -25.5515   16.7608 O.2       10 UNK        -0.5224 
     40 CA        -51.7648  -23.9567   17.2027 C.3       9 UNK         0.0343 
     41 CB        -51.9044  -24.3533   18.6878 C.3       9 UNK        -0.2003 
     42 N         -50.3493  -23.9893   16.8073 N.am      9 UNK        -0.4272 
     43 C         -49.5846  -25.0711   16.5934 C.2       9 UNK         0.4988 
     44 O         -50.0038  -26.2289   16.6448 O.2       9 UNK        -0.5108 
     45 CA        -48.1090  -24.7985   16.2434 C.3       8 UNK         0.0248 
     46 CB        -47.2892  -26.0920   16.0758 C.3       8 UNK        -0.2001 
     47 N         -48.0011  -23.9940   15.0239 N.am      8 UNK        -0.4140 
     48 C         -48.1051  -22.6566   14.9770 C.2       8 UNK         0.5028 
     49 O         -48.2613  -21.9594   15.9808 O.2       8 UNK        -0.5428 
     50 CA        -48.0814  -21.9740   13.5940 C.3       7 UNK         0.0264 
     51 CB        -46.6542  -21.5202   13.2484 C.3       7 UNK        -0.1988 
     52 N         -48.5992  -22.8038   12.5028 N.am      7 UNK        -0.4454 
     53 C         -49.8234  -23.3503   12.4589 C.2       7 UNK         0.5027 
     54 O         -50.6987  -23.1193   13.2945 O.2       7 UNK        -0.5083 
     55 CA        -50.1064  -24.3754   11.3392 C.3       6 UNK         0.0844 
     56 C56       -50.9045  -23.7236   10.1827 C.3       14 UNK        -0.0967 
     57 S57       -51.4140  -24.9251    8.9070 S.3       14 UNK        -0.2604 
     58 C58       -52.8728  -25.6734    9.6996 C.3       14 UNK         0.0134 
     59 N         -48.9054  -25.0866   10.8818 N.am      6 UNK        -0.4116 
     60 C         -48.1201  -25.8485   11.6591 C.2       5 UNK         0.5034 
     61 O         -48.2918  -25.9968   12.8670 O.2       5 UNK        -0.5045 
     62 CA        -46.9162  -26.5204   10.9895 C.3       5 UNK         0.0224 
     63 CB        -47.3576  -27.7391   10.1619 C.3       5 UNK        -0.1978 
     64 N         -46.2018  -25.5643   10.1440 N.am      5 UNK        -0.4737 
     65 C         -45.2773  -24.7064   10.5976 C.2       4 UNK         0.5027 
     66 O         -44.8530  -24.7076   11.7529 O.2       4 UNK        -0.5211 
     67 CA        -44.7386  -23.6590    9.6051 C.3       4 UNK         0.0297 
     68 CB        -43.4609  -24.1747    8.9241 C.3       4 UNK        -0.1993 
     69 N         -45.7087  -23.2661    8.5792 N.am      4 UNK        -0.4486 
     70 C         -46.8551  -22.6146    8.8199 C.2       3 UNK         0.4961 
     71 O         -47.2160  -22.2477    9.9380 O.2       3 UNK        -0.5105 
     72 CA        -47.7840  -22.3830    7.6135 C.3       3 UNK         0.0299 
     73 CB        -47.3979  -21.0881    6.8814 C.3       3 UNK        -0.1972 
     74 N         -47.8379  -23.4953    6.6530 N.am      3 UNK        -0.4305 
     75 C         -48.1156  -24.7689    6.9631 C.2       2 UNK         0.5006 
     76 O         -48.2521  -25.1813    8.1176 O.2       2 UNK        -0.5106 
     77 CA        -48.2235  -25.7659    5.8076 C.3       2 UNK         0.0296 
     78 CB        -46.8249  -26.2652    5.3956 C.3       2 UNK        -0.2002 
     79 N         -49.0454  -26.8740    6.2836 N.am      2 UNK        -0.4032 
     80 C         -49.5954  -27.8426    5.5464 C.2       1 UNK         0.5000 
     81 O         -49.4717  -27.9257    4.3210 O.2       1 UNK        -0.5238 
     82 H82       -54.0116  -27.8224    4.8131 H         1 UNK         0.0889 
     83 H83       -52.4003  -27.1321    4.9644 H         1 UNK         0.0889 
     84 H84       -53.1881  -27.8827    6.3637 H         1 UNK         0.0889 
     85 H85       -50.8842  -30.5797    5.1570 H         1 UNK         0.3028 
     86 H86       -51.0374  -28.3661    7.0289 H         1 UNK         0.0864 
     87 H87       -48.8627  -29.2145    7.8586 H         1 UNK         0.0720 
     88 H88       -48.7181  -30.2843    6.4930 H         1 UNK         0.0720 
     89 H89       -49.9148  -29.7460   10.0210 H         1 UNK         0.0814 
     90 H90       -51.0150  -31.0545   10.3666 H         1 UNK         0.0814 
     91 H91       -50.9305  -27.5824    9.9661 H         1 UNK         0.1469 
     92 H92       -55.0578  -27.0875    8.9198 H         1 UNK         0.1381 
     93 H93       -53.2944  -30.9936    8.8909 H         1 UNK         0.1206 
     94 H94       -55.5343  -30.2063    7.4976 H         1 UNK         0.0813 
     95 H95       -56.4179  -28.9411    8.3148 H         1 UNK         0.0813 
     96 H96       -57.6618  -29.1683   10.5014 H         1 UNK         0.0638 
     97 H97       -57.6603  -30.5482   11.5600 H         1 UNK         0.0638 
     98 H98       -55.5631  -28.3569   11.3640 H         1 UNK         0.0568 
     99 H99       -56.6555  -27.9333   15.0634 H         1 UNK         0.3450 
    100 H100      -55.2845  -28.8559   14.4938 H         1 UNK         0.3450 
    101 H101      -53.9595  -29.5400   12.1909 H         1 UNK         0.2987 
    102 H102      -53.6676  -32.2457   14.3931 H         1 UNK         0.0766 
    103 H103      -52.9103  -32.3038   11.4174 H         1 UNK         0.0798 
    104 H104      -53.7917  -33.5552   12.2774 H         1 UNK         0.0798 
    105 H105      -52.1176  -33.2314   12.6945 H         1 UNK         0.0798 
    106 H106      -51.7070  -30.7395   12.9799 H         1 UNK         0.3198 
    107 H107      -50.8077  -28.8402   15.4530 H         1 UNK         0.0843 
    108 H108      -49.5353  -28.1970   13.4343 H         1 UNK         0.0831 
    109 H109      -50.8225  -28.7650   12.3821 H         1 UNK         0.0831 
    110 H110      -49.9021  -29.9017   13.3751 H         1 UNK         0.0831 
    111 H111      -51.5048  -26.7560   15.2783 H         1 UNK         0.3133 
    112 H112      -52.7943  -24.8114   12.9551 H         1 UNK         0.0566 
    113 H113      -55.1370  -25.5130   12.9672 H         1 UNK         0.0814 
    114 H114      -55.1392  -25.6637   14.7134 H         1 UNK         0.0814 
    115 H115      -54.9503  -24.0785   13.9621 H         1 UNK         0.0814 
    116 H116      -51.7607  -23.9744   14.6597 H         1 UNK         0.3091 
    117 H117      -52.0883  -22.9194   17.1055 H         1 UNK         0.0702 
    118 H118      -51.2807  -23.7276   19.3261 H         1 UNK         0.0785 
    119 H119      -51.6193  -25.3927   18.8554 H         1 UNK         0.0785 
    120 H120      -52.9337  -24.2380   19.0300 H         1 UNK         0.0785 
    121 H121      -49.8977  -23.0868   16.6977 H         1 UNK         0.2998 
    122 H122      -47.6745  -24.2441   17.0779 H         1 UNK         0.0697 
    123 H123      -46.2515  -25.8758   15.8216 H         1 UNK         0.0825 
    124 H124      -47.2833  -26.6698   17.0008 H         1 UNK         0.0825 
    125 H125      -47.6983  -26.7359   15.2968 H         1 UNK         0.0825 
    126 H126      -47.9562  -24.5173   14.1543 H         1 UNK         0.3029 
    127 H127      -48.7176  -21.0890   13.6598 H         1 UNK         0.0897 
    128 H128      -46.6360  -20.9337   12.3295 H         1 UNK         0.0792 
    129 H129      -46.2392  -20.8935   14.0392 H         1 UNK         0.0792 
    130 H130      -45.9826  -22.3697   13.1165 H         1 UNK         0.0792 
    131 H131      -47.9724  -22.9657   11.7207 H         1 UNK         0.3086 
    132 H132      -50.7410  -25.1395   11.7907 H         1 UNK         0.0583 
    133 H133      -51.7975  -23.2212   10.5607 H         1 UNK         0.1020 
    134 H134      -50.3056  -22.9493    9.7013 H         1 UNK         0.1020 
    135 H135      -52.8399  -25.5199   10.7757 H         1 UNK         0.0694 
    136 H136      -53.7630  -25.1535    9.3428 H         1 UNK         0.0694 
    137 H137      -48.6997  -25.0303    9.8865 H         1 UNK         0.2989 
    138 H138      -46.2477  -26.8743   11.7782 H         1 UNK         0.1055 
    139 H139      -48.0720  -27.4707    9.3847 H         1 UNK         0.0806 
    140 H140      -47.8353  -28.4845   10.7990 H         1 UNK         0.0806 
    141 H141      -46.5061  -28.2217    9.6821 H         1 UNK         0.0806 
    142 H142      -46.5551  -25.4460    9.2014 H         1 UNK         0.3061 
    143 H143      -44.4839  -22.7662   10.1805 H         1 UNK         0.0734 
    144 H144      -43.0161  -23.4132    8.2833 H         1 UNK         0.0832 
    145 H145      -42.7092  -24.4505    9.6651 H         1 UNK         0.0832 
    146 H146      -43.6556  -25.0579    8.3143 H         1 UNK         0.0832 
    147 H147      -45.5045  -23.5347    7.6278 H         1 UNK         0.3156 
    148 H148      -48.7942  -22.2558    8.0058 H         1 UNK         0.0589 
    149 H149      -46.4137  -21.1630    6.4173 H         1 UNK         0.0808 
    150 H150      -48.1195  -20.8410    6.1025 H         1 UNK         0.0808 
    151 H151      -47.3692  -20.2433    7.5714 H         1 UNK         0.0808 
    152 H152      -47.7198  -23.2524    5.6795 H         1 UNK         0.3098 
    153 H153      -48.7208  -25.2858    4.9624 H         1 UNK         0.0720 
    154 H154      -46.1915  -25.4392    5.0701 H         1 UNK         0.0791 
    155 H155      -46.3161  -26.7624    6.2227 H         1 UNK         0.0791 
    156 H156      -46.8796  -26.9706    4.5664 H         1 UNK         0.0791 
    157 H157      -49.2129  -26.8313    7.2822 H         1 UNK         0.3028 
@<TRIPOS>BOND
     1    1    2 1    
     2    1   82 1    
     3    1   83 1    
     4    1   84 1    
     5    2    3 2    
     6    2    4 am   BACKBONE|DICT|INTERRES
     7    4    5 1    
     8    4   85 1    
     9    5    6 1    
    10    5   80 1    
    11    5   86 1    
    12    6    7 1    
    13    6   87 1    
    14    6   88 1    
    15    7    8 1    
    16    8    9 1    
    17    8   89 1    
    18    8   90 1    
    19    9   10 ar   
    20    9   14 ar   
    21   10   11 ar   
    22   10   91 1    
    23   11   12 ar   
    24   11   58 1    
    25   12   13 ar   
    26   12   92 1    
    27   13   14 ar   
    28   13   15 1    
    29   14   93 1    
    30   15   16 1    
    31   15   94 1    
    32   15   95 1    
    33   16   17 1    
    34   17   18 1    
    35   17   96 1    
    36   17   97 1    
    37   18   19 1    
    38   18   22 1    
    39   18   98 1    
    40   19   20 am   BACKBONE|DICT|INTERRES
    41   19   21 2    
    42   20   99 1    
    43   20  100 1    
    44   22   23 am   BACKBONE|DICT|INTERRES
    45   22  101 1    
    46   23   24 2    
    47   23   25 1    
    48   25   26 1    
    49   25   27 1    
    50   25  102 1    
    51   26  103 1    
    52   26  104 1    
    53   26  105 1    
    54   27   28 am   BACKBONE|DICT|INTERRES
    55   27  106 1    
    56   28   29 2    
    57   28   30 1    
    58   30   31 1    
    59   30   32 1    
    60   30  107 1    
    61   31  108 1    
    62   31  109 1    
    63   31  110 1    
    64   32   33 am   BACKBONE|DICT|INTERRES
    65   32  111 1    
    66   33   34 2    
    67   33   35 1    
    68   35   36 1    
    69   35   37 1    
    70   35  112 1    
    71   36  113 1    
    72   36  114 1    
    73   36  115 1    
    74   37   38 am   BACKBONE|DICT|INTERRES
    75   37  116 1    
    76   38   39 2    
    77   38   40 1    
    78   40   41 1    
    79   40   42 1    
    80   40  117 1    
    81   41  118 1    
    82   41  119 1    
    83   41  120 1    
    84   42   43 am   BACKBONE|DICT|INTERRES
    85   42  121 1    
    86   43   44 2    
    87   43   45 1    
    88   45   46 1    
    89   45   47 1    
    90   45  122 1    
    91   46  123 1    
    92   46  124 1    
    93   46  125 1    
    94   47   48 am   BACKBONE|DICT|INTERRES
    95   47  126 1    
    96   48   49 2    
    97   48   50 1    
    98   50   51 1    
    99   50   52 1    
   100   50  127 1    
   101   51  128 1    
   102   51  129 1    
   103   51  130 1    
   104   52   53 am   BACKBONE|DICT|INTERRES
   105   52  131 1    
   106   53   54 2    
   107   53   55 1    
   108   55   56 1    
   109   55   59 1    
   110   55  132 1    
   111   56   57 1    
   112   56  133 1    
   113   56  134 1    
   114   57   58 1    
   115   58  135 1    
   116   58  136 1    
   117   59   60 am   BACKBONE|DICT|INTERRES
   118   59  137 1    
   119   60   61 2    
   120   60   62 1    
   121   62   63 1    
   122   62   64 1    
   123   62  138 1    
   124   63  139 1    
   125   63  140 1    
   126   63  141 1    
   127   64   65 am   BACKBONE|DICT|INTERRES
   128   64  142 1    
   129   65   66 2    
   130   65   67 1    
   131   67   68 1    
   132   67   69 1    
   133   67  143 1    
   134   68  144 1    
   135   68  145 1    
   136   68  146 1    
   137   69   70 am   BACKBONE|DICT|INTERRES
   138   69  147 1    
   139   70   71 2    
   140   70   72 1    
   141   72   73 1    
   142   72   74 1    
   143   72  148 1    
   144   73  149 1    
   145   73  150 1    
   146   73  151 1    
   147   74   75 am   BACKBONE|DICT|INTERRES
   148   74  152 1    
   149   75   76 2    
   150   75   77 1    
   151   77   78 1    
   152   77   79 1    
   153   77  153 1    
   154   78  154 1    
   155   78  155 1    
   156   78  156 1    
   157   79   80 am   BACKBONE|DICT|INTERRES
   158   79  157 1    
   159   80   81 2    
@<TRIPOS>SUBSTRUCTURE
     1 UNK         1 GROUP             0       ****    0 ROOT    
