@<TRIPOS>MOLECULE
3R207
157   159    1
SMALL
USER_CHARGES


@<TRIPOS>ATOM
      1 CA        -44.7221  -29.5228    9.2318 C.3       0 UNK        -0.1975 
      2 C         -45.2620  -29.8341    7.8437 C.2       0 UNK         0.4852 
      3 O         -44.5099  -29.7880    6.8700 O.2       0 UNK        -0.5216 
      4 N         -46.5611  -30.1493    7.7470 N.am      1 UNK        -0.4461 
      5 CA        -47.2739  -30.4518    6.4975 C.3       1 UNK         0.0864 
      6 C6        -48.6321  -31.1489    6.7672 C.3       14 UNK        -0.0898 
      7 S7        -49.7157  -30.2363    7.9202 S.3       14 UNK        -0.2598 
      8 C8        -51.0926  -29.7831    6.8257 C.3       14 UNK         0.0286 
      9 C9        -52.0529  -28.8265    7.5154 C.ar      14 UNK        -0.0844 
     10 C10       -52.0365  -27.4664    7.1977 C.ar      14 UNK        -0.0881 
     11 C11       -52.9302  -26.5791    7.8078 C.ar      14 UNK        -0.0643 
     12 C12       -53.8509  -27.0688    8.7386 C.ar      14 UNK        -0.0930 
     13 C13       -53.8773  -28.4282    9.0692 C.ar      14 UNK        -0.0827 
     14 C14       -52.9731  -29.3010    8.4546 C.ar      14 UNK        -0.1249 
     15 C15       -54.8973  -28.9653   10.0651 C.3       14 UNK         0.0141 
     16 S16       -54.5106  -28.4661   11.7720 S.3       14 UNK        -0.2313 
     17 C17       -55.5050  -26.9385   11.9528 C.3       14 UNK        -0.0915 
     18 CA        -56.6589  -27.0676   12.9827 C.3       13 UNK         0.0968 
     19 C         -57.7542  -28.0693   12.5033 C.2       13 UNK         0.5732 
     20 N         -57.9508  -29.2156   13.1455 N.am      13 UNK        -0.7310 
     21 O         -58.4455  -27.7919   11.5259 O.2       13 UNK        -0.5035 
     22 N         -56.1305  -27.2954   14.3331 N.am      13 UNK        -0.4233 
     23 C         -56.8360  -27.2665   15.4695 C.2       13 UNK         0.4989 
     24 O         -58.0124  -26.9037   15.5337 O.2       13 UNK        -0.4996 
     25 CA        -56.1038  -27.7458   16.7424 C.3       12 UNK         0.0216 
     26 CB        -57.0775  -28.1388   17.8731 C.3       12 UNK        -0.1964 
     27 N         -55.1485  -28.8375   16.4977 N.am      12 UNK        -0.4276 
     28 C         -55.3736  -30.0102   15.8851 C.2       12 UNK         0.5020 
     29 O         -56.4727  -30.3459   15.4382 O.2       12 UNK        -0.5489 
     30 CA        -54.1565  -30.9451   15.7126 C.3       11 UNK         0.0294 
     31 CB        -54.4656  -32.1521   14.8068 C.3       11 UNK        -0.2019 
     32 N         -52.9891  -30.2413   15.1720 N.am      11 UNK        -0.4493 
     33 C         -52.1522  -29.4656   15.8728 C.2       11 UNK         0.4932 
     34 O         -52.2622  -29.2796   17.0860 O.2       11 UNK        -0.5029 
     35 CA        -51.0384  -28.7300   15.1016 C.3       10 UNK         0.0280 
     36 CB        -50.9230  -29.1260   13.6121 C.3       10 UNK        -0.1976 
     37 N         -51.1642  -27.2736   15.2244 N.am      10 UNK        -0.4242 
     38 C         -52.2376  -26.5183   14.9468 C.2       10 UNK         0.5072 
     39 O         -53.3225  -26.9786   14.5944 O.2       10 UNK        -0.5224 
     40 CA        -52.1078  -24.9886   15.0711 C.3       9 UNK         0.0343 
     41 CB        -52.7362  -24.4831   16.3845 C.3       9 UNK        -0.2003 
     42 N         -50.7524  -24.4553   14.8729 N.am      9 UNK        -0.4272 
     43 C         -49.6664  -24.5887   15.6485 C.2       9 UNK         0.4988 
     44 O         -49.6646  -25.2186   16.7064 O.2       9 UNK        -0.5108 
     45 CA        -48.3401  -23.9775   15.1533 C.3       8 UNK         0.0248 
     46 CB        -47.2846  -25.0800   14.9614 C.3       8 UNK        -0.2001 
     47 N         -48.4603  -23.2122   13.9080 N.am      8 UNK        -0.4140 
     48 C         -48.9862  -21.9829   13.8133 C.2       8 UNK         0.5028 
     49 O         -49.3827  -21.3320   14.7805 O.2       8 UNK        -0.5428 
     50 CA        -49.1266  -21.3919   12.4001 C.3       7 UNK         0.0264 
     51 CB        -47.8048  -20.7524   11.9457 C.3       7 UNK        -0.1988 
     52 N         -49.5635  -22.3706   11.4002 N.am      7 UNK        -0.4454 
     53 C         -50.7442  -23.0110   11.4031 C.2       7 UNK         0.5027 
     54 O         -51.6146  -22.8428   12.2574 O.2       7 UNK        -0.5083 
     55 CA        -50.9649  -24.0437   10.2775 C.3       6 UNK         0.0844 
     56 C56       -51.3135  -23.3176    8.9507 C.3       14 UNK        -0.0967 
     57 S57       -51.2766  -24.3670    7.4601 S.3       14 UNK        -0.2604 
     58 C58       -52.9405  -25.1048    7.4213 C.3       14 UNK         0.0134 
     59 N         -49.8172  -24.9508   10.1802 N.am      6 UNK        -0.4116 
     60 C         -49.4220  -25.7819   11.1573 C.2       5 UNK         0.5034 
     61 O         -50.0243  -25.9363   12.2180 O.2       5 UNK        -0.5045 
     62 CA        -48.0999  -26.5290   10.9430 C.3       5 UNK         0.0224 
     63 CB        -48.3410  -27.8576   10.2141 C.3       5 UNK        -0.1978 
     64 N         -47.1293  -25.7167   10.2060 N.am      5 UNK        -0.4737 
     65 C         -46.4733  -24.6738   10.7345 C.2       4 UNK         0.5027 
     66 O         -46.5921  -24.3190   11.9061 O.2       4 UNK        -0.5211 
     67 CA        -45.5658  -23.8632    9.7925 C.3       4 UNK         0.0297 
     68 CB        -44.1752  -24.5106    9.7002 C.3       4 UNK        -0.1993 
     69 N         -46.1235  -23.7071    8.4471 N.am      4 UNK        -0.4486 
     70 C         -47.2721  -23.0756    8.1677 C.2       3 UNK         0.4961 
     71 O         -47.9571  -22.4993    9.0131 O.2       3 UNK        -0.5105 
     72 CA        -47.7653  -23.1275    6.7094 C.3       3 UNK         0.0299 
     73 CB        -47.2257  -21.9194    5.9277 C.3       3 UNK        -0.1972 
     74 N         -47.4535  -24.3616    5.9711 N.am      3 UNK        -0.4305 
     75 C         -47.6626  -25.6224    6.3815 C.2       2 UNK         0.5006 
     76 O         -48.0849  -25.9196    7.5012 O.2       2 UNK        -0.5106 
     77 CA        -47.3083  -26.7409    5.3890 C.3       2 UNK         0.0296 
     78 CB        -45.9227  -26.5301    4.7389 C.3       2 UNK        -0.2002 
     79 N         -47.3341  -28.0179    6.0981 N.am      2 UNK        -0.4032 
     80 C         -47.4128  -29.2364    5.5496 C.2       1 UNK         0.5000 
     81 O         -47.5597  -29.4310    4.3411 O.2       1 UNK        -0.5238 
     82 H82       -45.3979  -29.8627   10.0163 H         1 UNK         0.0889 
     83 H83       -44.5752  -28.4490    9.3459 H         1 UNK         0.0889 
     84 H84       -43.7622  -30.0163    9.3817 H         1 UNK         0.0889 
     85 H85       -47.1332  -30.1863    8.5790 H         1 UNK         0.3028 
     86 H86       -46.6552  -31.1704    5.9550 H         1 UNK         0.0864 
     87 H87       -49.1579  -31.3494    5.8315 H         1 UNK         0.0720 
     88 H88       -48.4477  -32.1301    7.2073 H         1 UNK         0.0720 
     89 H89       -50.6968  -29.3324    5.9139 H         1 UNK         0.0814 
     90 H90       -51.6255  -30.6848    6.5202 H         1 UNK         0.0814 
     91 H91       -51.3287  -27.0949    6.4691 H         1 UNK         0.1469 
     92 H92       -54.5538  -26.3903    9.1989 H         1 UNK         0.1381 
     93 H93       -52.9863  -30.3542    8.7005 H         1 UNK         0.1206 
     94 H94       -55.9007  -28.6390    9.7881 H         1 UNK         0.0813 
     95 H95       -54.9200  -30.0555   10.0294 H         1 UNK         0.0813 
     96 H96       -55.9050  -26.6283   10.9875 H         1 UNK         0.0638 
     97 H97       -54.8282  -26.1386   12.2574 H         1 UNK         0.0638 
     98 H98       -57.1568  -26.0973   13.0204 H         1 UNK         0.0568 
     99 H99       -57.3867  -29.4708   13.9512 H         1 UNK         0.3450 
    100 H100      -58.6666  -29.8439   12.8195 H         1 UNK         0.3450 
    101 H101      -55.1397  -27.5201   14.3809 H         1 UNK         0.2987 
    102 H102      -55.5142  -26.8957   17.0885 H         1 UNK         0.0766 
    103 H103      -57.7169  -27.3002   18.1519 H         1 UNK         0.0798 
    104 H104      -56.5404  -28.4459   18.7705 H         1 UNK         0.0798 
    105 H105      -57.7288  -28.9610   17.5741 H         1 UNK         0.0798 
    106 H106      -54.1933  -28.6652   16.7960 H         1 UNK         0.3198 
    107 H107      -53.9083  -31.3290   16.7044 H         1 UNK         0.0843 
    108 H108      -55.2920  -32.7408   15.2074 H         1 UNK         0.0831 
    109 H109      -53.6071  -32.8188   14.7248 H         1 UNK         0.0831 
    110 H110      -54.7467  -31.8384   13.8004 H         1 UNK         0.0831 
    111 H111      -52.8703  -30.2750   14.1694 H         1 UNK         0.3133 
    112 H112      -50.1012  -29.0013   15.5891 H         1 UNK         0.0566 
    113 H113      -50.0645  -28.6388   13.1498 H         1 UNK         0.0814 
    114 H114      -50.7798  -30.2006   13.4921 H         1 UNK         0.0814 
    115 H115      -51.8035  -28.8345   13.0389 H         1 UNK         0.0814 
    116 H116      -50.3633  -26.7878   15.6109 H         1 UNK         0.3091 
    117 H117      -52.6949  -24.5739   14.2502 H         1 UNK         0.0702 
    118 H118      -52.2318  -24.8881   17.2621 H         1 UNK         0.0785 
    119 H119      -53.7840  -24.7792   16.4503 H         1 UNK         0.0785 
    120 H120      -52.7018  -23.3955   16.4472 H         1 UNK         0.0785 
    121 H121      -50.6288  -23.9719   13.9919 H         1 UNK         0.2998 
    122 H122      -47.9862  -23.3039   15.9365 H         1 UNK         0.0697 
    123 H123      -47.5902  -25.7982   14.2001 H         1 UNK         0.0825 
    124 H124      -47.1186  -25.6344   15.8861 H         1 UNK         0.0825 
    125 H125      -46.3236  -24.6618   14.6614 H         1 UNK         0.0825 
    126 H126      -48.0837  -23.6493   13.0714 H         1 UNK         0.3029 
    127 H127      -49.8865  -20.6088   12.4463 H         1 UNK         0.0897 
    128 H128      -47.9148  -20.2588   10.9799 H         1 UNK         0.0792 
    129 H129      -47.4689  -19.9989   12.6593 H         1 UNK         0.0792 
    130 H130      -47.0095  -21.4929   11.8524 H         1 UNK         0.0792 
    131 H131      -48.9231  -22.5423   10.6267 H         1 UNK         0.3086 
    132 H132      -51.8258  -24.6569   10.5534 H         1 UNK         0.0583 
    133 H133      -52.2917  -22.8397    9.0293 H         1 UNK         0.1020 
    134 H134      -50.6115  -22.5032    8.7621 H         1 UNK         0.1020 
    135 H135      -53.6175  -24.5360    8.0599 H         1 UNK         0.0694 
    136 H136      -53.3324  -25.0190    6.4071 H         1 UNK         0.0694 
    137 H137      -49.2826  -24.9176    9.3218 H         1 UNK         0.2989 
    138 H138      -47.6824  -26.7546   11.9267 H         1 UNK         0.1055 
    139 H139      -49.0108  -28.4997   10.7877 H         1 UNK         0.0806 
    140 H140      -47.4111  -28.4043   10.0707 H         1 UNK         0.0806 
    141 H141      -48.8035  -27.7057    9.2389 H         1 UNK         0.0806 
    142 H142      -47.0823  -25.8681    9.2037 H         1 UNK         0.3061 
    143 H143      -45.4519  -22.8658   10.2225 H         1 UNK         0.0734 
    144 H144      -43.7312  -24.6203   10.6907 H         1 UNK         0.0832 
    145 H145      -44.2188  -25.5039    9.2516 H         1 UNK         0.0832 
    146 H146      -43.4919  -23.9024    9.1072 H         1 UNK         0.0832 
    147 H147      -45.6279  -24.1517    7.6885 H         1 UNK         0.3156 
    148 H148      -48.8510  -23.0412    6.7377 H         1 UNK         0.0589 
    149 H149      -46.1420  -21.9641    5.8115 H         1 UNK         0.0808 
    150 H150      -47.6693  -21.8575    4.9338 H         1 UNK         0.0808 
    151 H151      -47.4600  -20.9855    6.4412 H         1 UNK         0.0808 
    152 H152      -47.0921  -24.2305    5.0375 H         1 UNK         0.3098 
    153 H153      -48.0791  -26.7519    4.6160 H         1 UNK         0.0720 
    154 H154      -45.6654  -27.3540    4.0731 H         1 UNK         0.0791 
    155 H155      -45.1347  -26.4570    5.4898 H         1 UNK         0.0791 
    156 H156      -45.8913  -25.6229    4.1351 H         1 UNK         0.0791 
    157 H157      -47.3151  -27.9337    7.1057 H         1 UNK         0.3028 
@<TRIPOS>BOND
     1    1    2 1    
     2    1   82 1    
     3    1   83 1    
     4    1   84 1    
     5    2    3 2    
     6    2    4 am   BACKBONE|DICT|INTERRES
     7    4    5 1    
     8    4   85 1    
     9    5    6 1    
    10    5   80 1    
    11    5   86 1    
    12    6    7 1    
    13    6   87 1    
    14    6   88 1    
    15    7    8 1    
    16    8    9 1    
    17    8   89 1    
    18    8   90 1    
    19    9   10 ar   
    20    9   14 ar   
    21   10   11 ar   
    22   10   91 1    
    23   11   12 ar   
    24   11   58 1    
    25   12   13 ar   
    26   12   92 1    
    27   13   14 ar   
    28   13   15 1    
    29   14   93 1    
    30   15   16 1    
    31   15   94 1    
    32   15   95 1    
    33   16   17 1    
    34   17   18 1    
    35   17   96 1    
    36   17   97 1    
    37   18   19 1    
    38   18   22 1    
    39   18   98 1    
    40   19   20 am   BACKBONE|DICT|INTERRES
    41   19   21 2    
    42   20   99 1    
    43   20  100 1    
    44   22   23 am   BACKBONE|DICT|INTERRES
    45   22  101 1    
    46   23   24 2    
    47   23   25 1    
    48   25   26 1    
    49   25   27 1    
    50   25  102 1    
    51   26  103 1    
    52   26  104 1    
    53   26  105 1    
    54   27   28 am   BACKBONE|DICT|INTERRES
    55   27  106 1    
    56   28   29 2    
    57   28   30 1    
    58   30   31 1    
    59   30   32 1    
    60   30  107 1    
    61   31  108 1    
    62   31  109 1    
    63   31  110 1    
    64   32   33 am   BACKBONE|DICT|INTERRES
    65   32  111 1    
    66   33   34 2    
    67   33   35 1    
    68   35   36 1    
    69   35   37 1    
    70   35  112 1    
    71   36  113 1    
    72   36  114 1    
    73   36  115 1    
    74   37   38 am   BACKBONE|DICT|INTERRES
    75   37  116 1    
    76   38   39 2    
    77   38   40 1    
    78   40   41 1    
    79   40   42 1    
    80   40  117 1    
    81   41  118 1    
    82   41  119 1    
    83   41  120 1    
    84   42   43 am   BACKBONE|DICT|INTERRES
    85   42  121 1    
    86   43   44 2    
    87   43   45 1    
    88   45   46 1    
    89   45   47 1    
    90   45  122 1    
    91   46  123 1    
    92   46  124 1    
    93   46  125 1    
    94   47   48 am   BACKBONE|DICT|INTERRES
    95   47  126 1    
    96   48   49 2    
    97   48   50 1    
    98   50   51 1    
    99   50   52 1    
   100   50  127 1    
   101   51  128 1    
   102   51  129 1    
   103   51  130 1    
   104   52   53 am   BACKBONE|DICT|INTERRES
   105   52  131 1    
   106   53   54 2    
   107   53   55 1    
   108   55   56 1    
   109   55   59 1    
   110   55  132 1    
   111   56   57 1    
   112   56  133 1    
   113   56  134 1    
   114   57   58 1    
   115   58  135 1    
   116   58  136 1    
   117   59   60 am   BACKBONE|DICT|INTERRES
   118   59  137 1    
   119   60   61 2    
   120   60   62 1    
   121   62   63 1    
   122   62   64 1    
   123   62  138 1    
   124   63  139 1    
   125   63  140 1    
   126   63  141 1    
   127   64   65 am   BACKBONE|DICT|INTERRES
   128   64  142 1    
   129   65   66 2    
   130   65   67 1    
   131   67   68 1    
   132   67   69 1    
   133   67  143 1    
   134   68  144 1    
   135   68  145 1    
   136   68  146 1    
   137   69   70 am   BACKBONE|DICT|INTERRES
   138   69  147 1    
   139   70   71 2    
   140   70   72 1    
   141   72   73 1    
   142   72   74 1    
   143   72  148 1    
   144   73  149 1    
   145   73  150 1    
   146   73  151 1    
   147   74   75 am   BACKBONE|DICT|INTERRES
   148   74  152 1    
   149   75   76 2    
   150   75   77 1    
   151   77   78 1    
   152   77   79 1    
   153   77  153 1    
   154   78  154 1    
   155   78  155 1    
   156   78  156 1    
   157   79   80 am   BACKBONE|DICT|INTERRES
   158   79  157 1    
   159   80   81 2    
@<TRIPOS>SUBSTRUCTURE
     1 UNK         1 GROUP             0       ****    0 ROOT    
