@<TRIPOS>MOLECULE
3R207
157   159    1
SMALL
USER_CHARGES


@<TRIPOS>ATOM
      1 CA        -46.7281  -32.2221    3.4016 C.3       0 UNK        -0.1975 
      2 C         -47.5995  -31.2844    4.2235 C.2       0 UNK         0.4852 
      3 O         -47.4119  -31.1845    5.4370 O.2       0 UNK        -0.5216 
      4 N         -48.5405  -30.5868    3.5701 N.am      1 UNK        -0.4461 
      5 CA        -49.5093  -29.6316    4.1311 C.3       1 UNK         0.0864 
      6 C6        -50.4166  -30.2559    5.2245 C.3       14 UNK        -0.0898 
      7 S7        -51.9829  -29.3491    5.4353 S.3       14 UNK        -0.2598 
      8 C8        -51.7757  -28.7287    7.1308 C.3       14 UNK         0.0286 
      9 C9        -52.8961  -27.7764    7.5114 C.ar      14 UNK        -0.0844 
     10 C10       -52.6594  -26.4006    7.5772 C.ar      14 UNK        -0.0881 
     11 C11       -53.6799  -25.5252    7.9611 C.ar      14 UNK        -0.0643 
     12 C12       -54.9429  -26.0354    8.2731 C.ar      14 UNK        -0.0930 
     13 C13       -55.1942  -27.4091    8.2071 C.ar      14 UNK        -0.0827 
     14 C14       -54.1663  -28.2736    7.8164 C.ar      14 UNK        -0.1249 
     15 C15       -56.5765  -27.9418    8.5743 C.3       14 UNK         0.0141 
     16 S16       -56.5496  -29.3561    9.7303 S.3       14 UNK        -0.2313 
     17 C17       -55.4596  -28.7601   11.0704 C.3       14 UNK        -0.0915 
     18 CA        -54.5805  -29.8674   11.7080 C.3       13 UNK         0.0968 
     19 C         -53.5831  -30.5266   10.7112 C.2       13 UNK         0.5732 
     20 N         -52.3172  -30.1303   10.6873 N.am      13 UNK        -0.7310 
     21 O         -53.9495  -31.4429    9.9793 O.2       13 UNK        -0.5035 
     22 N         -53.9202  -29.3386   12.9052 N.am      13 UNK        -0.4233 
     23 C         -53.5760  -30.0569   13.9795 C.2       13 UNK         0.4989 
     24 O         -53.7877  -31.2650   14.0943 O.2       13 UNK        -0.4996 
     25 CA        -52.8930  -29.3019   15.1368 C.3       12 UNK         0.0216 
     26 CB        -51.3966  -29.6460   15.1964 C.3       12 UNK        -0.1964 
     27 N         -53.0567  -27.8436   15.0730 N.am      12 UNK        -0.4276 
     28 C         -54.2153  -27.1975   15.2702 C.2       12 UNK         0.5020 
     29 O         -55.2708  -27.7574   15.5727 O.2       12 UNK        -0.5489 
     30 CA        -54.1695  -25.6724   15.0794 C.3       11 UNK         0.0294 
     31 CB        -55.5446  -24.9869   15.2316 C.3       11 UNK        -0.2019 
     32 N         -53.1575  -25.0516   15.9404 N.am      11 UNK        -0.4493 
     33 C         -53.1533  -24.9910   17.2821 C.2       11 UNK         0.4932 
     34 O         -54.0508  -25.4363   17.9989 O.2       11 UNK        -0.5029 
     35 CA        -51.9363  -24.2958   17.9244 C.3       10 UNK         0.0280 
     36 CB        -51.8155  -24.5558   19.4418 C.3       10 UNK        -0.1976 
     37 N         -50.6769  -24.5956   17.2330 N.am      10 UNK        -0.4242 
     38 C         -50.0924  -25.7978   17.0966 C.2       10 UNK         0.5072 
     39 O         -50.5421  -26.8322   17.5907 O.2       10 UNK        -0.5224 
     40 CA        -48.8016  -25.8675   16.2578 C.3       9 UNK         0.0343 
     41 CB        -48.7279  -27.1673   15.4377 C.3       9 UNK        -0.2003 
     42 N         -48.6911  -24.7259   15.3472 N.am      9 UNK        -0.4272 
     43 C         -47.8479  -23.6938   15.4934 C.2       9 UNK         0.4988 
     44 O         -46.9971  -23.6240   16.3808 O.2       9 UNK        -0.5108 
     45 CA        -47.9935  -22.5151   14.5084 C.3       8 UNK         0.0248 
     46 CB        -46.9886  -22.6568   13.3557 C.3       8 UNK        -0.2001 
     47 N         -49.3399  -22.3636   13.9473 N.am      8 UNK        -0.4140 
     48 C         -50.4570  -22.1378   14.6544 C.2       8 UNK         0.5028 
     49 O         -50.4694  -21.9638   15.8726 O.2       8 UNK        -0.5428 
     50 CA        -51.7945  -22.1920   13.8920 C.3       7 UNK         0.0264 
     51 CB        -52.2276  -20.7799   13.4691 C.3       7 UNK        -0.1988 
     52 N         -51.7823  -23.0669   12.7124 N.am      7 UNK        -0.4454 
     53 C         -51.4592  -24.3687   12.6906 C.2       7 UNK         0.5027 
     54 O         -51.1633  -24.9979   13.7120 O.2       7 UNK        -0.5083 
     55 CA        -51.4461  -25.0720   11.3126 C.3       6 UNK         0.0844 
     56 C56       -51.4968  -24.1014   10.0990 C.3       14 UNK        -0.0967 
     57 S57       -53.1699  -23.4646    9.7471 S.3       14 UNK        -0.2604 
     58 C58       -53.4303  -24.0264    8.0341 C.3       14 UNK         0.0134 
     59 N         -50.2673  -25.9327   11.2234 N.am      6 UNK        -0.4116 
     60 C         -50.1987  -27.2168   11.5988 C.2       5 UNK         0.5034 
     61 O         -51.1588  -27.8496   12.0456 O.2       5 UNK        -0.5045 
     62 CA        -48.8418  -27.9329   11.4332 C.3       5 UNK         0.0224 
     63 CB        -48.9885  -29.1979   10.5717 C.3       5 UNK        -0.1978 
     64 N         -47.8177  -27.0794   10.8215 N.am      5 UNK        -0.4737 
     65 C         -46.8865  -26.3909   11.4988 C.2       4 UNK         0.5027 
     66 O         -46.7619  -26.4298   12.7200 O.2       4 UNK        -0.5211 
     67 CA        -45.9364  -25.4867   10.6890 C.3       4 UNK         0.0297 
     68 CB        -44.6139  -26.2201   10.4139 C.3       4 UNK        -0.1993 
     69 N         -46.4950  -25.0184    9.4193 N.am      4 UNK        -0.4486 
     70 C         -47.6287  -24.3190    9.2686 C.2       3 UNK         0.4961 
     71 O         -48.3049  -23.9058   10.2102 O.2       3 UNK        -0.5105 
     72 CA        -48.1275  -24.1032    7.8271 C.3       3 UNK         0.0299 
     73 CB        -47.7986  -22.6792    7.3540 C.3       3 UNK        -0.1972 
     74 N         -47.5925  -25.0763    6.8649 N.am      3 UNK        -0.4305 
     75 C         -47.8124  -26.3990    6.9025 C.2       2 UNK         0.5006 
     76 O         -48.5108  -26.9571    7.7528 O.2       2 UNK        -0.5106 
     77 CA        -47.0307  -27.2391    5.8814 C.3       2 UNK         0.0296 
     78 CB        -45.7292  -27.7606    6.5133 C.3       2 UNK        -0.2002 
     79 N         -47.8045  -28.3764    5.3892 N.am      2 UNK        -0.4032 
     80 C         -48.8631  -28.2988    4.5746 C.2       1 UNK         0.5000 
     81 O         -49.3038  -27.2352    4.1336 O.2       1 UNK        -0.5238 
     82 H82       -46.9991  -32.2122    2.3461 H         1 UNK         0.0889 
     83 H83       -46.8287  -33.2434    3.7679 H         1 UNK         0.0889 
     84 H84       -45.6814  -31.9312    3.4862 H         1 UNK         0.0889 
     85 H85       -48.6077  -30.7029    2.5678 H         1 UNK         0.3028 
     86 H86       -50.1521  -29.3835    3.2844 H         1 UNK         0.0864 
     87 H87       -50.6822  -31.2761    4.9434 H         1 UNK         0.0720 
     88 H88       -49.8905  -30.3407    6.1771 H         1 UNK         0.0720 
     89 H89       -50.8079  -28.2335    7.2215 H         1 UNK         0.0814 
     90 H90       -51.7595  -29.5699    7.8250 H         1 UNK         0.0814 
     91 H91       -51.6788  -26.0147    7.3335 H         1 UNK         0.1469 
     92 H92       -55.7285  -25.3563    8.5755 H         1 UNK         0.1381 
     93 H93       -54.3484  -29.3387    7.7662 H         1 UNK         0.1206 
     94 H94       -57.0895  -28.2452    7.6610 H         1 UNK         0.0813 
     95 H95       -57.1846  -27.1533    9.0204 H         1 UNK         0.0813 
     96 H96       -56.1073  -28.3223   11.8316 H         1 UNK         0.0638 
     97 H97       -54.8247  -27.9454   10.7219 H         1 UNK         0.0638 
     98 H98       -55.2571  -30.6615   12.0299 H         1 UNK         0.0568 
     99 H99       -51.9971  -29.3653   11.2730 H         1 UNK         0.3450 
    100 H100      -51.6789  -30.5905   10.0616 H         1 UNK         0.3450 
    101 H101      -53.6382  -28.3710   12.8705 H         1 UNK         0.2987 
    102 H102      -53.3566  -29.6491   16.0625 H         1 UNK         0.0766 
    103 H103      -50.9266  -29.1992   16.0721 H         1 UNK         0.0798 
    104 H104      -50.8646  -29.3017   14.3093 H         1 UNK         0.0798 
    105 H105      -51.2454  -30.7240   15.2671 H         1 UNK         0.0798 
    106 H106      -52.2367  -27.3047   14.8285 H         1 UNK         0.3198 
    107 H107      -53.8486  -25.5064   14.0507 H         1 UNK         0.0843 
    108 H108      -55.4729  -23.9124   15.0641 H         1 UNK         0.0831 
    109 H109      -55.9758  -25.1454   16.2203 H         1 UNK         0.0831 
    110 H110      -56.2556  -25.3818   14.5049 H         1 UNK         0.0831 
    111 H111      -52.3309  -24.7261   15.4530 H         1 UNK         0.3133 
    112 H112      -52.1019  -23.2256   17.7926 H         1 UNK         0.0566 
    113 H113      -50.9537  -24.0403   19.8655 H         1 UNK         0.0814 
    114 H114      -52.6987  -24.1959   19.9708 H         1 UNK         0.0814 
    115 H115      -51.7154  -25.6182   19.6658 H         1 UNK         0.0814 
    116 H116      -50.2426  -23.7958   16.7832 H         1 UNK         0.3091 
    117 H117      -47.9714  -25.8723   16.9665 H         1 UNK         0.0702 
    118 H118      -48.8019  -28.0470   16.0775 H         1 UNK         0.0785 
    119 H119      -47.7771  -27.2449   14.9138 H         1 UNK         0.0785 
    120 H120      -49.5277  -27.2217   14.6989 H         1 UNK         0.0785 
    121 H121      -49.3791  -24.6981   14.6016 H         1 UNK         0.2998 
    122 H122      -47.7610  -21.6009   15.0583 H         1 UNK         0.0697 
    123 H123      -47.2132  -23.5305   12.7446 H         1 UNK         0.0825 
    124 H124      -45.9709  -22.7722   13.7313 H         1 UNK         0.0825 
    125 H125      -46.9978  -21.7815   12.7060 H         1 UNK         0.0825 
    126 H126      -49.4280  -22.4927   12.9497 H         1 UNK         0.3029 
    127 H127      -52.5451  -22.5823   14.5815 H         1 UNK         0.0897 
    128 H128      -53.2204  -20.7869   13.0186 H         1 UNK         0.0792 
    129 H129      -52.2701  -20.1104   14.3296 H         1 UNK         0.0792 
    130 H130      -51.5344  -20.3424   12.7495 H         1 UNK         0.0792 
    131 H131      -52.0623  -22.6439   11.8368 H         1 UNK         0.3086 
    132 H132      -52.3357  -25.7044   11.2742 H         1 UNK         0.0583 
    133 H133      -50.8102  -23.2611   10.2151 H         1 UNK         0.1020 
    134 H134      -51.1418  -24.6239    9.2114 H         1 UNK         0.1020 
    135 H135      -54.2896  -23.4972    7.6195 H         1 UNK         0.0694 
    136 H136      -52.5751  -23.7423    7.4185 H         1 UNK         0.0694 
    137 H137      -49.4171  -25.4768   10.9132 H         1 UNK         0.2989 
    138 H138      -48.5198  -28.2392   12.4309 H         1 UNK         0.1055 
    139 H139      -49.6122  -29.9379   11.0727 H         1 UNK         0.0806 
    140 H140      -48.0227  -29.6698   10.3905 H         1 UNK         0.0806 
    141 H141      -49.4404  -28.9782    9.6032 H         1 UNK         0.0806 
    142 H142      -47.8639  -26.9836    9.8121 H         1 UNK         0.3061 
    143 H143      -45.7176  -24.6070   11.2962 H         1 UNK         0.0734 
    144 H144      -43.8923  -25.5700    9.9189 H         1 UNK         0.0832 
    145 H145      -44.1556  -26.5581   11.3446 H         1 UNK         0.0832 
    146 H146      -44.7622  -27.1003    9.7868 H         1 UNK         0.0832 
    147 H147      -46.0076  -25.3017    8.5829 H         1 UNK         0.3156 
    148 H148      -49.2128  -24.2159    7.8378 H         1 UNK         0.0589 
    149 H149      -46.7227  -22.5086    7.2992 H         1 UNK         0.0808 
    150 H150      -48.2225  -22.4791    6.3697 H         1 UNK         0.0808 
    151 H151      -48.2114  -21.9363    8.0384 H         1 UNK         0.0808 
    152 H152      -46.9962  -24.7061    6.1379 H         1 UNK         0.3098 
    153 H153      -46.7757  -26.6113    5.0249 H         1 UNK         0.0720 
    154 H154      -45.1472  -28.3426    5.7982 H         1 UNK         0.0791 
    155 H155      -45.9279  -28.3964    7.3776 H         1 UNK         0.0791 
    156 H156      -45.0959  -26.9389    6.8497 H         1 UNK         0.0791 
    157 H157      -47.5192  -29.3047    5.6903 H         1 UNK         0.3028 
@<TRIPOS>BOND
     1    1    2 1    
     2    1   82 1    
     3    1   83 1    
     4    1   84 1    
     5    2    3 2    
     6    2    4 am   BACKBONE|DICT|INTERRES
     7    4    5 1    
     8    4   85 1    
     9    5    6 1    
    10    5   80 1    
    11    5   86 1    
    12    6    7 1    
    13    6   87 1    
    14    6   88 1    
    15    7    8 1    
    16    8    9 1    
    17    8   89 1    
    18    8   90 1    
    19    9   10 ar   
    20    9   14 ar   
    21   10   11 ar   
    22   10   91 1    
    23   11   12 ar   
    24   11   58 1    
    25   12   13 ar   
    26   12   92 1    
    27   13   14 ar   
    28   13   15 1    
    29   14   93 1    
    30   15   16 1    
    31   15   94 1    
    32   15   95 1    
    33   16   17 1    
    34   17   18 1    
    35   17   96 1    
    36   17   97 1    
    37   18   19 1    
    38   18   22 1    
    39   18   98 1    
    40   19   20 am   BACKBONE|DICT|INTERRES
    41   19   21 2    
    42   20   99 1    
    43   20  100 1    
    44   22   23 am   BACKBONE|DICT|INTERRES
    45   22  101 1    
    46   23   24 2    
    47   23   25 1    
    48   25   26 1    
    49   25   27 1    
    50   25  102 1    
    51   26  103 1    
    52   26  104 1    
    53   26  105 1    
    54   27   28 am   BACKBONE|DICT|INTERRES
    55   27  106 1    
    56   28   29 2    
    57   28   30 1    
    58   30   31 1    
    59   30   32 1    
    60   30  107 1    
    61   31  108 1    
    62   31  109 1    
    63   31  110 1    
    64   32   33 am   BACKBONE|DICT|INTERRES
    65   32  111 1    
    66   33   34 2    
    67   33   35 1    
    68   35   36 1    
    69   35   37 1    
    70   35  112 1    
    71   36  113 1    
    72   36  114 1    
    73   36  115 1    
    74   37   38 am   BACKBONE|DICT|INTERRES
    75   37  116 1    
    76   38   39 2    
    77   38   40 1    
    78   40   41 1    
    79   40   42 1    
    80   40  117 1    
    81   41  118 1    
    82   41  119 1    
    83   41  120 1    
    84   42   43 am   BACKBONE|DICT|INTERRES
    85   42  121 1    
    86   43   44 2    
    87   43   45 1    
    88   45   46 1    
    89   45   47 1    
    90   45  122 1    
    91   46  123 1    
    92   46  124 1    
    93   46  125 1    
    94   47   48 am   BACKBONE|DICT|INTERRES
    95   47  126 1    
    96   48   49 2    
    97   48   50 1    
    98   50   51 1    
    99   50   52 1    
   100   50  127 1    
   101   51  128 1    
   102   51  129 1    
   103   51  130 1    
   104   52   53 am   BACKBONE|DICT|INTERRES
   105   52  131 1    
   106   53   54 2    
   107   53   55 1    
   108   55   56 1    
   109   55   59 1    
   110   55  132 1    
   111   56   57 1    
   112   56  133 1    
   113   56  134 1    
   114   57   58 1    
   115   58  135 1    
   116   58  136 1    
   117   59   60 am   BACKBONE|DICT|INTERRES
   118   59  137 1    
   119   60   61 2    
   120   60   62 1    
   121   62   63 1    
   122   62   64 1    
   123   62  138 1    
   124   63  139 1    
   125   63  140 1    
   126   63  141 1    
   127   64   65 am   BACKBONE|DICT|INTERRES
   128   64  142 1    
   129   65   66 2    
   130   65   67 1    
   131   67   68 1    
   132   67   69 1    
   133   67  143 1    
   134   68  144 1    
   135   68  145 1    
   136   68  146 1    
   137   69   70 am   BACKBONE|DICT|INTERRES
   138   69  147 1    
   139   70   71 2    
   140   70   72 1    
   141   72   73 1    
   142   72   74 1    
   143   72  148 1    
   144   73  149 1    
   145   73  150 1    
   146   73  151 1    
   147   74   75 am   BACKBONE|DICT|INTERRES
   148   74  152 1    
   149   75   76 2    
   150   75   77 1    
   151   77   78 1    
   152   77   79 1    
   153   77  153 1    
   154   78  154 1    
   155   78  155 1    
   156   78  156 1    
   157   79   80 am   BACKBONE|DICT|INTERRES
   158   79  157 1    
   159   80   81 2    
@<TRIPOS>SUBSTRUCTURE
     1 UNK         1 GROUP             0       ****    0 ROOT    
