@<TRIPOS>MOLECULE
3R207
157   159    1
SMALL
USER_CHARGES


@<TRIPOS>ATOM
      1 CA        -46.5150  -28.7339   11.5163 C.3       0 UNK        -0.1975 
      2 C         -46.8664  -28.0803   10.1891 C.2       0 UNK         0.4852 
      3 O         -46.3726  -26.9895    9.9020 O.2       0 UNK        -0.5216 
      4 N         -47.6999  -28.7473    9.3764 N.am      1 UNK        -0.4461 
      5 CA        -48.2883  -28.2661    8.1134 C.3       1 UNK         0.0864 
      6 C6        -49.4465  -27.2552    8.3375 C.3       14 UNK        -0.0898 
      7 S7        -50.7662  -27.9854    9.3644 S.3       14 UNK        -0.2598 
      8 C8        -52.1106  -28.2955    8.1747 C.3       14 UNK         0.0286 
      9 C9        -53.2301  -27.2823    8.3518 C.ar      14 UNK        -0.0844 
     10 C10       -53.4519  -26.2817    7.4007 C.ar      14 UNK        -0.0881 
     11 C11       -54.4457  -25.3173    7.6052 C.ar      14 UNK        -0.0643 
     12 C12       -55.2397  -25.3847    8.7550 C.ar      14 UNK        -0.0930 
     13 C13       -55.0526  -26.4020    9.6956 C.ar      14 UNK        -0.0827 
     14 C14       -54.0473  -27.3493    9.4840 C.ar      14 UNK        -0.1249 
     15 C15       -55.9672  -26.4954   10.9113 C.3       14 UNK         0.0141 
     16 S16       -55.0552  -26.6205   12.4849 S.3       14 UNK        -0.2313 
     17 C17       -56.4309  -26.5566   13.6861 C.3       14 UNK        -0.0915 
     18 CA        -56.8454  -27.9320   14.2728 C.3       13 UNK         0.0968 
     19 C         -57.4282  -28.8873   13.1867 C.2       13 UNK         0.5732 
     20 N         -56.7785  -29.9955   12.8469 N.am      13 UNK        -0.7310 
     21 O         -58.4993  -28.6167   12.6488 O.2       13 UNK        -0.5035 
     22 N         -55.7904  -28.5168   15.1143 N.am      13 UNK        -0.4233 
     23 C         -55.9963  -29.5298   15.9694 C.2       13 UNK         0.4989 
     24 O         -57.1186  -29.9481   16.2612 O.2       13 UNK        -0.4996 
     25 CA        -54.7576  -30.2005   16.6010 C.3       12 UNK         0.0216 
     26 CB        -54.9962  -31.6924   16.9154 C.3       12 UNK        -0.1964 
     27 N         -53.5193  -30.0417   15.8285 N.am      12 UNK        -0.4276 
     28 C         -53.2933  -30.3763   14.5470 C.2       12 UNK         0.5020 
     29 O         -54.1386  -30.9077   13.8246 O.2       12 UNK        -0.5489 
     30 CA        -51.9120  -30.0283   13.9595 C.3       11 UNK         0.0294 
     31 CB        -52.0475  -29.3436   12.5890 C.3       11 UNK        -0.2019 
     32 N         -51.1569  -29.1455   14.8537 N.am      11 UNK        -0.4493 
     33 C         -50.0495  -29.4898   15.5264 C.2       11 UNK         0.4932 
     34 O         -49.4731  -30.5689   15.3899 O.2       11 UNK        -0.5029 
     35 CA        -49.4936  -28.4749   16.5476 C.3       10 UNK         0.0280 
     36 CB        -48.3346  -27.6749   15.9309 C.3       10 UNK        -0.1976 
     37 N         -50.4949  -27.5450   17.0847 N.am      10 UNK        -0.4242 
     38 C         -51.5780  -27.8990   17.7929 C.2       10 UNK         0.5072 
     39 O         -51.8348  -29.0597   18.1115 O.2       10 UNK        -0.5224 
     40 CA        -52.5898  -26.7900   18.1390 C.3       9 UNK         0.0343 
     41 CB        -52.2812  -26.1944   19.5215 C.3       9 UNK        -0.2003 
     42 N         -52.6754  -25.7077   17.1494 N.am      9 UNK        -0.4272 
     43 C         -52.9390  -25.8588   15.8429 C.2       9 UNK         0.4988 
     44 O         -53.0996  -26.9570   15.3063 O.2       9 UNK        -0.5108 
     45 CA        -52.9798  -24.5931   14.9752 C.3       8 UNK         0.0248 
     46 CB        -52.8498  -23.2656   15.7531 C.3       8 UNK        -0.2001 
     47 N         -51.9069  -24.7033   13.9931 N.am      8 UNK        -0.4140 
     48 C         -51.9500  -24.2703   12.7294 C.2       8 UNK         0.5028 
     49 O         -52.8990  -23.6444   12.2505 O.2       8 UNK        -0.5428 
     50 CA        -50.7032  -24.5749   11.8744 C.3       7 UNK         0.0264 
     51 CB        -50.0642  -25.9388   12.2072 C.3       7 UNK        -0.1988 
     52 N         -51.0196  -24.5414   10.4466 N.am      7 UNK        -0.4454 
     53 C         -50.9221  -23.4540    9.6737 C.2       7 UNK         0.5027 
     54 O         -50.5274  -22.3549   10.0697 O.2       7 UNK        -0.5083 
     55 CA        -51.2904  -23.6271    8.1959 C.3       6 UNK         0.0844 
     56 C56       -52.5360  -22.7868    7.8134 C.3       14 UNK        -0.0967 
     57 S57       -53.1891  -23.2441    6.1718 S.3       14 UNK        -0.2604 
     58 C58       -54.6850  -24.2049    6.5874 C.3       14 UNK         0.0134 
     59 N         -50.0927  -23.2745    7.4425 N.am      6 UNK        -0.4116 
     60 C         -49.6050  -23.9299    6.3843 C.2       5 UNK         0.5034 
     61 O         -50.2146  -24.8043    5.7687 O.2       5 UNK        -0.5045 
     62 CA        -48.1566  -23.6029    5.9817 C.3       5 UNK         0.0224 
     63 CB        -48.0457  -22.2590    5.2334 C.3       5 UNK        -0.1978 
     64 N         -47.2314  -23.7084    7.1226 N.am      5 UNK        -0.4737 
     65 C         -47.1119  -22.8905    8.1789 C.2       4 UNK         0.5027 
     66 O         -47.6986  -21.8127    8.2736 O.2       4 UNK        -0.5211 
     67 CA        -46.2643  -23.3718    9.3670 C.3       4 UNK         0.0297 
     68 CB        -47.1811  -23.7664   10.5371 C.3       4 UNK        -0.1993 
     69 N         -45.3989  -24.5097    9.0543 N.am      4 UNK        -0.4486 
     70 C         -44.1772  -24.4074    8.5166 C.2       3 UNK         0.4961 
     71 O         -43.6783  -23.3466    8.1397 O.2       3 UNK        -0.5105 
     72 CA        -43.3678  -25.7060    8.4000 C.3       3 UNK         0.0299 
     73 CB        -42.8627  -26.1568    9.7816 C.3       3 UNK        -0.1972 
     74 N         -44.1595  -26.7783    7.7979 N.am      3 UNK        -0.4305 
     75 C         -44.1696  -27.0671    6.4891 C.2       2 UNK         0.5006 
     76 O         -43.5051  -26.4585    5.6491 O.2       2 UNK        -0.5106 
     77 CA        -45.0480  -28.2451    6.0243 C.3       2 UNK         0.0296 
     78 CB        -44.1914  -29.5083    5.8358 C.3       2 UNK        -0.2002 
     79 N         -46.1671  -28.5551    6.9188 N.am      2 UNK        -0.4032 
     80 C         -47.2249  -27.7558    7.1156 C.2       1 UNK         0.5000 
     81 O         -47.3487  -26.6565    6.5756 O.2       1 UNK        -0.5238 
     82 H82       -46.9950  -29.7054   11.6338 H         1 UNK         0.0889 
     83 H83       -45.4369  -28.8741   11.5914 H         1 UNK         0.0889 
     84 H84       -46.8346  -28.0958   12.3400 H         1 UNK         0.0889 
     85 H85       -48.0486  -29.6452    9.6819 H         1 UNK         0.3028 
     86 H86       -48.7228  -29.1445    7.6331 H         1 UNK         0.0864 
     87 H87       -49.8718  -26.9303    7.3872 H         1 UNK         0.0720 
     88 H88       -49.0783  -26.3542    8.8310 H         1 UNK         0.0720 
     89 H89       -52.5065  -29.2968    8.3499 H         1 UNK         0.0814 
     90 H90       -51.7321  -28.2949    7.1517 H         1 UNK         0.0814 
     91 H91       -52.8301  -26.2282    6.5166 H         1 UNK         0.1469 
     92 H92       -56.0171  -24.6494    8.9115 H         1 UNK         0.1381 
     93 H93       -53.8900  -28.1346   10.2111 H         1 UNK         0.1206 
     94 H94       -56.6106  -27.3677   10.7943 H         1 UNK         0.0813 
     95 H95       -56.6255  -25.6265   10.9580 H         1 UNK         0.0813 
     96 H96       -57.2924  -26.0684   13.2273 H         1 UNK         0.0638 
     97 H97       -56.1270  -25.8955   14.4986 H         1 UNK         0.0638 
     98 H98       -57.6827  -27.7288   14.9433 H         1 UNK         0.0568 
     99 H99       -57.1746  -30.6014   12.1473 H         1 UNK         0.3450 
    100 H100      -55.8836  -30.2304   13.2673 H         1 UNK         0.3450 
    101 H101      -54.8448  -28.1999   14.9346 H         1 UNK         0.2987 
    102 H102      -54.5907  -29.6855   17.5479 H         1 UNK         0.0766 
    103 H103      -55.8313  -31.8228   17.6048 H         1 UNK         0.0798 
    104 H104      -54.1212  -32.1434   17.3834 H         1 UNK         0.0798 
    105 H105      -55.2256  -32.2617   16.0138 H         1 UNK         0.0798 
    106 H106      -52.7510  -29.6333   16.3492 H         1 UNK         0.3198 
    107 H107      -51.3867  -30.9746   13.8163 H         1 UNK         0.0843 
    108 H108      -52.5820  -28.3960   12.6629 H         1 UNK         0.0831 
    109 H109      -52.5918  -29.9705   11.8816 H         1 UNK         0.0831 
    110 H110      -51.0684  -29.1477   12.1531 H         1 UNK         0.0831 
    111 H111      -51.5934  -28.2476   15.0415 H         1 UNK         0.3133 
    112 H112      -49.0990  -29.0486   17.3888 H         1 UNK         0.0566 
    113 H113      -47.8643  -27.0232   16.6675 H         1 UNK         0.0814 
    114 H114      -48.6667  -27.0572   15.0970 H         1 UNK         0.0814 
    115 H115      -47.5590  -28.3419   15.5513 H         1 UNK         0.0814 
    116 H116      -50.3602  -26.5650   16.8857 H         1 UNK         0.3091 
    117 H117      -53.5749  -27.2590   18.1838 H         1 UNK         0.0702 
    118 H118      -53.0528  -25.4896   19.8320 H         1 UNK         0.0785 
    119 H119      -51.3236  -25.6720   19.5326 H         1 UNK         0.0785 
    120 H120      -52.2353  -26.9754   20.2820 H         1 UNK         0.0785 
    121 H121      -52.5471  -24.7695   17.5005 H         1 UNK         0.2998 
    122 H122      -53.9440  -24.5998   14.4639 H         1 UNK         0.0697 
    123 H123      -51.8876  -23.1756   16.2588 H         1 UNK         0.0825 
    124 H124      -53.6386  -23.1628   16.4997 H         1 UNK         0.0825 
    125 H125      -52.9430  -22.4134   15.0795 H         1 UNK         0.0825 
    126 H126      -51.1051  -25.2431   14.2826 H         1 UNK         0.3029 
    127 H127      -49.9669  -23.8001   12.0988 H         1 UNK         0.0897 
    128 H128      -50.7978  -26.7433   12.1669 H         1 UNK         0.0792 
    129 H129      -49.6188  -25.9419   13.2012 H         1 UNK         0.0792 
    130 H130      -49.2646  -26.1861   11.5085 H         1 UNK         0.0792 
    131 H131      -51.3981  -25.3938   10.0548 H         1 UNK         0.3086 
    132 H132      -51.4998  -24.6837    8.0367 H         1 UNK         0.0583 
    133 H133      -53.3280  -22.9071    8.5555 H         1 UNK         0.1020 
    134 H134      -52.2920  -21.7229    7.8089 H         1 UNK         0.1020 
    135 H135      -55.4460  -23.5105    6.9471 H         1 UNK         0.0694 
    136 H136      -55.0824  -24.6460    5.6725 H         1 UNK         0.0694 
    137 H137      -49.4893  -22.5889    7.8901 H         1 UNK         0.2989 
    138 H138      -47.8459  -24.3820    5.2833 H         1 UNK         0.1055 
    139 H139      -48.4144  -21.4208    5.8247 H         1 UNK         0.0806 
    140 H140      -48.6331  -22.2829    4.3147 H         1 UNK         0.0806 
    141 H141      -47.0142  -22.0455    4.9536 H         1 UNK         0.0806 
    142 H142      -46.7603  -24.6045    7.1806 H         1 UNK         0.3061 
    143 H143      -45.6454  -22.5317    9.6897 H         1 UNK         0.0734 
    144 H144      -47.8462  -24.5866   10.2651 H         1 UNK         0.0832 
    145 H145      -46.6053  -24.0777   11.4087 H         1 UNK         0.0832 
    146 H146      -47.8071  -22.9276   10.8446 H         1 UNK         0.0832 
    147 H147      -45.7369  -25.4281    9.3455 H         1 UNK         0.3156 
    148 H148      -42.4914  -25.5010    7.7811 H         1 UNK         0.0589 
    149 H149      -43.6828  -26.3952   10.4603 H         1 UNK         0.0808 
    150 H150      -42.2671  -25.3739   10.2530 H         1 UNK         0.0808 
    151 H151      -42.2292  -27.0402    9.7009 H         1 UNK         0.0808 
    152 H152      -44.7863  -27.2800    8.4142 H         1 UNK         0.3098 
    153 H153      -45.4656  -27.9705    5.0531 H         1 UNK         0.0720 
    154 H154      -43.3657  -29.3212    5.1476 H         1 UNK         0.0791 
    155 H155      -44.7772  -30.3278    5.4187 H         1 UNK         0.0791 
    156 H156      -43.7591  -29.8478    6.7780 H         1 UNK         0.0791 
    157 H157      -46.1265  -29.4327    7.4171 H         1 UNK         0.3028 
@<TRIPOS>BOND
     1    1    2 1    
     2    1   82 1    
     3    1   83 1    
     4    1   84 1    
     5    2    3 2    
     6    2    4 am   BACKBONE|DICT|INTERRES
     7    4    5 1    
     8    4   85 1    
     9    5    6 1    
    10    5   80 1    
    11    5   86 1    
    12    6    7 1    
    13    6   87 1    
    14    6   88 1    
    15    7    8 1    
    16    8    9 1    
    17    8   89 1    
    18    8   90 1    
    19    9   10 ar   
    20    9   14 ar   
    21   10   11 ar   
    22   10   91 1    
    23   11   12 ar   
    24   11   58 1    
    25   12   13 ar   
    26   12   92 1    
    27   13   14 ar   
    28   13   15 1    
    29   14   93 1    
    30   15   16 1    
    31   15   94 1    
    32   15   95 1    
    33   16   17 1    
    34   17   18 1    
    35   17   96 1    
    36   17   97 1    
    37   18   19 1    
    38   18   22 1    
    39   18   98 1    
    40   19   20 am   BACKBONE|DICT|INTERRES
    41   19   21 2    
    42   20   99 1    
    43   20  100 1    
    44   22   23 am   BACKBONE|DICT|INTERRES
    45   22  101 1    
    46   23   24 2    
    47   23   25 1    
    48   25   26 1    
    49   25   27 1    
    50   25  102 1    
    51   26  103 1    
    52   26  104 1    
    53   26  105 1    
    54   27   28 am   BACKBONE|DICT|INTERRES
    55   27  106 1    
    56   28   29 2    
    57   28   30 1    
    58   30   31 1    
    59   30   32 1    
    60   30  107 1    
    61   31  108 1    
    62   31  109 1    
    63   31  110 1    
    64   32   33 am   BACKBONE|DICT|INTERRES
    65   32  111 1    
    66   33   34 2    
    67   33   35 1    
    68   35   36 1    
    69   35   37 1    
    70   35  112 1    
    71   36  113 1    
    72   36  114 1    
    73   36  115 1    
    74   37   38 am   BACKBONE|DICT|INTERRES
    75   37  116 1    
    76   38   39 2    
    77   38   40 1    
    78   40   41 1    
    79   40   42 1    
    80   40  117 1    
    81   41  118 1    
    82   41  119 1    
    83   41  120 1    
    84   42   43 am   BACKBONE|DICT|INTERRES
    85   42  121 1    
    86   43   44 2    
    87   43   45 1    
    88   45   46 1    
    89   45   47 1    
    90   45  122 1    
    91   46  123 1    
    92   46  124 1    
    93   46  125 1    
    94   47   48 am   BACKBONE|DICT|INTERRES
    95   47  126 1    
    96   48   49 2    
    97   48   50 1    
    98   50   51 1    
    99   50   52 1    
   100   50  127 1    
   101   51  128 1    
   102   51  129 1    
   103   51  130 1    
   104   52   53 am   BACKBONE|DICT|INTERRES
   105   52  131 1    
   106   53   54 2    
   107   53   55 1    
   108   55   56 1    
   109   55   59 1    
   110   55  132 1    
   111   56   57 1    
   112   56  133 1    
   113   56  134 1    
   114   57   58 1    
   115   58  135 1    
   116   58  136 1    
   117   59   60 am   BACKBONE|DICT|INTERRES
   118   59  137 1    
   119   60   61 2    
   120   60   62 1    
   121   62   63 1    
   122   62   64 1    
   123   62  138 1    
   124   63  139 1    
   125   63  140 1    
   126   63  141 1    
   127   64   65 am   BACKBONE|DICT|INTERRES
   128   64  142 1    
   129   65   66 2    
   130   65   67 1    
   131   67   68 1    
   132   67   69 1    
   133   67  143 1    
   134   68  144 1    
   135   68  145 1    
   136   68  146 1    
   137   69   70 am   BACKBONE|DICT|INTERRES
   138   69  147 1    
   139   70   71 2    
   140   70   72 1    
   141   72   73 1    
   142   72   74 1    
   143   72  148 1    
   144   73  149 1    
   145   73  150 1    
   146   73  151 1    
   147   74   75 am   BACKBONE|DICT|INTERRES
   148   74  152 1    
   149   75   76 2    
   150   75   77 1    
   151   77   78 1    
   152   77   79 1    
   153   77  153 1    
   154   78  154 1    
   155   78  155 1    
   156   78  156 1    
   157   79   80 am   BACKBONE|DICT|INTERRES
   158   79  157 1    
   159   80   81 2    
@<TRIPOS>SUBSTRUCTURE
     1 UNK         1 GROUP             0       ****    0 ROOT    
