@<TRIPOS>MOLECULE
3R207
157   159    1
SMALL
USER_CHARGES


@<TRIPOS>ATOM
      1 CA        -46.8864  -31.0359    5.6167 C.3       0 UNK        -0.1975 
      2 C         -47.4918  -29.8134    6.2886 C.2       0 UNK         0.4852 
      3 O         -47.1113  -29.4868    7.4141 O.2       0 UNK        -0.5216 
      4 N         -48.4129  -29.1210    5.6001 N.am      1 UNK        -0.4461 
      5 CA        -49.1585  -27.9478    6.0869 C.3       1 UNK         0.0864 
      6 C6        -50.2103  -28.3275    7.1639 C.3       14 UNK        -0.0898 
      7 S7        -51.5785  -29.2938    6.4443 S.3       14 UNK        -0.2598 
      8 C8        -52.7874  -29.2771    7.8149 C.3       14 UNK         0.0286 
      9 C9        -53.4612  -27.9349    8.1197 C.ar      14 UNK        -0.0844 
     10 C10       -53.2641  -26.7792    7.3504 C.ar      14 UNK        -0.0881 
     11 C11       -53.8877  -25.5753    7.6900 C.ar      14 UNK        -0.0643 
     12 C12       -54.7377  -25.5276    8.7975 C.ar      14 UNK        -0.0930 
     13 C13       -54.9717  -26.6783    9.5550 C.ar      14 UNK        -0.0827 
     14 C14       -54.3275  -27.8712    9.2152 C.ar      14 UNK        -0.1249 
     15 C15       -55.9547  -26.6519   10.7131 C.3       14 UNK         0.0141 
     16 S16       -55.1136  -26.7439   12.3217 S.3       14 UNK        -0.2313 
     17 C17       -56.5645  -26.8774   13.4258 C.3       14 UNK        -0.0915 
     18 CA        -56.8000  -28.3053   13.9871 C.3       13 UNK         0.0968 
     19 C         -57.2983  -29.3049   12.8993 C.2       13 UNK         0.5732 
     20 N         -56.6028  -30.4017   12.6163 N.am      13 UNK        -0.7310 
     21 O         -58.3500  -29.0820   12.3046 O.2       13 UNK        -0.5035 
     22 N         -55.6426  -28.7618   14.7638 N.am      13 UNK        -0.4233 
     23 C         -55.6608  -29.7378   15.6783 C.2       13 UNK         0.4989 
     24 O         -56.6879  -30.2980   16.0656 O.2       13 UNK        -0.4996 
     25 CA        -54.2887  -30.1565   16.2367 C.3       12 UNK         0.0216 
     26 CB        -54.3057  -31.5489   16.9031 C.3       12 UNK        -0.1964 
     27 N         -53.2180  -30.0639   15.2343 N.am      12 UNK        -0.4276 
     28 C         -53.1090  -30.7473   14.0819 C.2       12 UNK         0.5020 
     29 O         -53.9551  -31.5540   13.6937 O.2       12 UNK        -0.5489 
     30 CA        -51.8845  -30.4655   13.1805 C.3       11 UNK         0.0294 
     31 CB        -52.3309  -30.0525   11.7662 C.3       11 UNK        -0.2019 
     32 N         -50.9949  -29.4261   13.7025 N.am      11 UNK        -0.4493 
     33 C         -50.1547  -29.5491   14.7399 C.2       11 UNK         0.4932 
     34 O         -49.9112  -30.6181   15.2984 O.2       11 UNK        -0.5029 
     35 CA        -49.5270  -28.2487   15.2838 C.3       10 UNK         0.0280 
     36 CB        -48.0314  -28.1872   14.9433 C.3       10 UNK        -0.1976 
     37 N         -50.1960  -27.0216   14.8207 N.am      10 UNK        -0.4242 
     38 C         -51.4619  -26.6853   15.1223 C.2       10 UNK         0.5072 
     39 O         -52.1934  -27.3836   15.8277 O.2       10 UNK        -0.5224 
     40 CA        -52.0163  -25.3998   14.4815 C.3       9 UNK         0.0343 
     41 CB        -53.3295  -24.9151   15.1328 C.3       9 UNK        -0.2003 
     42 N         -51.0316  -24.3183   14.4146 N.am      9 UNK        -0.4272 
     43 C         -50.4464  -23.6787   15.4389 C.2       9 UNK         0.4988 
     44 O         -50.6371  -23.9408   16.6268 O.2       9 UNK        -0.5108 
     45 CA        -49.4870  -22.5379   15.0684 C.3       8 UNK         0.0248 
     46 CB        -48.0679  -23.0841   14.8465 C.3       8 UNK        -0.2001 
     47 N         -49.9386  -21.8236   13.8702 N.am      8 UNK        -0.4140 
     48 C         -50.8656  -20.8541   13.8775 C.2       8 UNK         0.5028 
     49 O         -51.3816  -20.4098   14.9040 O.2       8 UNK        -0.5428 
     50 CA        -51.2879  -20.2647   12.5192 C.3       7 UNK         0.0264 
     51 CB        -50.4406  -19.0253   12.1875 C.3       7 UNK        -0.1988 
     52 N         -51.1962  -21.2199   11.4123 N.am      7 UNK        -0.4454 
     53 C         -52.0606  -22.2233   11.1944 C.2       7 UNK         0.5027 
     54 O         -53.0533  -22.4346   11.8909 O.2       7 UNK        -0.5083 
     55 CA        -51.7566  -23.1534    9.9971 C.3       6 UNK         0.0844 
     56 C56       -52.4374  -22.5971    8.7196 C.3       14 UNK        -0.0967 
     57 S57       -52.0596  -23.5512    7.2071 S.3       14 UNK        -0.2604 
     58 C58       -53.6571  -24.3391    6.8352 C.3       14 UNK         0.0134 
     59 N         -50.3210  -23.3994    9.7936 N.am      6 UNK        -0.4116 
     60 C         -49.4605  -23.8674   10.7073 C.2       5 UNK         0.5034 
     61 O         -49.7617  -24.0720   11.8842 O.2       5 UNK        -0.5045 
     62 CA        -48.0195  -24.0992   10.2266 C.3       5 UNK         0.0224 
     63 CB        -47.0045  -23.2283   10.9919 C.3       5 UNK        -0.1978 
     64 N         -47.6541  -25.5174   10.2499 N.am      5 UNK        -0.4737 
     65 C         -47.4913  -26.3393   11.2978 C.2       4 UNK         0.5027 
     66 O         -47.5729  -26.0040   12.4785 O.2       4 UNK        -0.5211 
     67 CA        -47.1708  -27.8064   10.9609 C.3       4 UNK         0.0297 
     68 CB        -48.4702  -28.5896   10.7181 C.3       4 UNK        -0.1993 
     69 N         -46.2846  -27.9365    9.7998 N.am      4 UNK        -0.4486 
     70 C         -44.9837  -27.6066    9.8117 C.2       3 UNK         0.4961 
     71 O         -44.3779  -27.2345   10.8172 O.2       3 UNK        -0.5105 
     72 CA        -44.2301  -27.6884    8.4754 C.3       3 UNK         0.0299 
     73 CB        -43.7740  -29.1275    8.1823 C.3       3 UNK        -0.1972 
     74 N         -45.0420  -27.1813    7.3681 N.am      3 UNK        -0.4305 
     75 C         -45.2220  -25.8781    7.1040 C.2       2 UNK         0.5006 
     76 O         -44.6676  -24.9715    7.7260 O.2       2 UNK        -0.5106 
     77 CA        -46.1746  -25.5096    5.9507 C.3       2 UNK         0.0296 
     78 CB        -45.3796  -25.2586    4.6589 C.3       2 UNK        -0.2002 
     79 N         -47.2116  -26.5119    5.6913 N.am      2 UNK        -0.4032 
     80 C         -48.2138  -26.8077    6.5319 C.2       1 UNK         0.5000 
     81 O         -48.3684  -26.2521    7.6204 O.2       1 UNK        -0.5238 
     82 H82       -45.8079  -30.9088    5.5108 H         1 UNK         0.0889 
     83 H83       -47.3097  -31.2100    4.6255 H         1 UNK         0.0889 
     84 H84       -47.0681  -31.9234    6.2253 H         1 UNK         0.0889 
     85 H85       -48.6764  -29.4423    4.6786 H         1 UNK         0.3028 
     86 H86       -49.6970  -27.5427    5.2283 H         1 UNK         0.0864 
     87 H87       -50.6261  -27.4387    7.6399 H         1 UNK         0.0720 
     88 H88       -49.7556  -28.9168    7.9596 H         1 UNK         0.0720 
     89 H89       -52.2898  -29.6396    8.7151 H         1 UNK         0.0814 
     90 H90       -53.5663  -30.0044    7.5820 H         1 UNK         0.0814 
     91 H91       -52.6202  -26.7960    6.4835 H         1 UNK         0.1469 
     92 H92       -55.2324  -24.6016    9.0564 H         1 UNK         0.1381 
     93 H93       -54.5099  -28.7581    9.8073 H         1 UNK         0.1206 
     94 H94       -56.5647  -25.7478   10.6803 H         1 UNK         0.0813 
     95 H95       -56.6436  -27.4911   10.6105 H         1 UNK         0.0813 
     96 H96       -57.4574  -26.5129   12.9147 H         1 UNK         0.0638 
     97 H97       -56.4094  -26.1858   14.2549 H         1 UNK         0.0638 
     98 H98       -57.6312  -28.2243   14.6899 H         1 UNK         0.0568 
     99 H99       -55.7440  -30.6265   13.1037 H         1 UNK         0.3450 
    100 H100      -56.9539  -31.0315   11.9136 H         1 UNK         0.3450 
    101 H101      -54.7544  -28.3625   14.5002 H         1 UNK         0.2987 
    102 H102      -54.0432  -29.4251   17.0083 H         1 UNK         0.0766 
    103 H103      -54.6097  -32.3292   16.2047 H         1 UNK         0.0798 
    104 H104      -53.3231  -31.8130   17.2940 H         1 UNK         0.0798 
    105 H105      -55.0038  -31.5735   17.7406 H         1 UNK         0.0798 
    106 H106      -52.5237  -29.3489   15.4291 H         1 UNK         0.3198 
    107 H107      -51.3199  -31.3972   13.1064 H         1 UNK         0.0843 
    108 H108      -52.9523  -30.8233   11.3082 H         1 UNK         0.0831 
    109 H109      -51.4750  -29.8993   11.1087 H         1 UNK         0.0831 
    110 H110      -52.9147  -29.1311   11.7798 H         1 UNK         0.0831 
    111 H111      -51.1155  -28.5029   13.3140 H         1 UNK         0.3133 
    112 H112      -49.6217  -28.2768   16.3713 H         1 UNK         0.0566 
    113 H113      -47.5726  -27.2676   15.3072 H         1 UNK         0.0814 
    114 H114      -47.4944  -29.0205   15.3982 H         1 UNK         0.0814 
    115 H115      -47.8643  -28.2454   13.8693 H         1 UNK         0.0814 
    116 H116      -49.6556  -26.4032   14.2287 H         1 UNK         0.3091 
    117 H117      -52.2453  -25.6572   13.4462 H         1 UNK         0.0702 
    118 H118      -54.0987  -25.6860   15.0847 H         1 UNK         0.0785 
    119 H119      -53.7216  -24.0363   14.6204 H         1 UNK         0.0785 
    120 H120      -53.1938  -24.6613   16.1843 H         1 UNK         0.0785 
    121 H121      -50.7188  -24.0775   13.4761 H         1 UNK         0.2998 
    122 H122      -49.4513  -21.8386   15.9066 H         1 UNK         0.0697 
    123 H123      -48.0487  -23.8544   14.0756 H         1 UNK         0.0825 
    124 H124      -47.6799  -23.5356   15.7605 H         1 UNK         0.0825 
    125 H125      -47.3753  -22.2946   14.5545 H         1 UNK         0.0825 
    126 H126      -49.6120  -22.1800   12.9821 H         1 UNK         0.3029 
    127 H127      -52.3295  -19.9482   12.6117 H         1 UNK         0.0897 
    128 H128      -50.7798  -18.5464   11.2687 H         1 UNK         0.0792 
    129 H129      -50.5108  -18.2815   12.9826 H         1 UNK         0.0792 
    130 H130      -49.3856  -19.2750   12.0680 H         1 UNK         0.0792 
    131 H131      -50.4170  -21.1119   10.7792 H         1 UNK         0.3086 
    132 H132      -52.2062  -24.1230   10.2230 H         1 UNK         0.0583 
    133 H133      -53.5189  -22.5509    8.8611 H         1 UNK         0.1020 
    134 H134      -52.1205  -21.5684    8.5357 H         1 UNK         0.1020 
    135 H135      -54.4684  -23.6197    6.9562 H         1 UNK         0.0694 
    136 H136      -53.6656  -24.6253    5.7824 H         1 UNK         0.0694 
    137 H137      -50.0021  -23.2790    8.8429 H         1 UNK         0.2989 
    138 H138      -47.9630  -23.8062    9.1767 H         1 UNK         0.1055 
    139 H139      -45.9994  -23.3535   10.5889 H         1 UNK         0.0806 
    140 H140      -46.9680  -23.4728   12.0523 H         1 UNK         0.0806 
    141 H141      -47.2575  -22.1705   10.9115 H         1 UNK         0.0806 
    142 H142      -47.6542  -25.9495    9.3280 H         1 UNK         0.3061 
    143 H143      -46.6604  -28.2490   11.8186 H         1 UNK         0.0734 
    144 H144      -49.0715  -28.6309   11.6263 H         1 UNK         0.0832 
    145 H145      -49.0813  -28.1158    9.9509 H         1 UNK         0.0832 
    146 H146      -48.2720  -29.6166   10.4105 H         1 UNK         0.0832 
    147 H147      -46.6896  -28.2975    8.9398 H         1 UNK         0.3156 
    148 H148      -43.3333  -27.0703    8.5589 H         1 UNK         0.0589 
    149 H149      -44.6129  -29.8201    8.1161 H         1 UNK         0.0808 
    150 H150      -43.2166  -29.1848    7.2473 H         1 UNK         0.0808 
    151 H151      -43.1171  -29.4924    8.9730 H         1 UNK         0.0808 
    152 H152      -45.5753  -27.8642    6.8482 H         1 UNK         0.3098 
    153 H153      -46.6743  -24.5790    6.2292 H         1 UNK         0.0720 
    154 H154      -46.0275  -24.9093    3.8547 H         1 UNK         0.0791 
    155 H155      -44.8710  -26.1603    4.3150 H         1 UNK         0.0791 
    156 H156      -44.6172  -24.4934    4.8125 H         1 UNK         0.0791 
    157 H157      -47.1455  -27.0235    4.8230 H         1 UNK         0.3028 
@<TRIPOS>BOND
     1    1    2 1    
     2    1   82 1    
     3    1   83 1    
     4    1   84 1    
     5    2    3 2    
     6    2    4 am   BACKBONE|DICT|INTERRES
     7    4    5 1    
     8    4   85 1    
     9    5    6 1    
    10    5   80 1    
    11    5   86 1    
    12    6    7 1    
    13    6   87 1    
    14    6   88 1    
    15    7    8 1    
    16    8    9 1    
    17    8   89 1    
    18    8   90 1    
    19    9   10 ar   
    20    9   14 ar   
    21   10   11 ar   
    22   10   91 1    
    23   11   12 ar   
    24   11   58 1    
    25   12   13 ar   
    26   12   92 1    
    27   13   14 ar   
    28   13   15 1    
    29   14   93 1    
    30   15   16 1    
    31   15   94 1    
    32   15   95 1    
    33   16   17 1    
    34   17   18 1    
    35   17   96 1    
    36   17   97 1    
    37   18   19 1    
    38   18   22 1    
    39   18   98 1    
    40   19   20 am   BACKBONE|DICT|INTERRES
    41   19   21 2    
    42   20   99 1    
    43   20  100 1    
    44   22   23 am   BACKBONE|DICT|INTERRES
    45   22  101 1    
    46   23   24 2    
    47   23   25 1    
    48   25   26 1    
    49   25   27 1    
    50   25  102 1    
    51   26  103 1    
    52   26  104 1    
    53   26  105 1    
    54   27   28 am   BACKBONE|DICT|INTERRES
    55   27  106 1    
    56   28   29 2    
    57   28   30 1    
    58   30   31 1    
    59   30   32 1    
    60   30  107 1    
    61   31  108 1    
    62   31  109 1    
    63   31  110 1    
    64   32   33 am   BACKBONE|DICT|INTERRES
    65   32  111 1    
    66   33   34 2    
    67   33   35 1    
    68   35   36 1    
    69   35   37 1    
    70   35  112 1    
    71   36  113 1    
    72   36  114 1    
    73   36  115 1    
    74   37   38 am   BACKBONE|DICT|INTERRES
    75   37  116 1    
    76   38   39 2    
    77   38   40 1    
    78   40   41 1    
    79   40   42 1    
    80   40  117 1    
    81   41  118 1    
    82   41  119 1    
    83   41  120 1    
    84   42   43 am   BACKBONE|DICT|INTERRES
    85   42  121 1    
    86   43   44 2    
    87   43   45 1    
    88   45   46 1    
    89   45   47 1    
    90   45  122 1    
    91   46  123 1    
    92   46  124 1    
    93   46  125 1    
    94   47   48 am   BACKBONE|DICT|INTERRES
    95   47  126 1    
    96   48   49 2    
    97   48   50 1    
    98   50   51 1    
    99   50   52 1    
   100   50  127 1    
   101   51  128 1    
   102   51  129 1    
   103   51  130 1    
   104   52   53 am   BACKBONE|DICT|INTERRES
   105   52  131 1    
   106   53   54 2    
   107   53   55 1    
   108   55   56 1    
   109   55   59 1    
   110   55  132 1    
   111   56   57 1    
   112   56  133 1    
   113   56  134 1    
   114   57   58 1    
   115   58  135 1    
   116   58  136 1    
   117   59   60 am   BACKBONE|DICT|INTERRES
   118   59  137 1    
   119   60   61 2    
   120   60   62 1    
   121   62   63 1    
   122   62   64 1    
   123   62  138 1    
   124   63  139 1    
   125   63  140 1    
   126   63  141 1    
   127   64   65 am   BACKBONE|DICT|INTERRES
   128   64  142 1    
   129   65   66 2    
   130   65   67 1    
   131   67   68 1    
   132   67   69 1    
   133   67  143 1    
   134   68  144 1    
   135   68  145 1    
   136   68  146 1    
   137   69   70 am   BACKBONE|DICT|INTERRES
   138   69  147 1    
   139   70   71 2    
   140   70   72 1    
   141   72   73 1    
   142   72   74 1    
   143   72  148 1    
   144   73  149 1    
   145   73  150 1    
   146   73  151 1    
   147   74   75 am   BACKBONE|DICT|INTERRES
   148   74  152 1    
   149   75   76 2    
   150   75   77 1    
   151   77   78 1    
   152   77   79 1    
   153   77  153 1    
   154   78  154 1    
   155   78  155 1    
   156   78  156 1    
   157   79   80 am   BACKBONE|DICT|INTERRES
   158   79  157 1    
   159   80   81 2    
@<TRIPOS>SUBSTRUCTURE
     1 UNK         1 GROUP             0       ****    0 ROOT    
