@<TRIPOS>MOLECULE
3R207
157   159    1
SMALL
USER_CHARGES


@<TRIPOS>ATOM
      1 CA        -49.7912  -32.9159    5.5561 C.3       0 UNK        -0.1975 
      2 C         -49.3185  -31.5607    6.0605 C.2       0 UNK         0.4852 
      3 O         -48.5484  -31.5021    7.0204 O.2       0 UNK        -0.5216 
      4 N         -49.7629  -30.4733    5.4129 N.am      1 UNK        -0.4461 
      5 CA        -49.4658  -29.0630    5.7078 C.3       1 UNK         0.0864 
      6 C6        -49.8686  -28.6422    7.1471 C.3       14 UNK        -0.0898 
      7 S7        -50.0715  -26.8432    7.3493 S.3       14 UNK        -0.2598 
      8 C8        -51.6493  -26.5598    6.4841 C.3       14 UNK         0.0286 
      9 C9        -52.4927  -25.5628    7.2557 C.ar      14 UNK        -0.0844 
     10 C10       -52.2488  -24.1936    7.1340 C.ar      14 UNK        -0.0881 
     11 C11       -52.9514  -23.2774    7.9224 C.ar      14 UNK        -0.0643 
     12 C12       -53.9317  -23.7376    8.8076 C.ar      14 UNK        -0.0930 
     13 C13       -54.1920  -25.1065    8.9254 C.ar      14 UNK        -0.0827 
     14 C14       -53.4790  -26.0129    8.1359 C.ar      14 UNK        -0.1249 
     15 C15       -55.2172  -25.6045    9.9323 C.3       14 UNK         0.0141 
     16 S16       -54.4854  -25.7822   11.5908 S.3       14 UNK        -0.2313 
     17 C17       -53.6032  -27.3760   11.4520 C.3       14 UNK        -0.0915 
     18 CA        -54.3551  -28.5323   12.1620 C.3       13 UNK         0.0968 
     19 C         -53.7331  -29.9215   11.8298 C.2       13 UNK         0.5732 
     20 N         -53.4554  -30.7917   12.7941 N.am      13 UNK        -0.7310 
     21 O         -53.5121  -30.2300   10.6612 O.2       13 UNK        -0.5035 
     22 N         -54.5029  -28.2788   13.6035 N.am      13 UNK        -0.4233 
     23 C         -55.5564  -28.6566   14.3362 C.2       13 UNK         0.4989 
     24 O         -56.5585  -29.1978   13.8639 O.2       13 UNK        -0.4996 
     25 CA        -55.4648  -28.3974   15.8541 C.3       12 UNK         0.0216 
     26 CB        -56.5820  -29.1044   16.6507 C.3       12 UNK        -0.1964 
     27 N         -54.1526  -28.7232   16.4311 N.am      12 UNK        -0.4276 
     28 C         -53.5025  -29.8954   16.3559 C.2       12 UNK         0.5020 
     29 O         -53.9098  -30.8659   15.7159 O.2       12 UNK        -0.5489 
     30 CA        -52.1680  -30.0219   17.1106 C.3       11 UNK         0.0294 
     31 CB        -50.9806  -29.9380   16.1396 C.3       11 UNK        -0.2019 
     32 N         -51.9947  -29.0289   18.1736 N.am      11 UNK        -0.4493 
     33 C         -52.5789  -29.0822   19.3761 C.2       11 UNK         0.4932 
     34 O         -53.3603  -29.9714   19.7144 O.2       11 UNK        -0.5029 
     35 CA        -52.2316  -27.9686   20.3825 C.3       10 UNK         0.0280 
     36 CB        -50.8284  -28.1846   20.9835 C.3       10 UNK        -0.1976 
     37 N         -52.3947  -26.5969   19.8772 N.am      10 UNK        -0.4242 
     38 C         -51.7265  -25.9757   18.8959 C.2       10 UNK         0.5072 
     39 O         -50.8392  -26.4975   18.2159 O.2       10 UNK        -0.5224 
     40 CA        -52.1167  -24.5151   18.6251 C.3       9 UNK         0.0343 
     41 CB        -50.9633  -23.5651   18.9870 C.3       9 UNK        -0.2003 
     42 N         -52.4683  -24.3371   17.2184 N.am      9 UNK        -0.4272 
     43 C         -53.5942  -24.7960   16.6550 C.2       9 UNK         0.4988 
     44 O         -54.4959  -25.3502   17.2836 O.2       9 UNK        -0.5108 
     45 CA        -53.7288  -24.6251   15.1334 C.3       8 UNK         0.0248 
     46 CB        -54.3777  -23.2757   14.7891 C.3       8 UNK        -0.2001 
     47 N         -52.4424  -24.7378   14.4444 N.am      8 UNK        -0.4140 
     48 C         -51.7626  -25.8777   14.2810 C.2       8 UNK         0.5028 
     49 O         -52.1923  -26.9739   14.6455 O.2       8 UNK        -0.5428 
     50 CA        -50.3949  -25.7723   13.5725 C.3       7 UNK         0.0264 
     51 CB        -49.6661  -27.1263   13.4909 C.3       7 UNK        -0.1988 
     52 N         -50.4816  -25.2082   12.2208 N.am      7 UNK        -0.4454 
     53 C         -50.7111  -23.9220   11.9187 C.2       7 UNK         0.5027 
     54 O         -50.9344  -23.0566   12.7695 O.2       7 UNK        -0.5083 
     55 CA        -50.6466  -23.5474   10.4211 C.3       6 UNK         0.0844 
     56 C56       -50.9392  -22.0359   10.1790 C.3       14 UNK        -0.0967 
     57 S57       -50.8758  -21.5213    8.4261 S.3       14 UNK        -0.2604 
     58 C58       -52.5900  -21.8017    7.8717 C.3       14 UNK         0.0134 
     59 N         -49.4079  -24.0285    9.7928 N.am      6 UNK        -0.4116 
     60 C         -48.1544  -23.7044   10.1435 C.2       5 UNK         0.5034 
     61 O         -47.8670  -22.9315   11.0584 O.2       5 UNK        -0.5045 
     62 CA        -47.0143  -24.3705    9.3522 C.3       5 UNK         0.0224 
     63 CB        -46.5832  -25.6759   10.0411 C.3       5 UNK        -0.1978 
     64 N         -47.3210  -24.6534    7.9464 N.am      5 UNK        -0.4737 
     65 C         -47.5876  -23.7297    7.0124 C.2       4 UNK         0.5027 
     66 O         -47.6546  -22.5218    7.2426 O.2       4 UNK        -0.5211 
     67 CA        -47.7471  -24.2593    5.5724 C.3       4 UNK         0.0297 
     68 CB        -48.0469  -23.1452    4.5478 C.3       4 UNK        -0.1993 
     69 N         -46.5911  -25.0622    5.1482 N.am      4 UNK        -0.4486 
     70 C         -45.3004  -24.6831    5.1394 C.2       3 UNK         0.4961 
     71 O         -44.9215  -23.5431    5.4130 O.2       3 UNK        -0.5105 
     72 CA        -44.2419  -25.7373    4.7443 C.3       3 UNK         0.0299 
     73 CB        -42.9223  -25.5596    5.5266 C.3       3 UNK        -0.1972 
     74 N         -44.7010  -27.1302    4.8210 N.am      3 UNK        -0.4305 
     75 C         -45.1201  -27.7950    5.9076 C.2       2 UNK         0.5006 
     76 O         -45.1855  -27.3174    7.0418 O.2       2 UNK        -0.5106 
     77 CA        -45.5962  -29.2365    5.6620 C.3       2 UNK         0.0296 
     78 CB        -44.8344  -30.2286    6.5565 C.3       2 UNK        -0.2002 
     79 N         -47.0350  -29.3969    5.8825 N.am      2 UNK        -0.4032 
     80 C         -48.0194  -28.6592    5.3499 C.2       1 UNK         0.5000 
     81 O         -47.8313  -27.7117    4.5825 O.2       1 UNK        -0.5238 
     82 H82       -50.4649  -32.8231    4.7044 H         1 UNK         0.0889 
     83 H83       -50.3179  -33.4470    6.3486 H         1 UNK         0.0889 
     84 H84       -48.9378  -33.5202    5.2496 H         1 UNK         0.0889 
     85 H85       -50.3660  -30.6110    4.6130 H         1 UNK         0.3028 
     86 H86       -50.1057  -28.5113    5.0173 H         1 UNK         0.0864 
     87 H87       -50.8086  -29.1183    7.4307 H         1 UNK         0.0720 
     88 H88       -49.1349  -28.9884    7.8773 H         1 UNK         0.0720 
     89 H89       -52.1963  -27.4961    6.3635 H         1 UNK         0.0814 
     90 H90       -51.4491  -26.1885    5.4778 H         1 UNK         0.0814 
     91 H91       -51.4708  -23.8423    6.4696 H         1 UNK         0.1469 
     92 H92       -54.4656  -23.0363    9.4344 H         1 UNK         0.1381 
     93 H93       -53.6673  -27.0735    8.2274 H         1 UNK         0.1206 
     94 H94       -55.6472  -26.5551    9.6128 H         1 UNK         0.0813 
     95 H95       -56.0475  -24.8991    9.9886 H         1 UNK         0.0813 
     96 H96       -52.6036  -27.2604   11.8695 H         1 UNK         0.0638 
     97 H97       -53.4534  -27.6071   10.3990 H         1 UNK         0.0638 
     98 H98       -55.3522  -28.5672   11.7195 H         1 UNK         0.0568 
     99 H99       -53.0615  -31.6837   12.5427 H         1 UNK         0.3450 
    100 H100      -53.6744  -30.5991   13.7659 H         1 UNK         0.3450 
    101 H101      -53.6972  -27.8572   14.0632 H         1 UNK         0.2987 
    102 H102      -55.6044  -27.3243   15.9800 H         1 UNK         0.0766 
    103 H103      -57.5686  -28.7871   16.3108 H         1 UNK         0.0798 
    104 H104      -56.5172  -28.8723   17.7138 H         1 UNK         0.0798 
    105 H105      -56.5312  -30.1883   16.5406 H         1 UNK         0.0798 
    106 H106      -53.6969  -27.9734   16.9325 H         1 UNK         0.3198 
    107 H107      -52.1557  -31.0145   17.5663 H         1 UNK         0.0843 
    108 H108      -50.9019  -28.9496   15.6909 H         1 UNK         0.0831 
    109 H109      -51.0847  -30.6580   15.3266 H         1 UNK         0.0831 
    110 H110      -50.0389  -30.1524   16.6446 H         1 UNK         0.0831 
    111 H111      -51.3889  -28.2313   17.9841 H         1 UNK         0.3133 
    112 H112      -52.9472  -28.0594   21.2014 H         1 UNK         0.0566 
    113 H113      -50.6166  -27.4565   21.7664 H         1 UNK         0.0814 
    114 H114      -50.0422  -28.1056   20.2320 H         1 UNK         0.0814 
    115 H115      -50.7464  -29.1753   21.4327 H         1 UNK         0.0814 
    116 H116      -53.1291  -26.0715   20.3325 H         1 UNK         0.3091 
    117 H117      -52.9829  -24.2496   19.2353 H         1 UNK         0.0702 
    118 H118      -51.2407  -22.5235   18.8236 H         1 UNK         0.0785 
    119 H119      -50.0686  -23.7711   18.3978 H         1 UNK         0.0785 
    120 H120      -50.6909  -23.6665   20.0385 H         1 UNK         0.0785 
    121 H121      -51.7633  -23.9313   16.6215 H         1 UNK         0.2998 
    122 H122      -54.3829  -25.4183   14.7657 H         1 UNK         0.0697 
    123 H123      -53.7612  -22.4351   15.1100 H         1 UNK         0.0825 
    124 H124      -55.3488  -23.1747   15.2757 H         1 UNK         0.0825 
    125 H125      -54.5427  -23.1806   13.7155 H         1 UNK         0.0825 
    126 H126      -52.0410  -23.8925   14.0456 H         1 UNK         0.3029 
    127 H127      -49.7777  -25.1044   14.1775 H         1 UNK         0.0897 
    128 H128      -50.2471  -27.8684   12.9415 H         1 UNK         0.0792 
    129 H129      -49.4813  -27.5260   14.4881 H         1 UNK         0.0792 
    130 H130      -48.6960  -27.0286   13.0031 H         1 UNK         0.0792 
    131 H131      -50.3291  -25.8532   11.4593 H         1 UNK         0.3086 
    132 H132      -51.4441  -24.1257    9.9598 H         1 UNK         0.0583 
    133 H133      -51.9173  -21.7699   10.5841 H         1 UNK         0.1020 
    134 H134      -50.2166  -21.4244   10.7225 H         1 UNK         0.1020 
    135 H135      -53.2705  -21.2057    8.4819 H         1 UNK         0.0694 
    136 H136      -52.6956  -21.4424    6.8473 H         1 UNK         0.0694 
    137 H137      -49.5275  -24.6634    9.0160 H         1 UNK         0.2989 
    138 H138      -46.1686  -23.6794    9.3673 H         1 UNK         0.1055 
    139 H139      -47.3741  -26.4269   10.0157 H         1 UNK         0.0806 
    140 H140      -46.3307  -25.5023   11.0882 H         1 UNK         0.0806 
    141 H141      -45.7008  -26.1031    9.5637 H         1 UNK         0.0806 
    142 H142      -47.2365  -25.6173    7.6523 H         1 UNK         0.3061 
    143 H143      -48.6049  -24.9325    5.5804 H         1 UNK         0.0734 
    144 H144      -47.2369  -22.4176    4.4898 H         1 UNK         0.0832 
    145 H145      -48.2024  -23.5555    3.5502 H         1 UNK         0.0832 
    146 H146      -48.9525  -22.6014    4.8202 H         1 UNK         0.0832 
    147 H147      -46.8070  -26.0245    4.9002 H         1 UNK         0.3156 
    148 H148      -44.0239  -25.5546    3.6912 H         1 UNK         0.0589 
    149 H149      -42.1797  -26.2991    5.2274 H         1 UNK         0.0808 
    150 H150      -42.4864  -24.5763    5.3456 H         1 UNK         0.0808 
    151 H151      -43.0749  -25.6528    6.6024 H         1 UNK         0.0808 
    152 H152      -44.7361  -27.6157    3.9346 H         1 UNK         0.3098 
    153 H153      -45.3988  -29.5025    4.6217 H         1 UNK         0.0720 
    154 H154      -43.7572  -30.1419    6.4075 H         1 UNK         0.0791 
    155 H155      -45.1109  -31.2591    6.3325 H         1 UNK         0.0791 
    156 H156      -45.0331  -30.0511    7.6144 H         1 UNK         0.0791 
    157 H157      -47.3240  -30.1654    6.4828 H         1 UNK         0.3028 
@<TRIPOS>BOND
     1    1    2 1    
     2    1   82 1    
     3    1   83 1    
     4    1   84 1    
     5    2    3 2    
     6    2    4 am   BACKBONE|DICT|INTERRES
     7    4    5 1    
     8    4   85 1    
     9    5    6 1    
    10    5   80 1    
    11    5   86 1    
    12    6    7 1    
    13    6   87 1    
    14    6   88 1    
    15    7    8 1    
    16    8    9 1    
    17    8   89 1    
    18    8   90 1    
    19    9   10 ar   
    20    9   14 ar   
    21   10   11 ar   
    22   10   91 1    
    23   11   12 ar   
    24   11   58 1    
    25   12   13 ar   
    26   12   92 1    
    27   13   14 ar   
    28   13   15 1    
    29   14   93 1    
    30   15   16 1    
    31   15   94 1    
    32   15   95 1    
    33   16   17 1    
    34   17   18 1    
    35   17   96 1    
    36   17   97 1    
    37   18   19 1    
    38   18   22 1    
    39   18   98 1    
    40   19   20 am   BACKBONE|DICT|INTERRES
    41   19   21 2    
    42   20   99 1    
    43   20  100 1    
    44   22   23 am   BACKBONE|DICT|INTERRES
    45   22  101 1    
    46   23   24 2    
    47   23   25 1    
    48   25   26 1    
    49   25   27 1    
    50   25  102 1    
    51   26  103 1    
    52   26  104 1    
    53   26  105 1    
    54   27   28 am   BACKBONE|DICT|INTERRES
    55   27  106 1    
    56   28   29 2    
    57   28   30 1    
    58   30   31 1    
    59   30   32 1    
    60   30  107 1    
    61   31  108 1    
    62   31  109 1    
    63   31  110 1    
    64   32   33 am   BACKBONE|DICT|INTERRES
    65   32  111 1    
    66   33   34 2    
    67   33   35 1    
    68   35   36 1    
    69   35   37 1    
    70   35  112 1    
    71   36  113 1    
    72   36  114 1    
    73   36  115 1    
    74   37   38 am   BACKBONE|DICT|INTERRES
    75   37  116 1    
    76   38   39 2    
    77   38   40 1    
    78   40   41 1    
    79   40   42 1    
    80   40  117 1    
    81   41  118 1    
    82   41  119 1    
    83   41  120 1    
    84   42   43 am   BACKBONE|DICT|INTERRES
    85   42  121 1    
    86   43   44 2    
    87   43   45 1    
    88   45   46 1    
    89   45   47 1    
    90   45  122 1    
    91   46  123 1    
    92   46  124 1    
    93   46  125 1    
    94   47   48 am   BACKBONE|DICT|INTERRES
    95   47  126 1    
    96   48   49 2    
    97   48   50 1    
    98   50   51 1    
    99   50   52 1    
   100   50  127 1    
   101   51  128 1    
   102   51  129 1    
   103   51  130 1    
   104   52   53 am   BACKBONE|DICT|INTERRES
   105   52  131 1    
   106   53   54 2    
   107   53   55 1    
   108   55   56 1    
   109   55   59 1    
   110   55  132 1    
   111   56   57 1    
   112   56  133 1    
   113   56  134 1    
   114   57   58 1    
   115   58  135 1    
   116   58  136 1    
   117   59   60 am   BACKBONE|DICT|INTERRES
   118   59  137 1    
   119   60   61 2    
   120   60   62 1    
   121   62   63 1    
   122   62   64 1    
   123   62  138 1    
   124   63  139 1    
   125   63  140 1    
   126   63  141 1    
   127   64   65 am   BACKBONE|DICT|INTERRES
   128   64  142 1    
   129   65   66 2    
   130   65   67 1    
   131   67   68 1    
   132   67   69 1    
   133   67  143 1    
   134   68  144 1    
   135   68  145 1    
   136   68  146 1    
   137   69   70 am   BACKBONE|DICT|INTERRES
   138   69  147 1    
   139   70   71 2    
   140   70   72 1    
   141   72   73 1    
   142   72   74 1    
   143   72  148 1    
   144   73  149 1    
   145   73  150 1    
   146   73  151 1    
   147   74   75 am   BACKBONE|DICT|INTERRES
   148   74  152 1    
   149   75   76 2    
   150   75   77 1    
   151   77   78 1    
   152   77   79 1    
   153   77  153 1    
   154   78  154 1    
   155   78  155 1    
   156   78  156 1    
   157   79   80 am   BACKBONE|DICT|INTERRES
   158   79  157 1    
   159   80   81 2    
@<TRIPOS>SUBSTRUCTURE
     1 UNK         1 GROUP             0       ****    0 ROOT    
