@<TRIPOS>MOLECULE
3R207
157   159    1
SMALL
USER_CHARGES


@<TRIPOS>ATOM
      1 CA        -44.9876  -26.9372    9.9714 C.3       0 UNK        -0.1975 
      2 C         -45.7680  -27.6532    8.8793 C.2       0 UNK         0.4852 
      3 O         -45.3141  -28.6782    8.3683 O.2       0 UNK        -0.5216 
      4 N         -46.9308  -27.1126    8.4974 N.am      1 UNK        -0.4461 
      5 CA        -47.8520  -27.6567    7.4933 C.3       1 UNK         0.0864 
      6 C6        -49.3038  -27.1779    7.7508 C.3       14 UNK        -0.0898 
      7 S7        -49.9965  -27.9337    9.2630 S.3       14 UNK        -0.2598 
      8 C8        -51.6025  -28.5532    8.6562 C.3       14 UNK         0.0286 
      9 C9        -52.7219  -27.5686    8.9610 C.ar      14 UNK        -0.0844 
     10 C10       -52.7626  -26.3176    8.3393 C.ar      14 UNK        -0.0881 
     11 C11       -53.7492  -25.3879    8.6817 C.ar      14 UNK        -0.0643 
     12 C12       -54.7238  -25.7351    9.6245 C.ar      14 UNK        -0.0930 
     13 C13       -54.7119  -26.9935   10.2344 C.ar      14 UNK        -0.0827 
     14 C14       -53.7084  -27.9026    9.8913 C.ar      14 UNK        -0.1249 
     15 C15       -55.7447  -27.3362   11.3043 C.3       14 UNK         0.0141 
     16 S16       -56.7068  -28.8381   10.9415 S.3       14 UNK        -0.2313 
     17 C17       -55.7340  -30.1303   11.7938 C.3       14 UNK        -0.0915 
     18 CA        -56.4236  -30.6416   13.0870 C.3       13 UNK         0.0968 
     19 C         -55.8272  -31.9967   13.5741 C.2       13 UNK         0.5732 
     20 N         -55.5507  -32.1959   14.8578 N.am      13 UNK        -0.7310 
     21 O         -55.6269  -32.9054   12.7715 O.2       13 UNK        -0.5035 
     22 N         -56.4373  -29.6058   14.1337 N.am      13 UNK        -0.4233 
     23 C         -57.4758  -29.3528   14.9400 C.2       13 UNK         0.4989 
     24 O         -58.5773  -29.8949   14.8267 O.2       13 UNK        -0.4996 
     25 CA        -57.2364  -28.3339   16.0753 C.3       12 UNK         0.0216 
     26 CB        -58.3513  -28.3520   17.1425 C.3       12 UNK        -0.1964 
     27 N         -55.9202  -28.4633   16.7152 N.am      12 UNK        -0.4276 
     28 C         -55.3879  -29.5622   17.2764 C.2       12 UNK         0.5020 
     29 O         -55.9738  -30.6438   17.3362 O.2       12 UNK        -0.5489 
     30 CA        -53.9502  -29.4718   17.8255 C.3       11 UNK         0.0294 
     31 CB        -53.0618  -30.5640   17.2021 C.3       11 UNK        -0.2019 
     32 N         -53.3367  -28.1703   17.5608 N.am      11 UNK        -0.4493 
     33 C         -53.2768  -27.1453   18.4219 C.2       11 UNK         0.4932 
     34 O         -53.6653  -27.2044   19.5882 O.2       11 UNK        -0.5029 
     35 CA        -52.7128  -25.8163   17.8803 C.3       10 UNK         0.0280 
     36 CB        -51.2268  -25.6753   18.2453 C.3       10 UNK        -0.1976 
     37 N         -52.8723  -25.6705   16.4288 N.am      10 UNK        -0.4242 
     38 C         -54.0556  -25.5722   15.8013 C.2       10 UNK         0.5072 
     39 O         -55.1353  -25.5208   16.3896 O.2       10 UNK        -0.5224 
     40 CA        -54.0502  -25.6407   14.2653 C.3       9 UNK         0.0343 
     41 CB        -54.0237  -24.2337   13.6523 C.3       9 UNK        -0.2003 
     42 N         -52.9424  -26.4526   13.7436 N.am      9 UNK        -0.4272 
     43 C         -52.8410  -27.7797   13.9344 C.2       9 UNK         0.4988 
     44 O         -53.7476  -28.4489   14.4330 O.2       9 UNK        -0.5108 
     45 CA        -51.5158  -28.4866   13.5850 C.3       8 UNK         0.0248 
     46 CB        -51.7117  -29.6357   12.5858 C.3       8 UNK        -0.2001 
     47 N         -50.4613  -27.5938   13.1016 N.am      8 UNK        -0.4140 
     48 C         -49.7484  -26.7741   13.8847 C.2       8 UNK         0.5028 
     49 O         -49.9166  -26.6733   15.1006 O.2       8 UNK        -0.5428 
     50 CA        -48.7129  -25.8800   13.1835 C.3       7 UNK         0.0264 
     51 CB        -47.3844  -26.6296   12.9945 C.3       7 UNK        -0.1988 
     52 N         -49.1562  -25.3536   11.8887 N.am      7 UNK        -0.4454 
     53 C         -50.2438  -24.5986   11.6807 C.2       7 UNK         0.5027 
     54 O         -51.0545  -24.3281   12.5661 O.2       7 UNK        -0.5083 
     55 CA        -50.4259  -24.0259   10.2573 C.3       6 UNK         0.0844 
     56 C56       -51.8018  -23.3345   10.0640 C.3       14 UNK        -0.0967 
     57 S57       -52.1691  -23.0948    8.2899 S.3       14 UNK        -0.2604 
     58 C58       -53.7475  -23.9920    8.0671 C.3       14 UNK         0.0134 
     59 N         -49.3254  -23.1068    9.9433 N.am      6 UNK        -0.4116 
     60 C         -48.0716  -23.4575    9.6355 C.2       5 UNK         0.5034 
     61 O         -47.6999  -24.6241    9.4760 O.2       5 UNK        -0.5045 
     62 CA        -47.0431  -22.3249    9.5934 C.3       5 UNK         0.0224 
     63 CB        -46.6506  -21.9386   11.0367 C.3       5 UNK        -0.1978 
     64 N         -45.8692  -22.7702    8.8429 N.am      5 UNK        -0.4737 
     65 C         -44.8399  -21.9972    8.4799 C.2       4 UNK         0.5027 
     66 O         -44.7718  -20.7891    8.7097 O.2       4 UNK        -0.5211 
     67 CA        -43.6821  -22.6865    7.7376 C.3       4 UNK         0.0297 
     68 CB        -42.8530  -23.5455    8.7076 C.3       4 UNK        -0.1993 
     69 N         -44.0761  -23.4949    6.5771 N.am      4 UNK        -0.4486 
     70 C         -44.7533  -23.0386    5.5108 C.2       3 UNK         0.4961 
     71 O         -45.2592  -21.9190    5.4368 O.2       3 UNK        -0.5105 
     72 CA        -44.8387  -23.9670    4.2929 C.3       3 UNK         0.0299 
     73 CB        -43.5705  -23.7962    3.4277 C.3       3 UNK        -0.1972 
     74 N         -45.0432  -25.3679    4.6754 N.am      3 UNK        -0.4305 
     75 C         -45.3381  -26.3573    3.8204 C.2       2 UNK         0.5006 
     76 O         -45.4587  -26.2042    2.6039 O.2       2 UNK        -0.5106 
     77 CA        -45.5333  -27.7659    4.4085 C.3       2 UNK         0.0296 
     78 CB        -44.1936  -28.5195    4.4466 C.3       2 UNK        -0.2002 
     79 N         -46.1446  -27.8028    5.7400 N.am      2 UNK        -0.4032 
     80 C         -47.3672  -27.3543    6.0572 C.2       1 UNK         0.5000 
     81 O         -48.0937  -26.7446    5.2695 O.2       1 UNK        -0.5238 
     82 H82       -44.9819  -27.5383   10.8801 H         1 UNK         0.0889 
     83 H83       -45.4168  -25.9643   10.2099 H         1 UNK         0.0889 
     84 H84       -43.9553  -26.7859    9.6581 H         1 UNK         0.0889 
     85 H85       -47.2332  -26.2347    8.9177 H         1 UNK         0.3028 
     86 H86       -47.8488  -28.7458    7.5805 H         1 UNK         0.0864 
     87 H87       -49.3444  -26.0913    7.8363 H         1 UNK         0.0720 
     88 H88       -49.9445  -27.4322    6.9056 H         1 UNK         0.0720 
     89 H89       -51.7987  -29.5126    9.1370 H         1 UNK         0.0814 
     90 H90       -51.5733  -28.7647    7.5871 H         1 UNK         0.0814 
     91 H91       -52.0016  -26.0487    7.6201 H         1 UNK         0.1469 
     92 H92       -55.4830  -25.0153    9.8983 H         1 UNK         0.1381 
     93 H93       -53.6906  -28.8759   10.3527 H         1 UNK         0.1206 
     94 H94       -56.4437  -26.5097   11.4396 H         1 UNK         0.0813 
     95 H95       -55.2399  -27.4662   12.2573 H         1 UNK         0.0813 
     96 H96       -54.7353  -29.7682   12.0326 H         1 UNK         0.0638 
     97 H97       -55.5997  -30.9382   11.0725 H         1 UNK         0.0638 
     98 H98       -57.4523  -30.8853   12.8165 H         1 UNK         0.0568 
     99 H99       -55.7613  -31.4998   15.5646 H         1 UNK         0.3450 
    100 H100      -55.1750  -33.0872   15.1376 H         1 UNK         0.3450 
    101 H101      -55.5452  -29.1539   14.3162 H         1 UNK         0.2987 
    102 H102      -57.2489  -27.3508   15.6024 H         1 UNK         0.0766 
    103 H103      -59.3244  -28.1386   16.6986 H         1 UNK         0.0798 
    104 H104      -58.1760  -27.5987   17.9107 H         1 UNK         0.0798 
    105 H105      -58.4226  -29.3227   17.6346 H         1 UNK         0.0798 
    106 H106      -55.3649  -27.6159   16.7155 H         1 UNK         0.3198 
    107 H107      -54.0033  -29.6475   18.9020 H         1 UNK         0.0843 
    108 H108      -53.0211  -30.4830   16.1151 H         1 UNK         0.0831 
    109 H109      -53.4406  -31.5594   17.4380 H         1 UNK         0.0831 
    110 H110      -52.0413  -30.5112   17.5817 H         1 UNK         0.0831 
    111 H111      -53.0150  -28.0232   16.6140 H         1 UNK         0.3133 
    112 H112      -53.2620  -25.0042   18.3611 H         1 UNK         0.0566 
    113 H113      -50.8267  -24.7143   17.9213 H         1 UNK         0.0814 
    114 H114      -50.6225  -26.4608   17.7895 H         1 UNK         0.0814 
    115 H115      -51.0824  -25.7382   19.3248 H         1 UNK         0.0814 
    116 H116      -52.0286  -25.7265   15.8718 H         1 UNK         0.3091 
    117 H117      -54.9895  -26.1098   13.9722 H         1 UNK         0.0702 
    118 H118      -54.0221  -24.2754   12.5631 H         1 UNK         0.0785 
    119 H119      -53.1476  -23.6687   13.9718 H         1 UNK         0.0785 
    120 H120      -54.9030  -23.6632   13.9539 H         1 UNK         0.0785 
    121 H121      -52.1700  -25.9455   13.3253 H         1 UNK         0.2998 
    122 H122      -51.1705  -28.9360   14.5187 H         1 UNK         0.0697 
    123 H123      -51.9171  -29.2649   11.5857 H         1 UNK         0.0825 
    124 H124      -52.5337  -30.2891   12.8808 H         1 UNK         0.0825 
    125 H125      -50.8176  -30.2564   12.5258 H         1 UNK         0.0825 
    126 H126      -50.2763  -27.5939   12.1078 H         1 UNK         0.3029 
    127 H127      -48.5324  -25.0240   13.8372 H         1 UNK         0.0897 
    128 H128      -47.4861  -27.4648   12.3001 H         1 UNK         0.0792 
    129 H129      -47.0248  -27.0335   13.9420 H         1 UNK         0.0792 
    130 H130      -46.6077  -25.9671   12.6118 H         1 UNK         0.0792 
    131 H131      -48.5324  -25.4870   11.1002 H         1 UNK         0.3086 
    132 H132      -50.3793  -24.8778    9.5775 H         1 UNK         0.0583 
    133 H133      -52.6001  -23.9184   10.5229 H         1 UNK         0.1020 
    134 H134      -51.8270  -22.3671   10.5685 H         1 UNK         0.1020 
    135 H135      -54.5479  -23.3842    8.4919 H         1 UNK         0.0694 
    136 H136      -53.9586  -24.0743    7.0002 H         1 UNK         0.0694 
    137 H137      -49.5303  -22.1273   10.0748 H         1 UNK         0.2989 
    138 H138      -47.4837  -21.4669    9.0809 H         1 UNK         0.1055 
    139 H139      -46.1654  -22.7672   11.5547 H         1 UNK         0.0806 
    140 H140      -47.5243  -21.6552   11.6250 H         1 UNK         0.0806 
    141 H141      -45.9698  -21.0881   11.0596 H         1 UNK         0.0806 
    142 H142      -45.8764  -23.7511    8.5956 H         1 UNK         0.3061 
    143 H143      -43.0312  -21.8944    7.3609 H         1 UNK         0.0734 
    144 H144      -43.4206  -24.3966    9.0837 H         1 UNK         0.0832 
    145 H145      -41.9498  -23.9268    8.2309 H         1 UNK         0.0832 
    146 H146      -42.5357  -22.9605    9.5723 H         1 UNK         0.0832 
    147 H147      -43.6414  -24.4028    6.5099 H         1 UNK         0.3156 
    148 H148      -45.7047  -23.6509    3.7072 H         1 UNK         0.0589 
    149 H149      -43.3782  -22.7429    3.2179 H         1 UNK         0.0808 
    150 H150      -42.6861  -24.1958    3.9252 H         1 UNK         0.0808 
    151 H151      -43.6642  -24.2946    2.4634 H         1 UNK         0.0808 
    152 H152      -45.0420  -25.5775    5.6626 H         1 UNK         0.3098 
    153 H153      -46.2034  -28.3035    3.7343 H         1 UNK         0.0720 
    154 H154      -44.3305  -29.5579    4.7493 H         1 UNK         0.0791 
    155 H155      -43.4898  -28.0578    5.1403 H         1 UNK         0.0791 
    156 H156      -43.7224  -28.5307    3.4625 H         1 UNK         0.0791 
    157 H157      -45.6263  -28.2756    6.4759 H         1 UNK         0.3028 
@<TRIPOS>BOND
     1    1    2 1    
     2    1   82 1    
     3    1   83 1    
     4    1   84 1    
     5    2    3 2    
     6    2    4 am   BACKBONE|DICT|INTERRES
     7    4    5 1    
     8    4   85 1    
     9    5    6 1    
    10    5   80 1    
    11    5   86 1    
    12    6    7 1    
    13    6   87 1    
    14    6   88 1    
    15    7    8 1    
    16    8    9 1    
    17    8   89 1    
    18    8   90 1    
    19    9   10 ar   
    20    9   14 ar   
    21   10   11 ar   
    22   10   91 1    
    23   11   12 ar   
    24   11   58 1    
    25   12   13 ar   
    26   12   92 1    
    27   13   14 ar   
    28   13   15 1    
    29   14   93 1    
    30   15   16 1    
    31   15   94 1    
    32   15   95 1    
    33   16   17 1    
    34   17   18 1    
    35   17   96 1    
    36   17   97 1    
    37   18   19 1    
    38   18   22 1    
    39   18   98 1    
    40   19   20 am   BACKBONE|DICT|INTERRES
    41   19   21 2    
    42   20   99 1    
    43   20  100 1    
    44   22   23 am   BACKBONE|DICT|INTERRES
    45   22  101 1    
    46   23   24 2    
    47   23   25 1    
    48   25   26 1    
    49   25   27 1    
    50   25  102 1    
    51   26  103 1    
    52   26  104 1    
    53   26  105 1    
    54   27   28 am   BACKBONE|DICT|INTERRES
    55   27  106 1    
    56   28   29 2    
    57   28   30 1    
    58   30   31 1    
    59   30   32 1    
    60   30  107 1    
    61   31  108 1    
    62   31  109 1    
    63   31  110 1    
    64   32   33 am   BACKBONE|DICT|INTERRES
    65   32  111 1    
    66   33   34 2    
    67   33   35 1    
    68   35   36 1    
    69   35   37 1    
    70   35  112 1    
    71   36  113 1    
    72   36  114 1    
    73   36  115 1    
    74   37   38 am   BACKBONE|DICT|INTERRES
    75   37  116 1    
    76   38   39 2    
    77   38   40 1    
    78   40   41 1    
    79   40   42 1    
    80   40  117 1    
    81   41  118 1    
    82   41  119 1    
    83   41  120 1    
    84   42   43 am   BACKBONE|DICT|INTERRES
    85   42  121 1    
    86   43   44 2    
    87   43   45 1    
    88   45   46 1    
    89   45   47 1    
    90   45  122 1    
    91   46  123 1    
    92   46  124 1    
    93   46  125 1    
    94   47   48 am   BACKBONE|DICT|INTERRES
    95   47  126 1    
    96   48   49 2    
    97   48   50 1    
    98   50   51 1    
    99   50   52 1    
   100   50  127 1    
   101   51  128 1    
   102   51  129 1    
   103   51  130 1    
   104   52   53 am   BACKBONE|DICT|INTERRES
   105   52  131 1    
   106   53   54 2    
   107   53   55 1    
   108   55   56 1    
   109   55   59 1    
   110   55  132 1    
   111   56   57 1    
   112   56  133 1    
   113   56  134 1    
   114   57   58 1    
   115   58  135 1    
   116   58  136 1    
   117   59   60 am   BACKBONE|DICT|INTERRES
   118   59  137 1    
   119   60   61 2    
   120   60   62 1    
   121   62   63 1    
   122   62   64 1    
   123   62  138 1    
   124   63  139 1    
   125   63  140 1    
   126   63  141 1    
   127   64   65 am   BACKBONE|DICT|INTERRES
   128   64  142 1    
   129   65   66 2    
   130   65   67 1    
   131   67   68 1    
   132   67   69 1    
   133   67  143 1    
   134   68  144 1    
   135   68  145 1    
   136   68  146 1    
   137   69   70 am   BACKBONE|DICT|INTERRES
   138   69  147 1    
   139   70   71 2    
   140   70   72 1    
   141   72   73 1    
   142   72   74 1    
   143   72  148 1    
   144   73  149 1    
   145   73  150 1    
   146   73  151 1    
   147   74   75 am   BACKBONE|DICT|INTERRES
   148   74  152 1    
   149   75   76 2    
   150   75   77 1    
   151   77   78 1    
   152   77   79 1    
   153   77  153 1    
   154   78  154 1    
   155   78  155 1    
   156   78  156 1    
   157   79   80 am   BACKBONE|DICT|INTERRES
   158   79  157 1    
   159   80   81 2    
@<TRIPOS>SUBSTRUCTURE
     1 UNK         1 GROUP             0       ****    0 ROOT    
