@<TRIPOS>MOLECULE
3R207
157   159    1
SMALL
USER_CHARGES


@<TRIPOS>ATOM
      1 CA        -55.9535  -25.4806    5.3989 C.3       0 UNK        -0.1975 
      2 C         -54.5716  -25.2366    5.9871 C.2       0 UNK         0.4852 
      3 O         -54.3120  -24.1506    6.5076 O.2       0 UNK        -0.5216 
      4 N         -53.6906  -26.2426    5.9202 N.am      1 UNK        -0.4461 
      5 CA        -52.3105  -26.1801    6.4123 C.3       1 UNK         0.0864 
      6 C6        -51.6675  -27.5850    6.5203 C.3       14 UNK        -0.0898 
      7 S7        -52.5539  -28.6622    7.6862 S.3       14 UNK        -0.2598 
      8 C8        -51.4210  -30.0887    7.7884 C.3       14 UNK         0.0286 
      9 C9        -50.8999  -30.3351    9.2003 C.ar      14 UNK        -0.0844 
     10 C10       -49.5384  -30.5663    9.4254 C.ar      14 UNK        -0.0881 
     11 C11       -49.0696  -30.8791   10.7068 C.ar      14 UNK        -0.0643 
     12 C12       -49.9750  -30.9473   11.7716 C.ar      14 UNK        -0.0930 
     13 C13       -51.3361  -30.7045   11.5630 C.ar      14 UNK        -0.0827 
     14 C14       -51.7881  -30.3998   10.2770 C.ar      14 UNK        -0.1249 
     15 C15       -52.3205  -30.7474   12.7224 C.3       14 UNK         0.0141 
     16 S16       -53.6904  -31.9110   12.4275 S.3       14 UNK        -0.2313 
     17 C17       -55.0036  -31.1915   13.4712 C.3       14 UNK        -0.0915 
     18 CA        -55.9485  -30.2591   12.6626 C.3       13 UNK         0.0968 
     19 C         -57.2510  -29.9168   13.4442 C.2       13 UNK         0.5732 
     20 N         -57.6739  -28.6607   13.5415 N.am      13 UNK        -0.7310 
     21 O         -57.9154  -30.8169   13.9532 O.2       13 UNK        -0.5035 
     22 N         -55.2369  -29.0616   12.1952 N.am      13 UNK        -0.4233 
     23 C         -55.2496  -28.5840   10.9450 C.2       13 UNK         0.4989 
     24 O         -55.8252  -29.1424   10.0095 O.2       13 UNK        -0.4996 
     25 CA        -54.4852  -27.2648   10.6893 C.3       12 UNK         0.0216 
     26 CB        -55.0908  -26.4473    9.5292 C.3       12 UNK        -0.1964 
     27 N         -54.3164  -26.4152   11.8763 N.am      12 UNK        -0.4276 
     28 C         -55.2731  -25.9312   12.6794 C.2       12 UNK         0.5020 
     29 O         -56.4771  -26.1451   12.5191 O.2       12 UNK        -0.5489 
     30 CA        -54.7829  -25.1316   13.9036 C.3       11 UNK         0.0294 
     31 CB        -55.9357  -24.7399   14.8511 C.3       11 UNK        -0.2019 
     32 N         -53.7227  -25.8068   14.6685 N.am      11 UNK        -0.4493 
     33 C         -53.7262  -27.0621   15.1470 C.2       11 UNK         0.4932 
     34 O         -54.6078  -27.8846   14.8977 O.2       11 UNK        -0.5029 
     35 CA        -52.5617  -27.4806   16.0652 C.3       10 UNK         0.0280 
     36 CB        -52.0905  -28.9178   15.7945 C.3       10 UNK        -0.1976 
     37 N         -51.4084  -26.5815   15.9800 N.am      10 UNK        -0.4242 
     38 C         -51.1696  -25.5727   16.8281 C.2       10 UNK         0.5072 
     39 O         -51.9161  -25.2639   17.7579 O.2       10 UNK        -0.5224 
     40 CA        -49.8838  -24.7633   16.6015 C.3       9 UNK         0.0343 
     41 CB        -48.6771  -25.4973   17.2079 C.3       9 UNK        -0.2003 
     42 N         -49.6241  -24.4565   15.1919 N.am      9 UNK        -0.4272 
     43 C         -50.3919  -23.6550   14.4378 C.2       9 UNK         0.4988 
     44 O         -51.4298  -23.1261   14.8377 O.2       9 UNK        -0.5108 
     45 CA        -49.9345  -23.4068   12.9904 C.3       8 UNK         0.0248 
     46 CB        -48.7004  -22.4908   12.9481 C.3       8 UNK        -0.2001 
     47 N         -49.6537  -24.6461   12.2675 N.am      8 UNK        -0.4140 
     48 C         -50.5714  -25.5786   11.9772 C.2       8 UNK         0.5028 
     49 O         -51.7683  -25.4733   12.2391 O.2       8 UNK        -0.5428 
     50 CA        -50.0666  -26.8668   11.3146 C.3       7 UNK         0.0264 
     51 CB        -49.8967  -26.6697    9.8003 C.3       7 UNK        -0.1988 
     52 N         -48.8124  -27.3361   11.9015 N.am      7 UNK        -0.4454 
     53 C         -48.6645  -27.7358   13.1730 C.2       7 UNK         0.5027 
     54 O         -49.5722  -27.7385   14.0053 O.2       7 UNK        -0.5083 
     55 CA        -47.2428  -28.1476   13.6025 C.3       6 UNK         0.0844 
     56 C56       -46.8628  -29.5725   13.1277 C.3       14 UNK        -0.0967 
     57 S57       -46.5966  -29.7323   11.3225 S.3       14 UNK        -0.2604 
     58 C58       -47.5956  -31.2025   10.9206 C.3       14 UNK         0.0134 
     59 N         -46.2433  -27.1467   13.2238 N.am      6 UNK        -0.4116 
     60 C         -46.2039  -25.8918   13.6921 C.2       5 UNK         0.5034 
     61 O         -46.9950  -25.4361   14.5160 O.2       5 UNK        -0.5045 
     62 CA        -45.1205  -24.9714   13.1109 C.3       5 UNK         0.0224 
     63 CB        -43.7862  -25.1733   13.8467 C.3       5 UNK        -0.1978 
     64 N         -44.9182  -25.1306   11.6667 N.am      5 UNK        -0.4737 
     65 C         -45.8672  -24.9408   10.7416 C.2       4 UNK         0.5027 
     66 O         -47.0494  -24.7046   11.0031 O.2       4 UNK        -0.5211 
     67 CA        -45.4291  -25.0504    9.2801 C.3       4 UNK         0.0297 
     68 CB        -45.8208  -26.4220    8.7054 C.3       4 UNK        -0.1993 
     69 N         -46.1184  -24.0023    8.5377 N.am      4 UNK        -0.4486 
     70 C         -45.5534  -22.9852    7.8816 C.2       3 UNK         0.4961 
     71 O         -44.3367  -22.8601    7.7304 O.2       3 UNK        -0.5105 
     72 CA        -46.5235  -21.9391    7.2873 C.3       3 UNK         0.0299 
     73 CB        -45.7898  -20.7794    6.5874 C.3       3 UNK        -0.1972 
     74 N         -47.4766  -22.5358    6.3450 N.am      3 UNK        -0.4305 
     75 C         -48.5232  -23.2999    6.6819 C.2       2 UNK         0.5006 
     76 O         -48.8412  -23.5436    7.8513 O.2       2 UNK        -0.5106 
     77 CA        -49.3178  -23.9332    5.5318 C.3       2 UNK         0.0296 
     78 CB        -48.4147  -24.8151    4.6415 C.3       2 UNK        -0.2002 
     79 N         -50.3714  -24.7405    6.1345 N.am      2 UNK        -0.4032 
     80 C         -51.4309  -25.2770    5.5253 C.2       1 UNK         0.5000 
     81 O         -51.6884  -25.1309    4.3264 O.2       1 UNK        -0.5238 
     82 H82       -56.7145  -25.3634    6.1700 H         1 UNK         0.0889 
     83 H83       -56.0473  -26.4823    4.9798 H         1 UNK         0.0889 
     84 H84       -56.1562  -24.7608    4.6063 H         1 UNK         0.0889 
     85 H85       -53.9529  -27.1091    5.4734 H         1 UNK         0.3028 
     86 H86       -52.3407  -25.7385    7.4112 H         1 UNK         0.0864 
     87 H87       -50.6323  -27.5097    6.8598 H         1 UNK         0.0720 
     88 H88       -51.6387  -28.0750    5.5448 H         1 UNK         0.0720 
     89 H89       -50.5931  -29.9599    7.0899 H         1 UNK         0.0814 
     90 H90       -51.9579  -30.9792    7.4591 H         1 UNK         0.0814 
     91 H91       -48.8426  -30.5315    8.5982 H         1 UNK         0.1469 
     92 H92       -49.6229  -31.1977   12.7620 H         1 UNK         0.1381 
     93 H93       -52.8429  -30.2306   10.1103 H         1 UNK         0.1206 
     94 H94       -52.7104  -29.7407   12.8687 H         1 UNK         0.0813 
     95 H95       -51.8208  -31.0336   13.6486 H         1 UNK         0.0813 
     96 H96       -54.5629  -30.6628   14.3177 H         1 UNK         0.0638 
     97 H97       -55.5592  -32.0299   13.8947 H         1 UNK         0.0638 
     98 H98       -56.2945  -30.8290   11.7989 H         1 UNK         0.0568 
     99 H99       -57.1548  -27.8927   13.1269 H         1 UNK         0.3450 
    100 H100      -58.5241  -28.4705   14.0461 H         1 UNK         0.3450 
    101 H101      -54.8181  -28.5053   12.9321 H         1 UNK         0.2987 
    102 H102      -53.4778  -27.5604   10.3930 H         1 UNK         0.0766 
    103 H103      -54.5058  -25.5495    9.3292 H         1 UNK         0.0798 
    104 H104      -56.1154  -26.1417    9.7429 H         1 UNK         0.0798 
    105 H105      -55.1093  -27.0282    8.6064 H         1 UNK         0.0798 
    106 H106      -53.3526  -26.1452   12.0920 H         1 UNK         0.3198 
    107 H107      -54.3435  -24.2123   13.5126 H         1 UNK         0.0843 
    108 H108      -56.4277  -25.6191   15.2693 H         1 UNK         0.0831 
    109 H109      -56.6955  -24.1599   14.3256 H         1 UNK         0.0831 
    110 H110      -55.5784  -24.1289   15.6799 H         1 UNK         0.0831 
    111 H111      -52.9164  -25.2340   14.8811 H         1 UNK         0.3133 
    112 H112      -52.9622  -27.4663   17.0807 H         1 UNK         0.0566 
    113 H113      -51.3323  -29.2257   16.5144 H         1 UNK         0.0814 
    114 H114      -52.9114  -29.6318   15.8671 H         1 UNK         0.0814 
    115 H115      -51.6565  -29.0059   14.8017 H         1 UNK         0.0814 
    116 H116      -50.7343  -26.7842   15.2444 H         1 UNK         0.3091 
    117 H117      -49.9974  -23.8134   17.1281 H         1 UNK         0.0702 
    118 H118      -47.7742  -24.8892   17.1497 H         1 UNK         0.0785 
    119 H119      -48.4792  -26.4394   16.6946 H         1 UNK         0.0785 
    120 H120      -48.8457  -25.7265   18.2610 H         1 UNK         0.0785 
    121 H121      -48.7702  -24.8438   14.7963 H         1 UNK         0.2998 
    122 H122      -50.7483  -22.8994   12.4682 H         1 UNK         0.0697 
    123 H123      -47.8355  -22.9531   13.4245 H         1 UNK         0.0825 
    124 H124      -48.8943  -21.5491   13.4632 H         1 UNK         0.0825 
    125 H125      -48.4234  -22.2493   11.9215 H         1 UNK         0.0825 
    126 H126      -48.6953  -24.7919   11.9570 H         1 UNK         0.3029 
    127 H127      -50.8169  -27.6440   11.4768 H         1 UNK         0.0897 
    128 H128      -49.1695  -25.8898    9.5708 H         1 UNK         0.0792 
    129 H129      -50.8436  -26.3796    9.3445 H         1 UNK         0.0792 
    130 H130      -49.5725  -27.5894    9.3139 H         1 UNK         0.0792 
    131 H131      -48.0036  -27.3567   11.2980 H         1 UNK         0.3086 
    132 H132      -47.2517  -28.1740   14.6946 H         1 UNK         0.0583 
    133 H133      -45.9386  -29.8777   13.6208 H         1 UNK         0.1020 
    134 H134      -47.6108  -30.2898   13.4666 H         1 UNK         0.1020 
    135 H135      -47.1891  -31.6535   10.0141 H         1 UNK         0.0694 
    136 H136      -47.4791  -31.9554   11.7016 H         1 UNK         0.0694 
    137 H137      -45.5670  -27.4263   12.5287 H         1 UNK         0.2989 
    138 H138      -45.4498  -23.9440   13.2812 H         1 UNK         0.1055 
    139 H139      -43.9113  -25.0451   14.9230 H         1 UNK         0.0806 
    140 H140      -43.0399  -24.4478   13.5223 H         1 UNK         0.0806 
    141 H141      -43.3785  -26.1716   13.6829 H         1 UNK         0.0806 
    142 H142      -43.9763  -25.3325   11.3615 H         1 UNK         0.3061 
    143 H143      -44.3462  -24.9263    9.2129 H         1 UNK         0.0734 
    144 H144      -46.8959  -26.5956    8.7636 H         1 UNK         0.0832 
    145 H145      -45.5265  -26.5092    7.6594 H         1 UNK         0.0832 
    146 H146      -45.3299  -27.2302    9.2493 H         1 UNK         0.0832 
    147 H147      -47.1305  -23.9851    8.6432 H         1 UNK         0.3156 
    148 H148      -47.0847  -21.5151    8.1229 H         1 UNK         0.0589 
    149 H149      -45.2064  -21.1261    5.7334 H         1 UNK         0.0808 
    150 H150      -46.4900  -20.0233    6.2317 H         1 UNK         0.0808 
    151 H151      -45.1016  -20.2822    7.2724 H         1 UNK         0.0808 
    152 H152      -47.2694  -22.4099    5.3646 H         1 UNK         0.3098 
    153 H153      -49.7704  -23.1357    4.9394 H         1 UNK         0.0720 
    154 H154      -48.9829  -25.2994    3.8474 H         1 UNK         0.0791 
    155 H155      -47.9220  -25.5972    5.2210 H         1 UNK         0.0791 
    156 H156      -47.6355  -24.2284    4.1544 H         1 UNK         0.0791 
    157 H157      -50.2503  -24.8478    7.1353 H         1 UNK         0.3028 
@<TRIPOS>BOND
     1    1    2 1    
     2    1   82 1    
     3    1   83 1    
     4    1   84 1    
     5    2    3 2    
     6    2    4 am   BACKBONE|DICT|INTERRES
     7    4    5 1    
     8    4   85 1    
     9    5    6 1    
    10    5   80 1    
    11    5   86 1    
    12    6    7 1    
    13    6   87 1    
    14    6   88 1    
    15    7    8 1    
    16    8    9 1    
    17    8   89 1    
    18    8   90 1    
    19    9   10 ar   
    20    9   14 ar   
    21   10   11 ar   
    22   10   91 1    
    23   11   12 ar   
    24   11   58 1    
    25   12   13 ar   
    26   12   92 1    
    27   13   14 ar   
    28   13   15 1    
    29   14   93 1    
    30   15   16 1    
    31   15   94 1    
    32   15   95 1    
    33   16   17 1    
    34   17   18 1    
    35   17   96 1    
    36   17   97 1    
    37   18   19 1    
    38   18   22 1    
    39   18   98 1    
    40   19   20 am   BACKBONE|DICT|INTERRES
    41   19   21 2    
    42   20   99 1    
    43   20  100 1    
    44   22   23 am   BACKBONE|DICT|INTERRES
    45   22  101 1    
    46   23   24 2    
    47   23   25 1    
    48   25   26 1    
    49   25   27 1    
    50   25  102 1    
    51   26  103 1    
    52   26  104 1    
    53   26  105 1    
    54   27   28 am   BACKBONE|DICT|INTERRES
    55   27  106 1    
    56   28   29 2    
    57   28   30 1    
    58   30   31 1    
    59   30   32 1    
    60   30  107 1    
    61   31  108 1    
    62   31  109 1    
    63   31  110 1    
    64   32   33 am   BACKBONE|DICT|INTERRES
    65   32  111 1    
    66   33   34 2    
    67   33   35 1    
    68   35   36 1    
    69   35   37 1    
    70   35  112 1    
    71   36  113 1    
    72   36  114 1    
    73   36  115 1    
    74   37   38 am   BACKBONE|DICT|INTERRES
    75   37  116 1    
    76   38   39 2    
    77   38   40 1    
    78   40   41 1    
    79   40   42 1    
    80   40  117 1    
    81   41  118 1    
    82   41  119 1    
    83   41  120 1    
    84   42   43 am   BACKBONE|DICT|INTERRES
    85   42  121 1    
    86   43   44 2    
    87   43   45 1    
    88   45   46 1    
    89   45   47 1    
    90   45  122 1    
    91   46  123 1    
    92   46  124 1    
    93   46  125 1    
    94   47   48 am   BACKBONE|DICT|INTERRES
    95   47  126 1    
    96   48   49 2    
    97   48   50 1    
    98   50   51 1    
    99   50   52 1    
   100   50  127 1    
   101   51  128 1    
   102   51  129 1    
   103   51  130 1    
   104   52   53 am   BACKBONE|DICT|INTERRES
   105   52  131 1    
   106   53   54 2    
   107   53   55 1    
   108   55   56 1    
   109   55   59 1    
   110   55  132 1    
   111   56   57 1    
   112   56  133 1    
   113   56  134 1    
   114   57   58 1    
   115   58  135 1    
   116   58  136 1    
   117   59   60 am   BACKBONE|DICT|INTERRES
   118   59  137 1    
   119   60   61 2    
   120   60   62 1    
   121   62   63 1    
   122   62   64 1    
   123   62  138 1    
   124   63  139 1    
   125   63  140 1    
   126   63  141 1    
   127   64   65 am   BACKBONE|DICT|INTERRES
   128   64  142 1    
   129   65   66 2    
   130   65   67 1    
   131   67   68 1    
   132   67   69 1    
   133   67  143 1    
   134   68  144 1    
   135   68  145 1    
   136   68  146 1    
   137   69   70 am   BACKBONE|DICT|INTERRES
   138   69  147 1    
   139   70   71 2    
   140   70   72 1    
   141   72   73 1    
   142   72   74 1    
   143   72  148 1    
   144   73  149 1    
   145   73  150 1    
   146   73  151 1    
   147   74   75 am   BACKBONE|DICT|INTERRES
   148   74  152 1    
   149   75   76 2    
   150   75   77 1    
   151   77   78 1    
   152   77   79 1    
   153   77  153 1    
   154   78  154 1    
   155   78  155 1    
   156   78  156 1    
   157   79   80 am   BACKBONE|DICT|INTERRES
   158   79  157 1    
   159   80   81 2    
@<TRIPOS>SUBSTRUCTURE
     1 UNK         1 GROUP             0       ****    0 ROOT    
