@<TRIPOS>MOLECULE
3R207
157   159    1
SMALL
USER_CHARGES


@<TRIPOS>ATOM
      1 CA        -49.1770  -28.0269    1.1648 C.3       0 UNK        -0.1975 
      2 C         -48.6405  -28.8327    2.3389 C.2       0 UNK         0.4852 
      3 O         -47.6731  -29.5756    2.1707 O.2       0 UNK        -0.5216 
      4 N         -49.2679  -28.6824    3.5150 N.am      1 UNK        -0.4461 
      5 CA        -48.9469  -29.3458    4.7896 C.3       1 UNK         0.0864 
      6 C6        -49.2911  -30.8630    4.7638 C.3       14 UNK        -0.0898 
      7 S7        -51.0495  -31.1904    4.3922 S.3       14 UNK        -0.2598 
      8 C8        -51.6675  -31.8232    5.9839 C.3       14 UNK         0.0286 
      9 C9        -51.8918  -30.7049    6.9908 C.ar      14 UNK        -0.0844 
     10 C10       -50.8833  -30.3482    7.8910 C.ar      14 UNK        -0.0881 
     11 C11       -51.0903  -29.3278    8.8240 C.ar      14 UNK        -0.0643 
     12 C12       -52.3262  -28.6738    8.8613 C.ar      14 UNK        -0.0930 
     13 C13       -53.3472  -29.0308    7.9758 C.ar      14 UNK        -0.0827 
     14 C14       -53.1210  -30.0405    7.0364 C.ar      14 UNK        -0.1249 
     15 C15       -54.6980  -28.3363    8.0437 C.3       14 UNK         0.0141 
     16 S16       -55.8728  -29.3120    9.0349 S.3       14 UNK        -0.2313 
     17 C17       -57.2015  -28.0919    9.3305 C.3       14 UNK        -0.0915 
     18 CA        -57.2428  -27.5661   10.7923 C.3       13 UNK         0.0968 
     19 C         -57.8300  -28.6130   11.7872 C.2       13 UNK         0.5732 
     20 N         -57.1144  -29.0414   12.8218 N.am      13 UNK        -0.7310 
     21 O         -58.9728  -29.0347   11.6239 O.2       13 UNK        -0.5035 
     22 N         -55.9442  -27.0054   11.1842 N.am      13 UNK        -0.4233 
     23 C         -55.7442  -26.1142   12.1581 C.2       13 UNK         0.4989 
     24 O         -56.6410  -25.5622   12.7989 O.2       13 UNK        -0.4996 
     25 CA        -54.2735  -25.7935   12.4674 C.3       12 UNK         0.0216 
     26 CB        -53.9462  -24.3358   12.1107 C.3       12 UNK        -0.1964 
     27 N         -53.9236  -26.0677   13.8651 N.am      12 UNK        -0.4276 
     28 C         -54.0315  -27.2652   14.4619 C.2       12 UNK         0.5020 
     29 O         -54.4420  -28.2719   13.8805 O.2       12 UNK        -0.5489 
     30 CA        -53.5840  -27.3835   15.9302 C.3       11 UNK         0.0294 
     31 CB        -52.6489  -28.5921   16.1222 C.3       11 UNK        -0.2019 
     32 N         -52.8819  -26.1880   16.4029 N.am      11 UNK        -0.4493 
     33 C         -53.2865  -25.3826   17.3935 C.2       11 UNK         0.4932 
     34 O         -54.3678  -25.5032   17.9717 O.2       11 UNK        -0.5029 
     35 CA        -52.3170  -24.2520   17.8028 C.3       10 UNK         0.0280 
     36 CB        -52.6039  -23.6915   19.2121 C.3       10 UNK        -0.1976 
     37 N         -50.9011  -24.6198   17.6613 N.am      10 UNK        -0.4242 
     38 C         -50.2464  -25.6172   18.2818 C.2       10 UNK         0.5072 
     39 O         -50.7502  -26.3218   19.1578 O.2       10 UNK        -0.5224 
     40 CA        -48.7958  -25.9110   17.8457 C.3       9 UNK         0.0343 
     41 CB        -48.6561  -27.3717   17.3791 C.3       9 UNK        -0.2003 
     42 N         -48.3459  -25.0376   16.7602 N.am      9 UNK        -0.4272 
     43 C         -47.6049  -23.9307   16.9082 C.2       9 UNK         0.4988 
     44 O         -47.1493  -23.5512   17.9873 O.2       9 UNK        -0.5108 
     45 CA        -47.3393  -23.0856   15.6446 C.3       8 UNK         0.0248 
     46 CB        -45.9641  -23.4303   15.0507 C.3       8 UNK        -0.2001 
     47 N         -48.3611  -23.2242   14.6003 N.am      8 UNK        -0.4140 
     48 C         -49.6614  -22.9324   14.7516 C.2       8 UNK         0.5028 
     49 O         -50.1426  -22.4597   15.7807 O.2       8 UNK        -0.5428 
     50 CA        -50.5996  -23.3199   13.5986 C.3       7 UNK         0.0264 
     51 CB        -50.6089  -22.2240   12.5219 C.3       7 UNK        -0.1988 
     52 N         -50.2604  -24.6180   13.0011 N.am      7 UNK        -0.4454 
     53 C         -50.2493  -25.7860   13.6638 C.2       7 UNK         0.5027 
     54 O         -50.5799  -25.8905   14.8440 O.2       7 UNK        -0.5083 
     55 CA        -49.7455  -27.0352   12.9205 C.3       6 UNK         0.0844 
     56 C56       -50.8912  -27.7604   12.1788 C.3       14 UNK        -0.0967 
     57 S57       -50.3408  -29.3645   11.5016 S.3       14 UNK        -0.2604 
     58 C58       -49.9695  -28.9294    9.7743 C.3       14 UNK         0.0134 
     59 N         -48.6419  -26.6820   12.0293 N.am      6 UNK        -0.4116 
     60 C         -47.3608  -26.5829   12.4029 C.2       5 UNK         0.5034 
     61 O         -46.9509  -26.8250   13.5380 O.2       5 UNK        -0.5045 
     62 CA        -46.3715  -26.1067   11.3257 C.3       5 UNK         0.0224 
     63 CB        -45.8166  -27.3045   10.5385 C.3       5 UNK        -0.1978 
     64 N         -46.9654  -25.1461   10.3906 N.am      5 UNK        -0.4737 
     65 C         -47.3711  -23.9143   10.7324 C.2       4 UNK         0.5027 
     66 O         -47.2663  -23.4526   11.8687 O.2       4 UNK        -0.5211 
     67 CA        -48.0526  -23.0744    9.6375 C.3       4 UNK         0.0297 
     68 CB        -47.0025  -22.2749    8.8507 C.3       4 UNK        -0.1993 
     69 N         -48.8694  -23.8546    8.7028 N.am      4 UNK        -0.4486 
     70 C         -49.8824  -24.6703    9.0312 C.2       3 UNK         0.4961 
     71 O         -50.2556  -24.8740   10.1865 O.2       3 UNK        -0.5105 
     72 CA        -50.5666  -25.4282    7.8808 C.3       3 UNK         0.0299 
     73 CB        -51.8207  -24.6760    7.4116 C.3       3 UNK        -0.1972 
     74 N         -49.6897  -25.6997    6.7350 N.am      3 UNK        -0.4305 
     75 C         -48.5730  -26.4400    6.7847 C.2       2 UNK         0.5006 
     76 O         -48.1287  -26.9519    7.8142 O.2       2 UNK        -0.5106 
     77 CA        -47.7931  -26.5796    5.4703 C.3       2 UNK         0.0296 
     78 CB        -46.8080  -25.4079    5.3249 C.3       2 UNK        -0.2002 
     79 N         -47.0344  -27.8331    5.4328 N.am      2 UNK        -0.4032 
     80 C         -47.4821  -29.0864    5.2441 C.2       1 UNK         0.5000 
     81 O         -46.7230  -30.0445    5.3973 O.2       1 UNK        -0.5238 
     82 H82       -50.0343  -27.4152    1.4451 H         1 UNK         0.0889 
     83 H83       -49.4867  -28.6957    0.3621 H         1 UNK         0.0889 
     84 H84       -48.4015  -27.3663    0.7780 H         1 UNK         0.0889 
     85 H85       -50.0711  -28.0710    3.5511 H         1 UNK         0.3028 
     86 H86       -49.5856  -28.8897    5.5469 H         1 UNK         0.0864 
     87 H87       -48.6912  -31.3774    4.0111 H         1 UNK         0.0720 
     88 H88       -49.0344  -31.3323    5.7144 H         1 UNK         0.0720 
     89 H89       -50.9796  -32.5707    6.3822 H         1 UNK         0.0814 
     90 H90       -52.6076  -32.3482    5.8073 H         1 UNK         0.0814 
     91 H91       -49.9338  -30.8646    7.8648 H         1 UNK         0.1469 
     92 H92       -52.4969  -27.8909    9.5850 H         1 UNK         0.1381 
     93 H93       -53.9086  -30.3193    6.3495 H         1 UNK         0.1206 
     94 H94       -55.1002  -28.1966    7.0391 H         1 UNK         0.0813 
     95 H95       -54.5856  -27.3390    8.4717 H         1 UNK         0.0813 
     96 H96       -58.1550  -28.5450    9.0531 H         1 UNK         0.0638 
     97 H97       -57.0738  -27.2521    8.6458 H         1 UNK         0.0638 
     98 H98       -57.9585  -26.7419   10.8043 H         1 UNK         0.0568 
     99 H99       -57.5224  -29.7148   13.4495 H         1 UNK         0.3450 
    100 H100      -56.1724  -28.7051   12.9945 H         1 UNK         0.3450 
    101 H101      -55.1472  -27.4474   10.7526 H         1 UNK         0.2987 
    102 H102      -53.6440  -26.4332   11.8462 H         1 UNK         0.0766 
    103 H103      -52.8726  -24.1655   12.1133 H         1 UNK         0.0798 
    104 H104      -54.4093  -23.6318   12.8031 H         1 UNK         0.0798 
    105 H105      -54.2991  -24.0877   11.1086 H         1 UNK         0.0798 
    106 H106      -53.6190  -25.2872   14.4267 H         1 UNK         0.3198 
    107 H107      -54.4878  -27.5539   16.5186 H         1 UNK         0.0843 
    108 H108      -51.7471  -28.5037   15.5150 H         1 UNK         0.0831 
    109 H109      -53.1429  -29.5232   15.8415 H         1 UNK         0.0831 
    110 H110      -52.3411  -28.6917   17.1634 H         1 UNK         0.0831 
    111 H111      -51.9768  -26.0104   15.9666 H         1 UNK         0.3133 
    112 H112      -52.4861  -23.4434   17.0905 H         1 UNK         0.0566 
    113 H113      -51.9145  -22.8863   19.4660 H         1 UNK         0.0814 
    114 H114      -53.6132  -23.2827   19.2730 H         1 UNK         0.0814 
    115 H115      -52.5192  -24.4612   19.9798 H         1 UNK         0.0814 
    116 H116      -50.3934  -24.0717   16.9742 H         1 UNK         0.3091 
    117 H117      -48.1606  -25.7733   18.7229 H         1 UNK         0.0702 
    118 H118      -48.9131  -28.0663   18.1798 H         1 UNK         0.0785 
    119 H119      -47.6333  -27.5946   17.0747 H         1 UNK         0.0785 
    120 H120      -49.3114  -27.5917   16.5356 H         1 UNK         0.0785 
    121 H121      -48.7013  -25.2642   15.8403 H         1 UNK         0.2998 
    122 H122      -47.3274  -22.0380   15.9518 H         1 UNK         0.0697 
    123 H123      -45.9259  -24.4612   14.6965 H         1 UNK         0.0825 
    124 H124      -45.1745  -23.3098   15.7936 H         1 UNK         0.0825 
    125 H125      -45.7201  -22.7795   14.2106 H         1 UNK         0.0825 
    126 H126      -48.0414  -23.5439   13.6895 H         1 UNK         0.3029 
    127 H127      -51.6070  -23.4040   14.0107 H         1 UNK         0.0897 
    128 H128      -51.1931  -22.5135   11.6485 H         1 UNK         0.0792 
    129 H129      -51.0442  -21.3040   12.9141 H         1 UNK         0.0792 
    130 H130      -49.6008  -21.9821   12.1878 H         1 UNK         0.0792 
    131 H131      -50.0536  -24.6232   12.0044 H         1 UNK         0.3086 
    132 H132      -49.3688  -27.7198   13.6842 H         1 UNK         0.0583 
    133 H133      -51.7129  -27.9716   12.8640 H         1 UNK         0.1020 
    134 H134      -51.3051  -27.1316   11.3901 H         1 UNK         0.1020 
    135 H135      -49.7760  -27.8616    9.6893 H         1 UNK         0.0694 
    136 H136      -49.0371  -29.4203    9.4910 H         1 UNK         0.0694 
    137 H137      -48.8914  -26.4046   11.0901 H         1 UNK         0.2989 
    138 H138      -45.5423  -25.6130   11.8377 H         1 UNK         0.1055 
    139 H139      -45.3436  -28.0255   11.2069 H         1 UNK         0.0806 
    140 H140      -45.0629  -26.9905    9.8162 H         1 UNK         0.0806 
    141 H141      -46.6026  -27.8309    9.9948 H         1 UNK         0.0806 
    142 H142      -47.1233  -25.4659    9.4432 H         1 UNK         0.3061 
    143 H143      -48.7177  -22.3640   10.1289 H         1 UNK         0.0734 
    144 H144      -47.4704  -21.5940    8.1395 H         1 UNK         0.0832 
    145 H145      -46.3922  -21.6682    9.5215 H         1 UNK         0.0832 
    146 H146      -46.3264  -22.9283    8.2976 H         1 UNK         0.0832 
    147 H147      -48.6447  -23.7611    7.7236 H         1 UNK         0.3156 
    148 H148      -50.8882  -26.3899    8.2768 H         1 UNK         0.0589 
    149 H149      -51.5727  -23.7125    6.9645 H         1 UNK         0.0808 
    150 H150      -52.3795  -25.2561    6.6768 H         1 UNK         0.0808 
    151 H151      -52.4950  -24.4835    8.2477 H         1 UNK         0.0808 
    152 H152      -49.9693  -25.2957    5.8520 H         1 UNK         0.3098 
    153 H153      -48.4881  -26.5329    4.6336 H         1 UNK         0.0720 
    154 H154      -46.2437  -25.4786    4.3946 H         1 UNK         0.0791 
    155 H155      -46.0923  -25.3744    6.1480 H         1 UNK         0.0791 
    156 H156      -47.3310  -24.4507    5.3093 H         1 UNK         0.0791 
    157 H157      -46.0735  -27.7437    5.7262 H         1 UNK         0.3028 
@<TRIPOS>BOND
     1    1    2 1    
     2    1   82 1    
     3    1   83 1    
     4    1   84 1    
     5    2    3 2    
     6    2    4 am   BACKBONE|DICT|INTERRES
     7    4    5 1    
     8    4   85 1    
     9    5    6 1    
    10    5   80 1    
    11    5   86 1    
    12    6    7 1    
    13    6   87 1    
    14    6   88 1    
    15    7    8 1    
    16    8    9 1    
    17    8   89 1    
    18    8   90 1    
    19    9   10 ar   
    20    9   14 ar   
    21   10   11 ar   
    22   10   91 1    
    23   11   12 ar   
    24   11   58 1    
    25   12   13 ar   
    26   12   92 1    
    27   13   14 ar   
    28   13   15 1    
    29   14   93 1    
    30   15   16 1    
    31   15   94 1    
    32   15   95 1    
    33   16   17 1    
    34   17   18 1    
    35   17   96 1    
    36   17   97 1    
    37   18   19 1    
    38   18   22 1    
    39   18   98 1    
    40   19   20 am   BACKBONE|DICT|INTERRES
    41   19   21 2    
    42   20   99 1    
    43   20  100 1    
    44   22   23 am   BACKBONE|DICT|INTERRES
    45   22  101 1    
    46   23   24 2    
    47   23   25 1    
    48   25   26 1    
    49   25   27 1    
    50   25  102 1    
    51   26  103 1    
    52   26  104 1    
    53   26  105 1    
    54   27   28 am   BACKBONE|DICT|INTERRES
    55   27  106 1    
    56   28   29 2    
    57   28   30 1    
    58   30   31 1    
    59   30   32 1    
    60   30  107 1    
    61   31  108 1    
    62   31  109 1    
    63   31  110 1    
    64   32   33 am   BACKBONE|DICT|INTERRES
    65   32  111 1    
    66   33   34 2    
    67   33   35 1    
    68   35   36 1    
    69   35   37 1    
    70   35  112 1    
    71   36  113 1    
    72   36  114 1    
    73   36  115 1    
    74   37   38 am   BACKBONE|DICT|INTERRES
    75   37  116 1    
    76   38   39 2    
    77   38   40 1    
    78   40   41 1    
    79   40   42 1    
    80   40  117 1    
    81   41  118 1    
    82   41  119 1    
    83   41  120 1    
    84   42   43 am   BACKBONE|DICT|INTERRES
    85   42  121 1    
    86   43   44 2    
    87   43   45 1    
    88   45   46 1    
    89   45   47 1    
    90   45  122 1    
    91   46  123 1    
    92   46  124 1    
    93   46  125 1    
    94   47   48 am   BACKBONE|DICT|INTERRES
    95   47  126 1    
    96   48   49 2    
    97   48   50 1    
    98   50   51 1    
    99   50   52 1    
   100   50  127 1    
   101   51  128 1    
   102   51  129 1    
   103   51  130 1    
   104   52   53 am   BACKBONE|DICT|INTERRES
   105   52  131 1    
   106   53   54 2    
   107   53   55 1    
   108   55   56 1    
   109   55   59 1    
   110   55  132 1    
   111   56   57 1    
   112   56  133 1    
   113   56  134 1    
   114   57   58 1    
   115   58  135 1    
   116   58  136 1    
   117   59   60 am   BACKBONE|DICT|INTERRES
   118   59  137 1    
   119   60   61 2    
   120   60   62 1    
   121   62   63 1    
   122   62   64 1    
   123   62  138 1    
   124   63  139 1    
   125   63  140 1    
   126   63  141 1    
   127   64   65 am   BACKBONE|DICT|INTERRES
   128   64  142 1    
   129   65   66 2    
   130   65   67 1    
   131   67   68 1    
   132   67   69 1    
   133   67  143 1    
   134   68  144 1    
   135   68  145 1    
   136   68  146 1    
   137   69   70 am   BACKBONE|DICT|INTERRES
   138   69  147 1    
   139   70   71 2    
   140   70   72 1    
   141   72   73 1    
   142   72   74 1    
   143   72  148 1    
   144   73  149 1    
   145   73  150 1    
   146   73  151 1    
   147   74   75 am   BACKBONE|DICT|INTERRES
   148   74  152 1    
   149   75   76 2    
   150   75   77 1    
   151   77   78 1    
   152   77   79 1    
   153   77  153 1    
   154   78  154 1    
   155   78  155 1    
   156   78  156 1    
   157   79   80 am   BACKBONE|DICT|INTERRES
   158   79  157 1    
   159   80   81 2    
@<TRIPOS>SUBSTRUCTURE
     1 UNK         1 GROUP             0       ****    0 ROOT    
