@<TRIPOS>MOLECULE
3R207
157   159    1
SMALL
USER_CHARGES


@<TRIPOS>ATOM
      1 CA        -53.8904  -26.2919    6.0465 C.3       0 UNK        -0.1975 
      2 C         -52.4960  -26.8995    6.0449 C.2       0 UNK         0.4852 
      3 O         -51.7253  -26.6633    6.9762 O.2       0 UNK        -0.5216 
      4 N         -52.1620  -27.6763    5.0055 N.am      1 UNK        -0.4461 
      5 CA        -50.8763  -28.3647    4.8510 C.3       1 UNK         0.0864 
      6 C6        -50.8512  -29.3340    3.6379 C.3       14 UNK        -0.0898 
      7 S7        -52.3046  -30.4353    3.5205 S.3       14 UNK        -0.2598 
      8 C8        -51.7726  -31.8950    4.4712 C.3       14 UNK         0.0286 
      9 C9        -51.7280  -31.6022    5.9630 C.ar      14 UNK        -0.0844 
     10 C10       -50.5033  -31.5031    6.6291 C.ar      14 UNK        -0.0881 
     11 C11       -50.4611  -31.1870    7.9902 C.ar      14 UNK        -0.0643 
     12 C12       -51.6557  -31.0028    8.6932 C.ar      14 UNK        -0.0930 
     13 C13       -52.8855  -31.0990    8.0365 C.ar      14 UNK        -0.0827 
     14 C14       -52.9159  -31.4048    6.6733 C.ar      14 UNK        -0.1249 
     15 C15       -54.1796  -30.8457    8.7921 C.3       14 UNK         0.0141 
     16 S16       -54.4921  -29.0604    8.9470 S.3       14 UNK        -0.2313 
     17 C17       -56.1954  -29.0484    9.6056 C.3       14 UNK        -0.0915 
     18 CA        -56.2920  -28.7807   11.1324 C.3       13 UNK         0.0968 
     19 C         -55.8936  -30.0205   11.9898 C.2       13 UNK         0.5732 
     20 N         -54.9959  -29.9152   12.9637 N.am      13 UNK        -0.7310 
     21 O         -56.4241  -31.1076   11.7737 O.2       13 UNK        -0.5035 
     22 N         -55.6117  -27.5321   11.5035 N.am      13 UNK        -0.4233 
     23 C         -55.9309  -26.7735   12.5558 C.2       13 UNK         0.4989 
     24 O         -56.9237  -26.9504   13.2660 O.2       13 UNK        -0.4996 
     25 CA        -54.9611  -25.6249   12.8777 C.3       12 UNK         0.0216 
     26 CB        -55.5685  -24.2656   12.4972 C.3       12 UNK        -0.1964 
     27 N         -54.5899  -25.6133   14.2936 N.am      12 UNK        -0.4276 
     28 C         -53.9731  -26.6113   14.9402 C.2       12 UNK         0.5020 
     29 O         -53.6214  -27.6606   14.3951 O.2       12 UNK        -0.5489 
     30 CA        -53.6744  -26.3677   16.4308 C.3       11 UNK         0.0294 
     31 CB        -52.9981  -27.5747   17.1073 C.3       11 UNK        -0.2019 
     32 N         -52.8240  -25.1859   16.5952 N.am      11 UNK        -0.4493 
     33 C         -53.2691  -23.9240   16.6623 C.2       11 UNK         0.4932 
     34 O         -54.4672  -23.6400   16.6027 O.2       11 UNK        -0.5029 
     35 CA        -52.2255  -22.7890   16.7506 C.3       10 UNK         0.0280 
     36 CB        -52.7891  -21.5267   17.4372 C.3       10 UNK        -0.1976 
     37 N         -50.9413  -23.1675   17.3532 N.am      10 UNK        -0.4242 
     38 C         -50.7079  -23.6382   18.5870 C.2       10 UNK         0.5072 
     39 O         -51.5950  -23.8660   19.4118 O.2       10 UNK        -0.5224 
     40 CA        -49.2271  -23.8904   18.9573 C.3       9 UNK         0.0343 
     41 CB        -49.0679  -24.5962   20.3173 C.3       9 UNK        -0.2003 
     42 N         -48.5133  -24.6675   17.9388 N.am      9 UNK        -0.4272 
     43 C         -48.0714  -24.2024   16.7625 C.2       9 UNK         0.4988 
     44 O         -48.1711  -23.0227   16.4209 O.2       9 UNK        -0.5108 
     45 CA        -47.4915  -25.2234   15.7650 C.3       8 UNK         0.0248 
     46 CB        -47.1029  -26.5797   16.3967 C.3       8 UNK        -0.2001 
     47 N         -48.4003  -25.4272   14.6306 N.am      8 UNK        -0.4140 
     48 C         -49.6877  -25.8040   14.6937 C.2       8 UNK         0.5028 
     49 O         -50.2804  -26.0387   15.7464 O.2       8 UNK        -0.5428 
     50 CA        -50.4610  -25.9338   13.3720 C.3       7 UNK         0.0264 
     51 CB        -51.1079  -24.5936   12.9889 C.3       7 UNK        -0.1988 
     52 N         -49.6509  -26.4289   12.2579 N.am      7 UNK        -0.4454 
     53 C         -49.1601  -27.6747   12.1738 C.2       7 UNK         0.5027 
     54 O         -49.3096  -28.5297   13.0474 O.2       7 UNK        -0.5083 
     55 CA        -48.3774  -28.0375   10.8992 C.3       6 UNK         0.0844 
     56 C56       -49.3390  -28.4022    9.7414 C.3       14 UNK        -0.0967 
     57 S57       -48.4699  -29.3349    8.4383 S.3       14 UNK        -0.2604 
     58 C58       -49.1197  -31.0176    8.6844 C.3       14 UNK         0.0134 
     59 N         -47.4582  -26.9542   10.5433 N.am      6 UNK        -0.4116 
     60 C         -46.2063  -26.8386   11.0072 C.2       5 UNK         0.5034 
     61 O         -45.6508  -27.6883   11.7041 O.2       5 UNK        -0.5045 
     62 CA        -45.4372  -25.5507   10.6559 C.3       5 UNK         0.0224 
     63 CB        -44.5151  -25.7702    9.4474 C.3       5 UNK        -0.1978 
     64 N         -46.3083  -24.4000   10.4000 N.am      5 UNK        -0.4737 
     65 C         -47.0135  -23.7718   11.3510 C.2       4 UNK         0.5027 
     66 O         -46.9822  -24.0856   12.5398 O.2       4 UNK        -0.5211 
     67 CA        -47.9492  -22.6365   10.9008 C.3       4 UNK         0.0297 
     68 CB        -47.2060  -21.2919   10.9225 C.3       4 UNK        -0.1993 
     69 N         -48.5530  -22.8395    9.5794 N.am      4 UNK        -0.4486 
     70 C         -49.2722  -23.9066    9.2051 C.2       3 UNK         0.4961 
     71 O         -49.4864  -24.8751    9.9351 O.2       3 UNK        -0.5105 
     72 CA        -49.8302  -23.9259    7.7737 C.3       3 UNK         0.0299 
     73 CB        -49.6732  -22.5958    7.0010 C.3       3 UNK        -0.1972 
     74 N         -49.2769  -25.0456    7.0076 N.am      3 UNK        -0.4305 
     75 C         -47.9878  -25.2594    6.6936 C.2       2 UNK         0.5006 
     76 O         -47.0701  -24.5269    7.0689 O.2       2 UNK        -0.5106 
     77 CA        -47.6475  -26.4843    5.8167 C.3       2 UNK         0.0296 
     78 CB        -46.4034  -27.2281    6.3334 C.3       2 UNK        -0.2002 
     79 N         -48.7606  -27.4304    5.6874 N.am      2 UNK        -0.4032 
     80 C         -49.7213  -27.3470    4.7571 C.2       1 UNK         0.5000 
     81 O         -49.7401  -26.4943    3.8656 O.2       1 UNK        -0.5238 
     82 H82       -54.4700  -26.5994    5.1763 H         1 UNK         0.0889 
     83 H83       -53.8251  -25.2044    6.0466 H         1 UNK         0.0889 
     84 H84       -54.4308  -26.6017    6.9405 H         1 UNK         0.0889 
     85 H85       -52.8275  -27.8368    4.2632 H         1 UNK         0.3028 
     86 H86       -50.7350  -28.9516    5.7589 H         1 UNK         0.0864 
     87 H87       -50.8118  -28.7701    2.7036 H         1 UNK         0.0720 
     88 H88       -49.9447  -29.9417    3.6578 H         1 UNK         0.0720 
     89 H89       -50.8045  -32.2406    4.1052 H         1 UNK         0.0814 
     90 H90       -52.4756  -32.7092    4.2892 H         1 UNK         0.0814 
     91 H91       -49.5795  -31.6406    6.0836 H         1 UNK         0.1469 
     92 H92       -51.6333  -30.7598    9.7462 H         1 UNK         0.1381 
     93 H93       -53.8637  -31.4665    6.1559 H         1 UNK         0.1206 
     94 H94       -55.0151  -31.3217    8.2766 H         1 UNK         0.0813 
     95 H95       -54.1283  -31.2969    9.7841 H         1 UNK         0.0813 
     96 H96       -56.7074  -29.9737    9.3359 H         1 UNK         0.0638 
     97 H97       -56.7342  -28.2617    9.0754 H         1 UNK         0.0638 
     98 H98       -57.3537  -28.6400   11.3435 H         1 UNK         0.0568 
     99 H99       -54.7664  -30.7357   13.5002 H         1 UNK         0.3450 
    100 H100      -54.5643  -29.0296   13.2046 H         1 UNK         0.3450 
    101 H101      -54.7741  -27.3287   10.9780 H         1 UNK         0.2987 
    102 H102      -54.0431  -25.7643   12.3028 H         1 UNK         0.0766 
    103 H103      -54.8645  -23.4521   12.6743 H         1 UNK         0.0798 
    104 H104      -56.4753  -24.0557   13.0663 H         1 UNK         0.0798 
    105 H105      -55.8338  -24.2389   11.4394 H         1 UNK         0.0798 
    106 H106      -54.8511  -24.7976   14.8357 H         1 UNK         0.3198 
    107 H107      -54.6299  -26.2027   16.9333 H         1 UNK         0.0843 
    108 H108      -53.6327  -28.4598   17.0474 H         1 UNK         0.0831 
    109 H109      -52.8070  -27.3820   18.1630 H         1 UNK         0.0831 
    110 H110      -52.0477  -27.8246   16.6347 H         1 UNK         0.0831 
    111 H111      -51.8212  -25.3569   16.5322 H         1 UNK         0.3133 
    112 H112      -51.9965  -22.5218   15.7182 H         1 UNK         0.0566 
    113 H113      -52.0519  -20.7242   17.4605 H         1 UNK         0.0814 
    114 H114      -53.6617  -21.1445   16.9060 H         1 UNK         0.0814 
    115 H115      -53.0968  -21.7299   18.4635 H         1 UNK         0.0814 
    116 H116      -50.1211  -23.0265   16.7704 H         1 UNK         0.3091 
    117 H117      -48.7524  -22.9102   19.0379 H         1 UNK         0.0702 
    118 H118      -48.0171  -24.7241   20.5779 H         1 UNK         0.0785 
    119 H119      -49.5371  -25.5809   20.3175 H         1 UNK         0.0785 
    120 H120      -49.5281  -24.0145   21.1174 H         1 UNK         0.0785 
    121 H121      -48.4576  -25.6634   18.0964 H         1 UNK         0.2998 
    122 H122      -46.5841  -24.7741   15.3587 H         1 UNK         0.0697 
    123 H123      -47.9679  -27.1311   16.7671 H         1 UNK         0.0825 
    124 H124      -46.4101  -26.4444   17.2284 H         1 UNK         0.0825 
    125 H125      -46.6027  -27.2158   15.6662 H         1 UNK         0.0825 
    126 H126      -48.0164  -25.1576   13.7278 H         1 UNK         0.3029 
    127 H127      -51.2602  -26.6591   13.5367 H         1 UNK         0.0897 
    128 H128      -51.6855  -24.6793   12.0683 H         1 UNK         0.0792 
    129 H129      -51.7905  -24.2541   13.7684 H         1 UNK         0.0792 
    130 H130      -50.3615  -23.8129   12.8448 H         1 UNK         0.0792 
    131 H131      -49.5299  -25.8007   11.4642 H         1 UNK         0.3086 
    132 H132      -47.7977  -28.9320   11.1394 H         1 UNK         0.0583 
    133 H133      -50.1771  -28.9974   10.1048 H         1 UNK         0.1020 
    134 H134      -49.7847  -27.5083    9.3001 H         1 UNK         0.1020 
    135 H135      -48.4037  -31.7334    8.2779 H         1 UNK         0.0694 
    136 H136      -49.1987  -31.2386    9.7501 H         1 UNK         0.0694 
    137 H137      -47.8577  -26.1820   10.0247 H         1 UNK         0.2989 
    138 H138      -44.8097  -25.3133   11.5183 H         1 UNK         0.1055 
    139 H139      -43.8730  -26.6399    9.5941 H         1 UNK         0.0806 
    140 H140      -43.8638  -24.9110    9.2864 H         1 UNK         0.0806 
    141 H141      -45.0835  -25.9320    8.5333 H         1 UNK         0.0806 
    142 H142      -46.4148  -24.1036    9.4376 H         1 UNK         0.3061 
    143 H143      -48.7648  -22.5825   11.6234 H         1 UNK         0.0734 
    144 H144      -46.7653  -21.1063   11.9032 H         1 UNK         0.0832 
    145 H145      -46.3965  -21.2653   10.1918 H         1 UNK         0.0832 
    146 H146      -47.8791  -20.4609   10.7109 H         1 UNK         0.0832 
    147 H147      -48.4064  -22.1090    8.8979 H         1 UNK         0.3156 
    148 H148      -50.8988  -24.1224    7.8718 H         1 UNK         0.0589 
    149 H149      -48.6291  -22.3278    6.8359 H         1 UNK         0.0808 
    150 H150      -50.1505  -22.6589    6.0229 H         1 UNK         0.0808 
    151 H151      -50.1509  -21.7713    7.5322 H         1 UNK         0.0808 
    152 H152      -49.9647  -25.7448    6.7433 H         1 UNK         0.3098 
    153 H153      -47.4001  -26.0957    4.8267 H         1 UNK         0.0720 
    154 H154      -45.5158  -26.5996    6.2524 H         1 UNK         0.0791 
    155 H155      -46.2082  -28.1315    5.7554 H         1 UNK         0.0791 
    156 H156      -46.5053  -27.5129    7.3801 H         1 UNK         0.0791 
    157 H157      -48.8306  -28.1355    6.4114 H         1 UNK         0.3028 
@<TRIPOS>BOND
     1    1    2 1    
     2    1   82 1    
     3    1   83 1    
     4    1   84 1    
     5    2    3 2    
     6    2    4 am   BACKBONE|DICT|INTERRES
     7    4    5 1    
     8    4   85 1    
     9    5    6 1    
    10    5   80 1    
    11    5   86 1    
    12    6    7 1    
    13    6   87 1    
    14    6   88 1    
    15    7    8 1    
    16    8    9 1    
    17    8   89 1    
    18    8   90 1    
    19    9   10 ar   
    20    9   14 ar   
    21   10   11 ar   
    22   10   91 1    
    23   11   12 ar   
    24   11   58 1    
    25   12   13 ar   
    26   12   92 1    
    27   13   14 ar   
    28   13   15 1    
    29   14   93 1    
    30   15   16 1    
    31   15   94 1    
    32   15   95 1    
    33   16   17 1    
    34   17   18 1    
    35   17   96 1    
    36   17   97 1    
    37   18   19 1    
    38   18   22 1    
    39   18   98 1    
    40   19   20 am   BACKBONE|DICT|INTERRES
    41   19   21 2    
    42   20   99 1    
    43   20  100 1    
    44   22   23 am   BACKBONE|DICT|INTERRES
    45   22  101 1    
    46   23   24 2    
    47   23   25 1    
    48   25   26 1    
    49   25   27 1    
    50   25  102 1    
    51   26  103 1    
    52   26  104 1    
    53   26  105 1    
    54   27   28 am   BACKBONE|DICT|INTERRES
    55   27  106 1    
    56   28   29 2    
    57   28   30 1    
    58   30   31 1    
    59   30   32 1    
    60   30  107 1    
    61   31  108 1    
    62   31  109 1    
    63   31  110 1    
    64   32   33 am   BACKBONE|DICT|INTERRES
    65   32  111 1    
    66   33   34 2    
    67   33   35 1    
    68   35   36 1    
    69   35   37 1    
    70   35  112 1    
    71   36  113 1    
    72   36  114 1    
    73   36  115 1    
    74   37   38 am   BACKBONE|DICT|INTERRES
    75   37  116 1    
    76   38   39 2    
    77   38   40 1    
    78   40   41 1    
    79   40   42 1    
    80   40  117 1    
    81   41  118 1    
    82   41  119 1    
    83   41  120 1    
    84   42   43 am   BACKBONE|DICT|INTERRES
    85   42  121 1    
    86   43   44 2    
    87   43   45 1    
    88   45   46 1    
    89   45   47 1    
    90   45  122 1    
    91   46  123 1    
    92   46  124 1    
    93   46  125 1    
    94   47   48 am   BACKBONE|DICT|INTERRES
    95   47  126 1    
    96   48   49 2    
    97   48   50 1    
    98   50   51 1    
    99   50   52 1    
   100   50  127 1    
   101   51  128 1    
   102   51  129 1    
   103   51  130 1    
   104   52   53 am   BACKBONE|DICT|INTERRES
   105   52  131 1    
   106   53   54 2    
   107   53   55 1    
   108   55   56 1    
   109   55   59 1    
   110   55  132 1    
   111   56   57 1    
   112   56  133 1    
   113   56  134 1    
   114   57   58 1    
   115   58  135 1    
   116   58  136 1    
   117   59   60 am   BACKBONE|DICT|INTERRES
   118   59  137 1    
   119   60   61 2    
   120   60   62 1    
   121   62   63 1    
   122   62   64 1    
   123   62  138 1    
   124   63  139 1    
   125   63  140 1    
   126   63  141 1    
   127   64   65 am   BACKBONE|DICT|INTERRES
   128   64  142 1    
   129   65   66 2    
   130   65   67 1    
   131   67   68 1    
   132   67   69 1    
   133   67  143 1    
   134   68  144 1    
   135   68  145 1    
   136   68  146 1    
   137   69   70 am   BACKBONE|DICT|INTERRES
   138   69  147 1    
   139   70   71 2    
   140   70   72 1    
   141   72   73 1    
   142   72   74 1    
   143   72  148 1    
   144   73  149 1    
   145   73  150 1    
   146   73  151 1    
   147   74   75 am   BACKBONE|DICT|INTERRES
   148   74  152 1    
   149   75   76 2    
   150   75   77 1    
   151   77   78 1    
   152   77   79 1    
   153   77  153 1    
   154   78  154 1    
   155   78  155 1    
   156   78  156 1    
   157   79   80 am   BACKBONE|DICT|INTERRES
   158   79  157 1    
   159   80   81 2    
@<TRIPOS>SUBSTRUCTURE
     1 UNK         1 GROUP             0       ****    0 ROOT    
