@<TRIPOS>MOLECULE
3R207
157   159    1
SMALL
USER_CHARGES


@<TRIPOS>ATOM
      1 CA        -44.8375  -29.4145    9.3810 C.3       0 UNK        -0.1975 
      2 C         -45.2392  -28.9306    7.9966 C.2       0 UNK         0.4852 
      3 O         -44.3764  -28.5330    7.2123 O.2       0 UNK        -0.5216 
      4 N         -46.5420  -28.9476    7.6856 N.am      1 UNK        -0.4461 
      5 CA        -47.0967  -28.4991    6.4054 C.3       1 UNK         0.0864 
      6 C6        -48.5856  -28.8886    6.2329 C.3       14 UNK        -0.0898 
      7 S7        -49.6789  -28.3644    7.5949 S.3       14 UNK        -0.2598 
      8 C8        -51.2331  -29.1492    7.0687 C.3       14 UNK         0.0286 
      9 C9        -52.4102  -28.4900    7.7626 C.ar      14 UNK        -0.0844 
     10 C10       -52.9194  -27.2916    7.2628 C.ar      14 UNK        -0.0881 
     11 C11       -53.9303  -26.6113    7.9437 C.ar      14 UNK        -0.0643 
     12 C12       -54.4820  -27.1803    9.0975 C.ar      14 UNK        -0.0930 
     13 C13       -54.0147  -28.4097    9.5868 C.ar      14 UNK        -0.0827 
     14 C14       -52.9665  -29.0483    8.9153 C.ar      14 UNK        -0.1249 
     15 C15       -54.5834  -29.0743   10.8436 C.3       14 UNK         0.0141 
     16 S16       -56.3204  -28.6590   11.2240 S.3       14 UNK        -0.2313 
     17 C17       -56.7532  -30.0001   12.3814 C.3       14 UNK        -0.0915 
     18 CA        -57.5723  -29.5207   13.6091 C.3       13 UNK         0.0968 
     19 C         -58.1477  -30.7495   14.3769 C.2       13 UNK         0.5732 
     20 N         -57.6482  -31.1012   15.5571 N.am      13 UNK        -0.7310 
     21 O         -59.0718  -31.3955   13.8882 O.2       13 UNK        -0.5035 
     22 N         -56.8056  -28.5894   14.4519 N.am      13 UNK        -0.4233 
     23 C         -57.3246  -27.8627   15.4524 C.2       13 UNK         0.4989 
     24 O         -58.5364  -27.7437   15.6423 O.2       13 UNK        -0.4996 
     25 CA        -56.3352  -27.1628   16.4134 C.3       12 UNK         0.0216 
     26 CB        -56.8656  -27.1215   17.8622 C.3       12 UNK        -0.1964 
     27 N         -54.9637  -27.7020   16.3908 N.am      12 UNK        -0.4276 
     28 C         -54.5876  -28.9692   16.6283 C.2       12 UNK         0.5020 
     29 O         -55.3752  -29.8689   16.9246 O.2       12 UNK        -0.5489 
     30 CA        -53.1074  -29.3289   16.4271 C.3       11 UNK         0.0294 
     31 CB        -52.9231  -30.0209   15.0649 C.3       11 UNK        -0.2019 
     32 N         -52.1868  -28.1920   16.5067 N.am      11 UNK        -0.4493 
     33 C         -51.7439  -27.6534   17.6517 C.2       11 UNK         0.4932 
     34 O         -52.1605  -27.9784   18.7636 O.2       11 UNK        -0.5029 
     35 CA        -50.6335  -26.5956   17.5476 C.3       10 UNK         0.0280 
     36 CB        -49.2716  -27.2714   17.3163 C.3       10 UNK        -0.1976 
     37 N         -50.8940  -25.6532   16.4598 N.am      10 UNK        -0.4242 
     38 C         -51.1322  -24.3425   16.6149 C.2       10 UNK         0.5072 
     39 O         -51.0673  -23.7546   17.6957 O.2       10 UNK        -0.5224 
     40 CA        -51.5274  -23.5394   15.3568 C.3       9 UNK         0.0343 
     41 CB        -50.2955  -22.8443   14.7552 C.3       9 UNK        -0.2003 
     42 N         -52.1782  -24.3378   14.3139 N.am      9 UNK        -0.4272 
     43 C         -53.3016  -25.0522   14.4782 C.2       9 UNK         0.4988 
     44 O         -53.9709  -25.0465   15.5094 O.2       9 UNK        -0.5108 
     45 CA        -53.7242  -25.9897   13.3336 C.3       8 UNK         0.0248 
     46 CB        -54.7833  -25.2949   12.4653 C.3       8 UNK        -0.2001 
     47 N         -52.6241  -26.4657   12.4867 N.am      8 UNK        -0.4140 
     48 C         -51.4804  -27.0384   12.8973 C.2       8 UNK         0.5028 
     49 O         -51.2298  -27.2880   14.0771 O.2       8 UNK        -0.5428 
     50 CA        -50.4158  -27.3464   11.8295 C.3       7 UNK         0.0264 
     51 CB        -50.3159  -28.8608   11.5930 C.3       7 UNK        -0.1988 
     52 N         -50.6381  -26.6659   10.5486 N.am      7 UNK        -0.4454 
     53 C         -50.6031  -25.3376   10.3640 C.2       7 UNK         0.5027 
     54 O         -50.3740  -24.5289   11.2647 O.2       7 UNK        -0.5083 
     55 CA        -50.9502  -24.8515    8.9483 C.3       6 UNK         0.0844 
     56 C56       -52.2947  -24.0678    8.9198 C.3       14 UNK        -0.0967 
     57 S57       -53.0376  -24.0465    7.2544 S.3       14 UNK        -0.2604 
     58 C58       -54.4044  -25.2499    7.4437 C.3       14 UNK         0.0134 
     59 N         -49.7913  -24.1931    8.3424 N.am      6 UNK        -0.4116 
     60 C         -49.3181  -22.9576    8.5595 C.2       5 UNK         0.5034 
     61 O         -49.9009  -22.0683    9.1819 O.2       5 UNK        -0.5045 
     62 CA        -47.9052  -22.7137    8.0004 C.3       5 UNK         0.0224 
     63 CB        -47.3940  -21.2710    8.2024 C.3       5 UNK        -0.1978 
     64 N         -46.9670  -23.7008    8.5486 N.am      5 UNK        -0.4737 
     65 C         -46.6088  -23.8685    9.8326 C.2       4 UNK         0.5027 
     66 O         -46.9309  -23.1185   10.7532 O.2       4 UNK        -0.5211 
     67 CA        -45.7431  -25.0992   10.1452 C.3       4 UNK         0.0297 
     68 CB        -46.6362  -26.3027   10.4938 C.3       4 UNK        -0.1993 
     69 N         -44.8579  -25.4377    9.0282 N.am      4 UNK        -0.4486 
     70 C         -43.6980  -24.8132    8.7741 C.2       3 UNK         0.4961 
     71 O         -43.1938  -23.9749    9.5219 O.2       3 UNK        -0.5105 
     72 CA        -42.9809  -25.1667    7.4593 C.3       3 UNK         0.0299 
     73 CB        -41.9224  -26.2564    7.6938 C.3       3 UNK        -0.1972 
     74 N         -43.9136  -25.5887    6.4089 N.am      3 UNK        -0.4305 
     75 C         -44.6804  -24.7357    5.7088 C.2       2 UNK         0.5006 
     76 O         -44.6238  -23.5122    5.8329 O.2       2 UNK        -0.5106 
     77 CA        -45.7019  -25.3277    4.7176 C.3       2 UNK         0.0296 
     78 CB        -45.1248  -25.3343    3.2928 C.3       2 UNK        -0.2002 
     79 N         -46.1589  -26.6769    5.0613 N.am      2 UNK        -0.4032 
     80 C         -46.8313  -26.9954    6.1756 C.2       1 UNK         0.5000 
     81 O         -47.1754  -26.1661    7.0237 O.2       1 UNK        -0.5238 
     82 H82       -45.7046  -29.6415   10.0009 H         1 UNK         0.0889 
     83 H83       -44.2460  -28.6522    9.8874 H         1 UNK         0.0889 
     84 H84       -44.2313  -30.3161    9.2994 H         1 UNK         0.0889 
     85 H85       -47.2241  -29.2468    8.3679 H         1 UNK         0.3028 
     86 H86       -46.5486  -29.0448    5.6339 H         1 UNK         0.0864 
     87 H87       -48.9772  -28.4919    5.2941 H         1 UNK         0.0720 
     88 H88       -48.6607  -29.9740    6.1480 H         1 UNK         0.0720 
     89 H89       -51.1971  -30.2170    7.2903 H         1 UNK         0.0814 
     90 H90       -51.3499  -29.0591    5.9875 H         1 UNK         0.0814 
     91 H91       -52.4861  -26.8546    6.3731 H         1 UNK         0.1469 
     92 H92       -55.2790  -26.6597    9.6069 H         1 UNK         0.1381 
     93 H93       -52.5756  -29.9832    9.2938 H         1 UNK         0.1206 
     94 H94       -53.9612  -28.8165   11.7002 H         1 UNK         0.0813 
     95 H95       -54.5153  -30.1572   10.7274 H         1 UNK         0.0813 
     96 H96       -55.8465  -30.5078   12.7160 H         1 UNK         0.0638 
     97 H97       -57.3170  -30.7373   11.8063 H         1 UNK         0.0638 
     98 H98       -58.4383  -28.9723   13.2335 H         1 UNK         0.0568 
     99 H99       -58.0390  -31.8969   16.0349 H         1 UNK         0.3450 
    100 H100      -56.8785  -30.5905   15.9815 H         1 UNK         0.3450 
    101 H101      -55.8041  -28.6376   14.3644 H         1 UNK         0.2987 
    102 H102      -56.2686  -26.1329   16.0620 H         1 UNK         0.0766 
    103 H103      -57.8182  -26.5934   17.9195 H         1 UNK         0.0798 
    104 H104      -56.1712  -26.6024   18.5229 H         1 UNK         0.0798 
    105 H105      -57.0244  -28.1233   18.2628 H         1 UNK         0.0798 
    106 H106      -54.2463  -27.0186   16.1744 H         1 UNK         0.3198 
    107 H107      -52.8402  -30.0445   17.2081 H         1 UNK         0.0843 
    108 H108      -53.5539  -30.9078   14.9870 H         1 UNK         0.0831 
    109 H109      -51.8923  -30.3457   14.9214 H         1 UNK         0.0831 
    110 H110      -53.1831  -29.3624   14.2357 H         1 UNK         0.0831 
    111 H111      -51.7792  -27.8826   15.6239 H         1 UNK         0.3133 
    112 H112      -50.5910  -26.0733   18.5056 H         1 UNK         0.0566 
    113 H113      -48.4641  -26.5392   17.3135 H         1 UNK         0.0814 
    114 H114      -49.2401  -27.8066   16.3661 H         1 UNK         0.0814 
    115 H115      -49.0531  -27.9918   18.1059 H         1 UNK         0.0814 
    116 H116      -50.9755  -26.0534   15.5293 H         1 UNK         0.3091 
    117 H117      -52.2373  -22.7718   15.6715 H         1 UNK         0.0702 
    118 H118      -50.5715  -22.1972   13.9222 H         1 UNK         0.0785 
    119 H119      -49.5642  -23.5663   14.3889 H         1 UNK         0.0785 
    120 H120      -49.7961  -22.2202   15.4977 H         1 UNK         0.0785 
    121 H121      -51.6917  -24.4051   13.4294 H         1 UNK         0.2998 
    122 H122      -54.1798  -26.8715   13.7852 H         1 UNK         0.0697 
    123 H123      -55.2255  -25.9840   11.7507 H         1 UNK         0.0825 
    124 H124      -54.3672  -24.4518   11.9126 H         1 UNK         0.0825 
    125 H125      -55.6015  -24.9114   13.0770 H         1 UNK         0.0825 
    126 H126      -52.7307  -26.3201   11.4944 H         1 UNK         0.3029 
    127 H127      -49.4602  -26.9992   12.2273 H         1 UNK         0.0897 
    128 H128      -51.2548  -29.2765   11.2283 H         1 UNK         0.0792 
    129 H129      -50.0696  -29.3833   12.5186 H         1 UNK         0.0792 
    130 H130      -49.5364  -29.1012   10.8697 H         1 UNK         0.0792 
    131 H131      -50.8337  -27.2617    9.7536 H         1 UNK         0.3086 
    132 H132      -51.0804  -25.7446    8.3409 H         1 UNK         0.0583 
    133 H133      -53.0177  -24.5138    9.6048 H         1 UNK         0.1020 
    134 H134      -52.1778  -23.0437    9.2724 H         1 UNK         0.1020 
    135 H135      -55.1508  -24.8278    8.1185 H         1 UNK         0.0694 
    136 H136      -54.8979  -25.3788    6.4796 H         1 UNK         0.0694 
    137 H137      -49.1870  -24.8208    7.8278 H         1 UNK         0.2989 
    138 H138      -47.9568  -22.8940    6.9251 H         1 UNK         0.1055 
    139 H139      -47.3594  -20.9899    9.2552 H         1 UNK         0.0806 
    140 H140      -48.0460  -20.5560    7.6995 H         1 UNK         0.0806 
    141 H141      -46.3933  -21.1459    7.7884 H         1 UNK         0.0806 
    142 H142      -46.7016  -24.4398    7.9053 H         1 UNK         0.3061 
    143 H143      -45.1360  -24.8656   11.0228 H         1 UNK         0.0734 
    144 H144      -46.0433  -27.1545   10.8235 H         1 UNK         0.0832 
    145 H145      -47.3168  -26.0532   11.3090 H         1 UNK         0.0832 
    146 H146      -47.2493  -26.6198    9.6497 H         1 UNK         0.0832 
    147 H147      -45.2169  -26.0864    8.3416 H         1 UNK         0.3156 
    148 H148      -42.4601  -24.2701    7.1157 H         1 UNK         0.0589 
    149 H149      -42.3556  -27.1653    8.1109 H         1 UNK         0.0808 
    150 H150      -41.1630  -25.9115    8.3967 H         1 UNK         0.0808 
    151 H151      -41.4102  -26.5208    6.7686 H         1 UNK         0.0808 
    152 H152      -44.0257  -26.5879    6.2765 H         1 UNK         0.3098 
    153 H153      -46.5764  -24.6734    4.7275 H         1 UNK         0.0720 
    154 H154      -45.8673  -25.6608    2.5643 H         1 UNK         0.0791 
    155 H155      -44.2589  -25.9925    3.2102 H         1 UNK         0.0791 
    156 H156      -44.8031  -24.3345    2.9974 H         1 UNK         0.0791 
    157 H157      -45.8937  -27.4154    4.4252 H         1 UNK         0.3028 
@<TRIPOS>BOND
     1    1    2 1    
     2    1   82 1    
     3    1   83 1    
     4    1   84 1    
     5    2    3 2    
     6    2    4 am   BACKBONE|DICT|INTERRES
     7    4    5 1    
     8    4   85 1    
     9    5    6 1    
    10    5   80 1    
    11    5   86 1    
    12    6    7 1    
    13    6   87 1    
    14    6   88 1    
    15    7    8 1    
    16    8    9 1    
    17    8   89 1    
    18    8   90 1    
    19    9   10 ar   
    20    9   14 ar   
    21   10   11 ar   
    22   10   91 1    
    23   11   12 ar   
    24   11   58 1    
    25   12   13 ar   
    26   12   92 1    
    27   13   14 ar   
    28   13   15 1    
    29   14   93 1    
    30   15   16 1    
    31   15   94 1    
    32   15   95 1    
    33   16   17 1    
    34   17   18 1    
    35   17   96 1    
    36   17   97 1    
    37   18   19 1    
    38   18   22 1    
    39   18   98 1    
    40   19   20 am   BACKBONE|DICT|INTERRES
    41   19   21 2    
    42   20   99 1    
    43   20  100 1    
    44   22   23 am   BACKBONE|DICT|INTERRES
    45   22  101 1    
    46   23   24 2    
    47   23   25 1    
    48   25   26 1    
    49   25   27 1    
    50   25  102 1    
    51   26  103 1    
    52   26  104 1    
    53   26  105 1    
    54   27   28 am   BACKBONE|DICT|INTERRES
    55   27  106 1    
    56   28   29 2    
    57   28   30 1    
    58   30   31 1    
    59   30   32 1    
    60   30  107 1    
    61   31  108 1    
    62   31  109 1    
    63   31  110 1    
    64   32   33 am   BACKBONE|DICT|INTERRES
    65   32  111 1    
    66   33   34 2    
    67   33   35 1    
    68   35   36 1    
    69   35   37 1    
    70   35  112 1    
    71   36  113 1    
    72   36  114 1    
    73   36  115 1    
    74   37   38 am   BACKBONE|DICT|INTERRES
    75   37  116 1    
    76   38   39 2    
    77   38   40 1    
    78   40   41 1    
    79   40   42 1    
    80   40  117 1    
    81   41  118 1    
    82   41  119 1    
    83   41  120 1    
    84   42   43 am   BACKBONE|DICT|INTERRES
    85   42  121 1    
    86   43   44 2    
    87   43   45 1    
    88   45   46 1    
    89   45   47 1    
    90   45  122 1    
    91   46  123 1    
    92   46  124 1    
    93   46  125 1    
    94   47   48 am   BACKBONE|DICT|INTERRES
    95   47  126 1    
    96   48   49 2    
    97   48   50 1    
    98   50   51 1    
    99   50   52 1    
   100   50  127 1    
   101   51  128 1    
   102   51  129 1    
   103   51  130 1    
   104   52   53 am   BACKBONE|DICT|INTERRES
   105   52  131 1    
   106   53   54 2    
   107   53   55 1    
   108   55   56 1    
   109   55   59 1    
   110   55  132 1    
   111   56   57 1    
   112   56  133 1    
   113   56  134 1    
   114   57   58 1    
   115   58  135 1    
   116   58  136 1    
   117   59   60 am   BACKBONE|DICT|INTERRES
   118   59  137 1    
   119   60   61 2    
   120   60   62 1    
   121   62   63 1    
   122   62   64 1    
   123   62  138 1    
   124   63  139 1    
   125   63  140 1    
   126   63  141 1    
   127   64   65 am   BACKBONE|DICT|INTERRES
   128   64  142 1    
   129   65   66 2    
   130   65   67 1    
   131   67   68 1    
   132   67   69 1    
   133   67  143 1    
   134   68  144 1    
   135   68  145 1    
   136   68  146 1    
   137   69   70 am   BACKBONE|DICT|INTERRES
   138   69  147 1    
   139   70   71 2    
   140   70   72 1    
   141   72   73 1    
   142   72   74 1    
   143   72  148 1    
   144   73  149 1    
   145   73  150 1    
   146   73  151 1    
   147   74   75 am   BACKBONE|DICT|INTERRES
   148   74  152 1    
   149   75   76 2    
   150   75   77 1    
   151   77   78 1    
   152   77   79 1    
   153   77  153 1    
   154   78  154 1    
   155   78  155 1    
   156   78  156 1    
   157   79   80 am   BACKBONE|DICT|INTERRES
   158   79  157 1    
   159   80   81 2    
@<TRIPOS>SUBSTRUCTURE
     1 UNK         1 GROUP             0       ****    0 ROOT    
