@<TRIPOS>MOLECULE
3R207
157   159    1
SMALL
USER_CHARGES


@<TRIPOS>ATOM
      1 CA        -47.9234  -27.1110    6.0892 C.3       0 UNK        -0.1975 
      2 C         -49.2020  -26.3111    6.2858 C.2       0 UNK         0.4852 
      3 O         -49.1906  -25.0891    6.1341 O.2       0 UNK        -0.5216 
      4 N         -50.3112  -26.9843    6.6168 N.am      1 UNK        -0.4461 
      5 CA        -51.6389  -26.3829    6.7752 C.3       1 UNK         0.0864 
      6 C6        -52.8001  -27.4082    6.6286 C.3       14 UNK        -0.0898 
      7 S7        -52.5171  -28.6485    5.3019 S.3       14 UNK        -0.2598 
      8 C8        -52.7111  -30.2975    6.0828 C.3       14 UNK         0.0286 
      9 C9        -52.3582  -30.3357    7.5638 C.ar      14 UNK        -0.0844 
     10 C10       -51.0267  -30.3667    7.9906 C.ar      14 UNK        -0.0881 
     11 C11       -50.7188  -30.3105    9.3560 C.ar      14 UNK        -0.0643 
     12 C12       -51.7568  -30.2375   10.2923 C.ar      14 UNK        -0.0930 
     13 C13       -53.0909  -30.2312    9.8743 C.ar      14 UNK        -0.0827 
     14 C14       -53.3836  -30.2975    8.5119 C.ar      14 UNK        -0.1249 
     15 C15       -54.2241  -30.0846   10.8753 C.3       14 UNK         0.0141 
     16 S16       -54.6656  -31.6540   11.6828 S.3       14 UNK        -0.2313 
     17 C17       -53.8923  -31.4449   13.3213 C.3       14 UNK        -0.0915 
     18 CA        -54.8384  -30.7938   14.3719 C.3       13 UNK         0.0968 
     19 C         -54.1606  -30.7208   15.7709 C.2       13 UNK         0.5732 
     20 N         -53.9945  -29.5479   16.3730 N.am      13 UNK        -0.7310 
     21 O         -53.7883  -31.7513   16.3266 O.2       13 UNK        -0.5035 
     22 N         -55.3891  -29.5024   13.9195 N.am      13 UNK        -0.4233 
     23 C         -56.6076  -29.0403   14.2293 C.2       13 UNK         0.4989 
     24 O         -57.4239  -29.6702   14.9034 O.2       13 UNK        -0.4996 
     25 CA        -56.9949  -27.6418   13.7152 C.3       12 UNK         0.0216 
     26 CB        -57.1861  -26.6693   14.8924 C.3       12 UNK        -0.1964 
     27 N         -56.0051  -27.0739   12.7931 N.am      12 UNK        -0.4276 
     28 C         -56.1154  -27.0638   11.4558 C.2       12 UNK         0.5020 
     29 O         -57.0564  -27.5870   10.8574 O.2       12 UNK        -0.5489 
     30 CA        -54.9889  -26.3984   10.6295 C.3       11 UNK         0.0294 
     31 CB        -55.5457  -25.5285    9.4829 C.3       11 UNK        -0.2019 
     32 N         -53.9974  -25.6548   11.4181 N.am      11 UNK        -0.4493 
     33 C         -54.2007  -24.5735   12.1863 C.2       11 UNK         0.4932 
     34 O         -55.2818  -23.9917   12.2827 O.2       11 UNK        -0.5029 
     35 CA        -52.9973  -24.1051   13.0282 C.3       10 UNK         0.0280 
     36 CB        -53.4064  -23.1625   14.1783 C.3       10 UNK        -0.1976 
     37 N         -52.1858  -25.2113   13.5524 N.am      10 UNK        -0.4242 
     38 C         -52.5849  -26.2511   14.3021 C.2       10 UNK         0.5072 
     39 O         -53.7581  -26.4873   14.5937 O.2       10 UNK        -0.5224 
     40 CA        -51.4952  -27.2265   14.7735 C.3       9 UNK         0.0343 
     41 CB        -51.3474  -28.3764   13.7666 C.3       9 UNK        -0.2003 
     42 N         -50.1990  -26.5743   14.9657 N.am      9 UNK        -0.4272 
     43 C         -49.8418  -25.8910   16.0631 C.2       9 UNK         0.4988 
     44 O         -50.5448  -25.7916   17.0690 O.2       9 UNK        -0.5108 
     45 CA        -48.4650  -25.1998   16.0373 C.3       8 UNK         0.0248 
     46 CB        -47.3780  -26.1450   16.5741 C.3       8 UNK        -0.2001 
     47 N         -48.0875  -24.7406   14.6987 N.am      8 UNK        -0.4140 
     48 C         -48.6653  -23.7126   14.0584 C.2       8 UNK         0.5028 
     49 O         -49.4962  -22.9652   14.5736 O.2       8 UNK        -0.5428 
     50 CA        -48.2904  -23.5106   12.5785 C.3       7 UNK         0.0264 
     51 CB        -47.1852  -22.4536   12.4401 C.3       7 UNK        -0.1988 
     52 N         -47.8870  -24.7525   11.9042 N.am      7 UNK        -0.4454 
     53 C         -48.7067  -25.8025   11.7230 C.2       7 UNK         0.5027 
     54 O         -49.8915  -25.7724   12.0493 O.2       7 UNK        -0.5083 
     55 CA        -48.1392  -27.1195   11.1517 C.3       6 UNK         0.0844 
     56 C56       -48.8859  -27.5293    9.8603 C.3       14 UNK        -0.0967 
     57 S57       -48.2291  -29.0487    9.0891 S.3       14 UNK        -0.2604 
     58 C58       -49.2698  -30.3496    9.8292 C.3       14 UNK         0.0134 
     59 N         -46.6858  -27.0794   10.9873 N.am      6 UNK        -0.4116 
     60 C         -45.8002  -27.2204   11.9829 C.2       5 UNK         0.5034 
     61 O         -46.1179  -27.3941   13.1601 O.2       5 UNK        -0.5045 
     62 CA        -44.3103  -27.1063   11.6097 C.3       5 UNK         0.0224 
     63 CB        -43.7137  -28.4997   11.3555 C.3       5 UNK        -0.1978 
     64 N         -44.0649  -26.2520   10.4411 N.am      5 UNK        -0.4737 
     65 C         -44.3459  -24.9430   10.3896 C.2       4 UNK         0.5027 
     66 O         -44.7948  -24.3156   11.3496 O.2       4 UNK        -0.5211 
     67 CA        -44.1327  -24.2105    9.0496 C.3       4 UNK         0.0297 
     68 CB        -43.7972  -25.1436    7.8624 C.3       4 UNK        -0.1993 
     69 N         -45.2798  -23.3540    8.7198 N.am      4 UNK        -0.4486 
     70 C         -46.5536  -23.7454    8.5706 C.2       3 UNK         0.4961 
     71 O         -46.9330  -24.9149    8.6762 O.2       3 UNK        -0.5105 
     72 CA        -47.5618  -22.6346    8.2417 C.3       3 UNK         0.0299 
     73 CB        -47.3593  -22.1241    6.8044 C.3       3 UNK        -0.1972 
     74 N         -48.9205  -23.1586    8.3634 N.am      3 UNK        -0.4305 
     75 C         -49.8692  -22.6925    9.1864 C.2       2 UNK         0.5006 
     76 O         -49.7230  -21.6947    9.8933 O.2       2 UNK        -0.5106 
     77 CA        -51.2065  -23.4566    9.2395 C.3       2 UNK         0.0296 
     78 CB        -52.4183  -22.5139    9.3627 C.3       2 UNK        -0.2002 
     79 N         -51.3797  -24.3198    8.0696 N.am      2 UNK        -0.4032 
     80 C         -51.6907  -25.6198    8.1157 C.2       1 UNK         0.5000 
     81 O         -51.9489  -26.2242    9.1578 O.2       1 UNK        -0.5238 
     82 H82       -47.2141  -26.8882    6.8853 H         1 UNK         0.0889 
     83 H83       -47.4606  -26.8507    5.1379 H         1 UNK         0.0889 
     84 H84       -48.1125  -28.1842    6.0910 H         1 UNK         0.0889 
     85 H85       -50.2748  -27.9829    6.7609 H         1 UNK         0.3028 
     86 H86       -51.7656  -25.6581    5.9675 H         1 UNK         0.0864 
     87 H87       -53.0054  -27.8966    7.5764 H         1 UNK         0.0720 
     88 H88       -53.7223  -26.8754    6.3911 H         1 UNK         0.0720 
     89 H89       -52.0927  -31.0161    5.5431 H         1 UNK         0.0814 
     90 H90       -53.7413  -30.6260    5.9365 H         1 UNK         0.0814 
     91 H91       -50.2292  -30.4128    7.2618 H         1 UNK         0.1469 
     92 H92       -51.5275  -30.1850   11.3469 H         1 UNK         0.1381 
     93 H93       -54.4141  -30.2687    8.1844 H         1 UNK         0.1206 
     94 H94       -55.1163  -29.7061   10.3745 H         1 UNK         0.0813 
     95 H95       -53.9515  -29.3303   11.6119 H         1 UNK         0.0813 
     96 H96       -52.9616  -30.8915   13.2148 H         1 UNK         0.0638 
     97 H97       -53.5988  -32.4410   13.6575 H         1 UNK         0.0638 
     98 H98       -55.6749  -31.4837   14.4983 H         1 UNK         0.0568 
     99 H99       -53.5644  -29.5229   17.2836 H         1 UNK         0.3450 
    100 H100      -54.3016  -28.6934   15.9355 H         1 UNK         0.3450 
    101 H101      -54.7721  -28.9044   13.3959 H         1 UNK         0.2987 
    102 H102      -57.9572  -27.7436   13.2093 H         1 UNK         0.0766 
    103 H103      -57.4825  -25.6798   14.5436 H         1 UNK         0.0798 
    104 H104      -56.2746  -26.5567   15.4800 H         1 UNK         0.0798 
    105 H105      -57.9670  -27.0206   15.5682 H         1 UNK         0.0798 
    106 H106      -55.2020  -26.6271   13.2281 H         1 UNK         0.3198 
    107 H107      -54.4355  -27.2164   10.1663 H         1 UNK         0.0843 
    108 H108      -54.7413  -25.1058    8.8816 H         1 UNK         0.0831 
    109 H109      -56.1567  -24.7063    9.8557 H         1 UNK         0.0831 
    110 H110      -56.1709  -26.1183    8.8116 H         1 UNK         0.0831 
    111 H111      -53.0532  -26.0171   11.3610 H         1 UNK         0.3133 
    112 H112      -52.3491  -23.5445   12.3536 H         1 UNK         0.0566 
    113 H113      -52.5350  -22.8254   14.7403 H         1 UNK         0.0814 
    114 H114      -53.9095  -22.2726   13.7981 H         1 UNK         0.0814 
    115 H115      -54.0875  -23.6514   14.8760 H         1 UNK         0.0814 
    116 H116      -51.2172  -25.2178   13.2431 H         1 UNK         0.3091 
    117 H117      -51.8229  -27.6499   15.7253 H         1 UNK         0.0702 
    118 H118      -50.6862  -29.1557   14.1458 H         1 UNK         0.0785 
    119 H119      -50.9583  -28.0395   12.8059 H         1 UNK         0.0785 
    120 H120      -52.3162  -28.8319   13.5762 H         1 UNK         0.0785 
    121 H121      -49.5747  -26.5741   14.1726 H         1 UNK         0.2998 
    122 H122      -48.5177  -24.3298   16.6955 H         1 UNK         0.0697 
    123 H123      -46.4117  -25.6440   16.6357 H         1 UNK         0.0825 
    124 H124      -47.6251  -26.4938   17.5778 H         1 UNK         0.0825 
    125 H125      -47.2586  -27.0264   15.9422 H         1 UNK         0.0825 
    126 H126      -47.3962  -25.2891   14.2053 H         1 UNK         0.3029 
    127 H127      -49.1838  -23.1366   12.0761 H         1 UNK         0.0897 
    128 H128      -46.9380  -22.2713   11.3947 H         1 UNK         0.0792 
    129 H129      -47.5031  -21.5016   12.8672 H         1 UNK         0.0792 
    130 H130      -46.2721  -22.7535   12.9555 H         1 UNK         0.0792 
    131 H131      -46.9190  -24.8183   11.6086 H         1 UNK         0.3086 
    132 H132      -48.3609  -27.8874   11.8959 H         1 UNK         0.0583 
    133 H133      -49.9496  -27.6676   10.0628 H         1 UNK         0.1020 
    134 H134      -48.8258  -26.7258    9.1268 H         1 UNK         0.1020 
    135 H135      -48.8474  -31.3210    9.5695 H         1 UNK         0.0694 
    136 H136      -49.2094  -30.2703   10.9158 H         1 UNK         0.0694 
    137 H137      -46.3507  -26.8882   10.0528 H         1 UNK         0.2989 
    138 H138      -43.7965  -26.6607   12.4646 H         1 UNK         0.1055 
    139 H139      -43.8590  -29.1494   12.2200 H         1 UNK         0.0806 
    140 H140      -42.6406  -28.4456   11.1711 H         1 UNK         0.0806 
    141 H141      -44.1792  -28.9892   10.4989 H         1 UNK         0.0806 
    142 H142      -43.7021  -26.7008    9.6121 H         1 UNK         0.3061 
    143 H143      -43.2818  -23.5447    9.2009 H         1 UNK         0.0734 
    144 H144      -44.5827  -25.8783    7.6802 H         1 UNK         0.0832 
    145 H145      -43.6667  -24.5721    6.9434 H         1 UNK         0.0832 
    146 H146      -42.8645  -25.6834    8.0305 H         1 UNK         0.0832 
    147 H147      -45.0752  -22.3667    8.6509 H         1 UNK         0.3156 
    148 H148      -47.3991  -21.8114    8.9399 H         1 UNK         0.0589 
    149 H149      -48.0901  -21.3556    6.5523 H         1 UNK         0.0808 
    150 H150      -46.3706  -21.6830    6.6738 H         1 UNK         0.0808 
    151 H151      -47.4567  -22.9287    6.0739 H         1 UNK         0.0808 
    152 H152      -49.0835  -24.0095    7.8330 H         1 UNK         0.3098 
    153 H153      -51.1576  -24.0636   10.1460 H         1 UNK         0.0720 
    154 H154      -52.3456  -21.8904   10.2547 H         1 UNK         0.0791 
    155 H155      -53.3492  -23.0754    9.4402 H         1 UNK         0.0791 
    156 H156      -52.4980  -21.8484    8.5026 H         1 UNK         0.0791 
    157 H157      -51.1325  -23.9145    7.1758 H         1 UNK         0.3028 
@<TRIPOS>BOND
     1    1    2 1    
     2    1   82 1    
     3    1   83 1    
     4    1   84 1    
     5    2    3 2    
     6    2    4 am   BACKBONE|DICT|INTERRES
     7    4    5 1    
     8    4   85 1    
     9    5    6 1    
    10    5   80 1    
    11    5   86 1    
    12    6    7 1    
    13    6   87 1    
    14    6   88 1    
    15    7    8 1    
    16    8    9 1    
    17    8   89 1    
    18    8   90 1    
    19    9   10 ar   
    20    9   14 ar   
    21   10   11 ar   
    22   10   91 1    
    23   11   12 ar   
    24   11   58 1    
    25   12   13 ar   
    26   12   92 1    
    27   13   14 ar   
    28   13   15 1    
    29   14   93 1    
    30   15   16 1    
    31   15   94 1    
    32   15   95 1    
    33   16   17 1    
    34   17   18 1    
    35   17   96 1    
    36   17   97 1    
    37   18   19 1    
    38   18   22 1    
    39   18   98 1    
    40   19   20 am   BACKBONE|DICT|INTERRES
    41   19   21 2    
    42   20   99 1    
    43   20  100 1    
    44   22   23 am   BACKBONE|DICT|INTERRES
    45   22  101 1    
    46   23   24 2    
    47   23   25 1    
    48   25   26 1    
    49   25   27 1    
    50   25  102 1    
    51   26  103 1    
    52   26  104 1    
    53   26  105 1    
    54   27   28 am   BACKBONE|DICT|INTERRES
    55   27  106 1    
    56   28   29 2    
    57   28   30 1    
    58   30   31 1    
    59   30   32 1    
    60   30  107 1    
    61   31  108 1    
    62   31  109 1    
    63   31  110 1    
    64   32   33 am   BACKBONE|DICT|INTERRES
    65   32  111 1    
    66   33   34 2    
    67   33   35 1    
    68   35   36 1    
    69   35   37 1    
    70   35  112 1    
    71   36  113 1    
    72   36  114 1    
    73   36  115 1    
    74   37   38 am   BACKBONE|DICT|INTERRES
    75   37  116 1    
    76   38   39 2    
    77   38   40 1    
    78   40   41 1    
    79   40   42 1    
    80   40  117 1    
    81   41  118 1    
    82   41  119 1    
    83   41  120 1    
    84   42   43 am   BACKBONE|DICT|INTERRES
    85   42  121 1    
    86   43   44 2    
    87   43   45 1    
    88   45   46 1    
    89   45   47 1    
    90   45  122 1    
    91   46  123 1    
    92   46  124 1    
    93   46  125 1    
    94   47   48 am   BACKBONE|DICT|INTERRES
    95   47  126 1    
    96   48   49 2    
    97   48   50 1    
    98   50   51 1    
    99   50   52 1    
   100   50  127 1    
   101   51  128 1    
   102   51  129 1    
   103   51  130 1    
   104   52   53 am   BACKBONE|DICT|INTERRES
   105   52  131 1    
   106   53   54 2    
   107   53   55 1    
   108   55   56 1    
   109   55   59 1    
   110   55  132 1    
   111   56   57 1    
   112   56  133 1    
   113   56  134 1    
   114   57   58 1    
   115   58  135 1    
   116   58  136 1    
   117   59   60 am   BACKBONE|DICT|INTERRES
   118   59  137 1    
   119   60   61 2    
   120   60   62 1    
   121   62   63 1    
   122   62   64 1    
   123   62  138 1    
   124   63  139 1    
   125   63  140 1    
   126   63  141 1    
   127   64   65 am   BACKBONE|DICT|INTERRES
   128   64  142 1    
   129   65   66 2    
   130   65   67 1    
   131   67   68 1    
   132   67   69 1    
   133   67  143 1    
   134   68  144 1    
   135   68  145 1    
   136   68  146 1    
   137   69   70 am   BACKBONE|DICT|INTERRES
   138   69  147 1    
   139   70   71 2    
   140   70   72 1    
   141   72   73 1    
   142   72   74 1    
   143   72  148 1    
   144   73  149 1    
   145   73  150 1    
   146   73  151 1    
   147   74   75 am   BACKBONE|DICT|INTERRES
   148   74  152 1    
   149   75   76 2    
   150   75   77 1    
   151   77   78 1    
   152   77   79 1    
   153   77  153 1    
   154   78  154 1    
   155   78  155 1    
   156   78  156 1    
   157   79   80 am   BACKBONE|DICT|INTERRES
   158   79  157 1    
   159   80   81 2    
@<TRIPOS>SUBSTRUCTURE
     1 UNK         1 GROUP             0       ****    0 ROOT    
