@<TRIPOS>MOLECULE
3R207
157   159    1
SMALL
USER_CHARGES


@<TRIPOS>ATOM
      1 CA        -52.6172  -30.0105    3.0478 C.3       0 UNK        -0.1975 
      2 C         -51.3889  -29.8181    3.9255 C.2       0 UNK         0.4852 
      3 O         -50.2828  -30.1677    3.5108 O.2       0 UNK        -0.5216 
      4 N         -51.5838  -29.2726    5.1333 N.am      1 UNK        -0.4461 
      5 CA        -50.5477  -28.9644    6.1254 C.3       1 UNK         0.0864 
      6 C6        -49.7963  -30.2357    6.6297 C.3       14 UNK        -0.0898 
      7 S7        -49.2382  -30.1194    8.3663 S.3       14 UNK        -0.2598 
      8 C8        -50.6649  -30.8097    9.2767 C.3       14 UNK         0.0286 
      9 C9        -51.9077  -29.9576    9.0706 C.ar      14 UNK        -0.0844 
     10 C10       -51.9555  -28.6651    9.5957 C.ar      14 UNK        -0.0881 
     11 C11       -53.0098  -27.8067    9.2748 C.ar      14 UNK        -0.0643 
     12 C12       -54.0560  -28.2709    8.4700 C.ar      14 UNK        -0.0930 
     13 C13       -54.0464  -29.5832    7.9841 C.ar      14 UNK        -0.0827 
     14 C14       -52.9667  -30.4202    8.2847 C.ar      14 UNK        -0.1249 
     15 C15       -55.1712  -30.0845    7.0865 C.3       14 UNK         0.0141 
     16 S16       -56.7281  -30.3733    7.9894 S.3       14 UNK        -0.2313 
     17 C17       -56.2573  -31.6691    9.1895 C.3       14 UNK        -0.0915 
     18 CA        -56.5286  -31.2474   10.6581 C.3       13 UNK         0.0968 
     19 C         -56.1180  -32.3754   11.6432 C.2       13 UNK         0.5732 
     20 N         -56.9973  -33.3391   11.8815 N.am      13 UNK        -0.7310 
     21 O         -55.0021  -32.4076   12.1593 O.2       13 UNK        -0.5035 
     22 N         -55.9062  -29.9550   10.9725 N.am      13 UNK        -0.4233 
     23 C         -56.1677  -29.2177   12.0561 C.2       13 UNK         0.4989 
     24 O         -56.9627  -29.5351   12.9452 O.2       13 UNK        -0.4996 
     25 CA        -55.4567  -27.8643   12.1214 C.3       12 UNK         0.0216 
     26 CB        -56.1773  -26.8271   11.2400 C.3       12 UNK        -0.1964 
     27 N         -55.4299  -27.3804   13.4985 N.am      12 UNK        -0.4276 
     28 C         -54.4097  -26.7203   14.0523 C.2       12 UNK         0.5020 
     29 O         -53.3570  -26.4576   13.4626 O.2       12 UNK        -0.5489 
     30 CA        -54.5876  -26.2800   15.5107 C.3       11 UNK         0.0294 
     31 CB        -54.5762  -27.4903   16.4657 C.3       11 UNK        -0.2019 
     32 N         -53.4839  -25.3838   15.8294 N.am      11 UNK        -0.4493 
     33 C         -53.3851  -24.5465   16.8664 C.2       11 UNK         0.4932 
     34 O         -54.2851  -24.3599   17.6872 O.2       11 UNK        -0.5029 
     35 CA        -52.0311  -23.8197   17.0060 C.3       10 UNK         0.0280 
     36 CB        -51.8223  -23.1712   18.3907 C.3       10 UNK        -0.1976 
     37 N         -50.9070  -24.6963   16.6506 N.am      10 UNK        -0.4242 
     38 C         -50.5653  -25.8531   17.2424 C.2       10 UNK         0.5072 
     39 O         -51.0763  -26.2848   18.2768 O.2       10 UNK        -0.5224 
     40 CA        -49.4924  -26.6984   16.5383 C.3       9 UNK         0.0343 
     41 CB        -50.1501  -27.6223   15.4993 C.3       9 UNK        -0.2003 
     42 N         -48.4561  -25.8921   15.8912 N.am      9 UNK        -0.4272 
     43 C         -47.5259  -25.1890   16.5533 C.2       9 UNK         0.4988 
     44 O         -47.4202  -25.1753   17.7805 O.2       9 UNK        -0.5108 
     45 CA        -46.5448  -24.3603   15.7083 C.3       8 UNK         0.0248 
     46 CB        -45.4259  -25.2538   15.1495 C.3       8 UNK        -0.2001 
     47 N         -47.1988  -23.6343   14.6160 N.am      8 UNK        -0.4140 
     48 C         -48.0739  -22.6325   14.7908 C.2       8 UNK         0.5028 
     49 O         -48.3963  -22.1870   15.8926 O.2       8 UNK        -0.5428 
     50 CA        -48.7139  -22.0299   13.5285 C.3       7 UNK         0.0264 
     51 CB        -47.7592  -21.0299   12.8569 C.3       7 UNK        -0.1988 
     52 N         -49.1368  -23.0377   12.5538 N.am      7 UNK        -0.4454 
     53 C         -50.0744  -23.9723   12.7764 C.2       7 UNK         0.5027 
     54 O         -50.7022  -24.0767   13.8314 O.2       7 UNK        -0.5083 
     55 CA        -50.3169  -24.9874   11.6403 C.3       6 UNK         0.0844 
     56 C56       -51.1917  -24.3468   10.5295 C.3       14 UNK        -0.0967 
     57 S57       -51.5473  -25.4711    9.1406 S.3       14 UNK        -0.2604 
     58 C58       -52.9872  -26.3751    9.7864 C.3       14 UNK         0.0134 
     59 N         -49.0525  -25.5504   11.1467 N.am      6 UNK        -0.4116 
     60 C         -48.1639  -26.2120   11.9063 C.2       5 UNK         0.5034 
     61 O         -48.3395  -26.4882   13.0919 O.2       5 UNK        -0.5045 
     62 CA        -46.8158  -26.5649   11.2640 C.3       5 UNK         0.0224 
     63 CB        -46.9069  -27.8648   10.4488 C.3       5 UNK        -0.1978 
     64 N         -46.3119  -25.4680   10.4354 N.am      5 UNK        -0.4737 
     65 C         -45.8441  -24.3125   10.9306 C.2       4 UNK         0.5027 
     66 O         -45.7452  -24.0784   12.1338 O.2       4 UNK        -0.5211 
     67 CA        -45.4570  -23.2188    9.9212 C.3       4 UNK         0.0297 
     68 CB        -44.0070  -23.4102    9.4502 C.3       4 UNK        -0.1993 
     69 N         -46.3485  -23.1756    8.7613 N.am      4 UNK        -0.4486 
     70 C         -47.6498  -22.8579    8.8143 C.2       3 UNK         0.4961 
     71 O         -48.2280  -22.4997    9.8407 O.2       3 UNK        -0.5105 
     72 CA        -48.4516  -23.0261    7.5109 C.3       3 UNK         0.0299 
     73 CB        -48.3877  -21.7422    6.6691 C.3       3 UNK        -0.1972 
     74 N         -48.0274  -24.1747    6.6972 N.am      3 UNK        -0.4305 
     75 C         -48.0363  -25.4453    7.1235 C.2       2 UNK         0.5006 
     76 O         -48.3429  -25.7775    8.2691 O.2       2 UNK        -0.5106 
     77 CA        -47.5697  -26.5256    6.1391 C.3       2 UNK         0.0296 
     78 CB        -46.1226  -26.9426    6.4490 C.3       2 UNK        -0.2002 
     79 N         -48.4425  -27.6927    6.2568 N.am      2 UNK        -0.4032 
     80 C         -49.6456  -27.7909    5.6788 C.2       1 UNK         0.5000 
     81 O         -50.0696  -26.9686    4.8600 O.2       1 UNK        -0.5238 
     82 H82       -52.5107  -29.4416    2.1245 H         1 UNK         0.0889 
     83 H83       -53.5302  -29.6828    3.5448 H         1 UNK         0.0889 
     84 H84       -52.7320  -31.0627    2.7889 H         1 UNK         0.0889 
     85 H85       -52.5148  -28.9816    5.3952 H         1 UNK         0.3028 
     86 H86       -51.1068  -28.5458    6.9597 H         1 UNK         0.0864 
     87 H87       -50.4480  -31.1079    6.5577 H         1 UNK         0.0720 
     88 H88       -48.9411  -30.4655    5.9915 H         1 UNK         0.0720 
     89 H89       -50.4253  -30.8496   10.3402 H         1 UNK         0.0814 
     90 H90       -50.8370  -31.8393    8.9593 H         1 UNK         0.0814 
     91 H91       -51.1321  -28.2988   10.1945 H         1 UNK         0.1469 
     92 H92       -54.8727  -27.6112    8.2105 H         1 UNK         0.1381 
     93 H93       -52.9309  -31.4199    7.8738 H         1 UNK         0.1206 
     94 H94       -55.3548  -29.3520    6.2993 H         1 UNK         0.0813 
     95 H95       -54.8807  -31.0059    6.5791 H         1 UNK         0.0813 
     96 H96       -55.2088  -31.9375    9.0554 H         1 UNK         0.0638 
     97 H97       -56.8284  -32.5662    8.9442 H         1 UNK         0.0638 
     98 H98       -57.6059  -31.1035   10.7636 H         1 UNK         0.0568 
     99 H99       -57.9106  -33.3304   11.4546 H         1 UNK         0.3450 
    100 H100      -56.7441  -34.0882   12.5065 H         1 UNK         0.3450 
    101 H101      -55.2348  -29.6233   10.2945 H         1 UNK         0.2987 
    102 H102      -54.4372  -28.0150   11.7630 H         1 UNK         0.0766 
    103 H103      -55.6649  -25.8654   11.2604 H         1 UNK         0.0798 
    104 H104      -57.2031  -26.6630   11.5723 H         1 UNK         0.0798 
    105 H105      -56.2226  -27.1511   10.2002 H         1 UNK         0.0798 
    106 H106      -56.2330  -27.6405   14.0573 H         1 UNK         0.3198 
    107 H107      -55.5298  -25.7358   15.6012 H         1 UNK         0.0843 
    108 H108      -53.6434  -28.0508   16.3899 H         1 UNK         0.0831 
    109 H109      -55.3917  -28.1796   16.2446 H         1 UNK         0.0831 
    110 H110      -54.6930  -27.1805   17.5043 H         1 UNK         0.0831 
    111 H111      -52.7337  -25.4247   15.1461 H         1 UNK         0.3133 
    112 H112      -52.0351  -23.0196   16.2644 H         1 UNK         0.0566 
    113 H113      -50.8553  -22.6716   18.4505 H         1 UNK         0.0814 
    114 H114      -52.5883  -22.4206   18.5885 H         1 UNK         0.0814 
    115 H115      -51.8723  -23.9046   19.1959 H         1 UNK         0.0814 
    116 H116      -50.4618  -24.4716   15.7650 H         1 UNK         0.3091 
    117 H117      -49.0127  -27.3242   17.2939 H         1 UNK         0.0702 
    118 H118      -49.4186  -28.2892   15.0427 H         1 UNK         0.0785 
    119 H119      -50.6286  -27.0547   14.6993 H         1 UNK         0.0785 
    120 H120      -50.9169  -28.2469   15.9594 H         1 UNK         0.0785 
    121 H121      -48.4396  -25.9040   14.8734 H         1 UNK         0.2998 
    122 H122      -46.0858  -23.6204   16.3674 H         1 UNK         0.0697 
    123 H123      -45.8130  -25.9944   14.4491 H         1 UNK         0.0825 
    124 H124      -44.9195  -25.7941   15.9505 H         1 UNK         0.0825 
    125 H125      -44.6708  -24.6643   14.6294 H         1 UNK         0.0825 
    126 H126      -46.9283  -23.8934   13.6708 H         1 UNK         0.3029 
    127 H127      -49.6073  -21.4863   13.8431 H         1 UNK         0.0897 
    128 H128      -48.2348  -20.5359   12.0093 H         1 UNK         0.0792 
    129 H129      -47.4533  -20.2512   13.5569 H         1 UNK         0.0792 
    130 H130      -46.8540  -21.5170   12.4936 H         1 UNK         0.0792 
    131 H131      -48.6986  -22.9945   11.6362 H         1 UNK         0.3086 
    132 H132      -50.8795  -25.8183   12.0712 H         1 UNK         0.0583 
    133 H133      -52.1390  -23.9964   10.9450 H         1 UNK         0.1020 
    134 H134      -50.7031  -23.4629   10.1168 H         1 UNK         0.1020 
    135 H135      -52.9514  -26.3941   10.8748 H         1 UNK         0.0694 
    136 H136      -53.8954  -25.8392    9.5087 H         1 UNK         0.0694 
    137 H137      -48.8474  -25.4207   10.1600 H         1 UNK         0.2989 
    138 H138      -46.0999  -26.7306   12.0723 H         1 UNK         0.1055 
    139 H139      -47.2062  -28.6987   11.0851 H         1 UNK         0.0806 
    140 H140      -45.9461  -28.1255   10.0054 H         1 UNK         0.0806 
    141 H141      -47.6411  -27.7980    9.6471 H         1 UNK         0.0806 
    142 H142      -46.4624  -25.5479    9.4389 H         1 UNK         0.3061 
    143 H143      -45.5262  -22.2565   10.4329 H         1 UNK         0.0734 
    144 H144      -43.6908  -22.5976    8.7959 H         1 UNK         0.0832 
    145 H145      -43.3219  -23.4248   10.2993 H         1 UNK         0.0832 
    146 H146      -43.8756  -24.3488    8.9104 H         1 UNK         0.0832 
    147 H147      -45.9610  -23.4541    7.8718 H         1 UNK         0.3156 
    148 H148      -49.4932  -23.1961    7.7918 H         1 UNK         0.0589 
    149 H149      -47.3746  -21.5339    6.3227 H         1 UNK         0.0808 
    150 H150      -49.0360  -21.8074    5.7950 H         1 UNK         0.0808 
    151 H151      -48.7173  -20.8793    7.2497 H         1 UNK         0.0808 
    152 H152      -47.7518  -23.9808    5.7447 H         1 UNK         0.3098 
    153 H153      -47.6132  -26.1371    5.1193 H         1 UNK         0.0720 
    154 H154      -45.7760  -27.7096    5.7562 H         1 UNK         0.0791 
    155 H155      -46.0210  -27.3369    7.4610 H         1 UNK         0.0791 
    156 H156      -45.4424  -26.0947    6.3587 H         1 UNK         0.0791 
    157 H157      -48.2082  -28.3662    6.9741 H         1 UNK         0.3028 
@<TRIPOS>BOND
     1    1    2 1    
     2    1   82 1    
     3    1   83 1    
     4    1   84 1    
     5    2    3 2    
     6    2    4 am   BACKBONE|DICT|INTERRES
     7    4    5 1    
     8    4   85 1    
     9    5    6 1    
    10    5   80 1    
    11    5   86 1    
    12    6    7 1    
    13    6   87 1    
    14    6   88 1    
    15    7    8 1    
    16    8    9 1    
    17    8   89 1    
    18    8   90 1    
    19    9   10 ar   
    20    9   14 ar   
    21   10   11 ar   
    22   10   91 1    
    23   11   12 ar   
    24   11   58 1    
    25   12   13 ar   
    26   12   92 1    
    27   13   14 ar   
    28   13   15 1    
    29   14   93 1    
    30   15   16 1    
    31   15   94 1    
    32   15   95 1    
    33   16   17 1    
    34   17   18 1    
    35   17   96 1    
    36   17   97 1    
    37   18   19 1    
    38   18   22 1    
    39   18   98 1    
    40   19   20 am   BACKBONE|DICT|INTERRES
    41   19   21 2    
    42   20   99 1    
    43   20  100 1    
    44   22   23 am   BACKBONE|DICT|INTERRES
    45   22  101 1    
    46   23   24 2    
    47   23   25 1    
    48   25   26 1    
    49   25   27 1    
    50   25  102 1    
    51   26  103 1    
    52   26  104 1    
    53   26  105 1    
    54   27   28 am   BACKBONE|DICT|INTERRES
    55   27  106 1    
    56   28   29 2    
    57   28   30 1    
    58   30   31 1    
    59   30   32 1    
    60   30  107 1    
    61   31  108 1    
    62   31  109 1    
    63   31  110 1    
    64   32   33 am   BACKBONE|DICT|INTERRES
    65   32  111 1    
    66   33   34 2    
    67   33   35 1    
    68   35   36 1    
    69   35   37 1    
    70   35  112 1    
    71   36  113 1    
    72   36  114 1    
    73   36  115 1    
    74   37   38 am   BACKBONE|DICT|INTERRES
    75   37  116 1    
    76   38   39 2    
    77   38   40 1    
    78   40   41 1    
    79   40   42 1    
    80   40  117 1    
    81   41  118 1    
    82   41  119 1    
    83   41  120 1    
    84   42   43 am   BACKBONE|DICT|INTERRES
    85   42  121 1    
    86   43   44 2    
    87   43   45 1    
    88   45   46 1    
    89   45   47 1    
    90   45  122 1    
    91   46  123 1    
    92   46  124 1    
    93   46  125 1    
    94   47   48 am   BACKBONE|DICT|INTERRES
    95   47  126 1    
    96   48   49 2    
    97   48   50 1    
    98   50   51 1    
    99   50   52 1    
   100   50  127 1    
   101   51  128 1    
   102   51  129 1    
   103   51  130 1    
   104   52   53 am   BACKBONE|DICT|INTERRES
   105   52  131 1    
   106   53   54 2    
   107   53   55 1    
   108   55   56 1    
   109   55   59 1    
   110   55  132 1    
   111   56   57 1    
   112   56  133 1    
   113   56  134 1    
   114   57   58 1    
   115   58  135 1    
   116   58  136 1    
   117   59   60 am   BACKBONE|DICT|INTERRES
   118   59  137 1    
   119   60   61 2    
   120   60   62 1    
   121   62   63 1    
   122   62   64 1    
   123   62  138 1    
   124   63  139 1    
   125   63  140 1    
   126   63  141 1    
   127   64   65 am   BACKBONE|DICT|INTERRES
   128   64  142 1    
   129   65   66 2    
   130   65   67 1    
   131   67   68 1    
   132   67   69 1    
   133   67  143 1    
   134   68  144 1    
   135   68  145 1    
   136   68  146 1    
   137   69   70 am   BACKBONE|DICT|INTERRES
   138   69  147 1    
   139   70   71 2    
   140   70   72 1    
   141   72   73 1    
   142   72   74 1    
   143   72  148 1    
   144   73  149 1    
   145   73  150 1    
   146   73  151 1    
   147   74   75 am   BACKBONE|DICT|INTERRES
   148   74  152 1    
   149   75   76 2    
   150   75   77 1    
   151   77   78 1    
   152   77   79 1    
   153   77  153 1    
   154   78  154 1    
   155   78  155 1    
   156   78  156 1    
   157   79   80 am   BACKBONE|DICT|INTERRES
   158   79  157 1    
   159   80   81 2    
@<TRIPOS>SUBSTRUCTURE
     1 UNK         1 GROUP             0       ****    0 ROOT    
