@<TRIPOS>MOLECULE
3R207
157   159    1
SMALL
USER_CHARGES


@<TRIPOS>ATOM
      1 CA        -49.8162  -29.8733    3.0546 C.3       0 UNK        -0.1975 
      2 C         -50.2961  -28.4878    3.4590 C.2       0 UNK         0.4852 
      3 O         -50.5897  -27.6613    2.5947 O.2       0 UNK        -0.5216 
      4 N         -50.3521  -28.2109    4.7681 N.am      1 UNK        -0.4461 
      5 CA        -50.8362  -26.9603    5.3727 C.3       1 UNK         0.0864 
      6 C6        -51.3587  -27.1962    6.8168 C.3       14 UNK        -0.0898 
      7 S7        -52.8525  -28.2450    6.8747 S.3       14 UNK        -0.2598 
      8 C8        -52.1880  -29.9303    7.0776 C.3       14 UNK         0.0286 
      9 C9        -51.5233  -30.1464    8.4293 C.ar      14 UNK        -0.0844 
     10 C10       -50.1319  -30.0983    8.5518 C.ar      14 UNK        -0.0881 
     11 C11       -49.5154  -30.3490    9.7807 C.ar      14 UNK        -0.0643 
     12 C12       -50.3054  -30.6315   10.9010 C.ar      14 UNK        -0.0930 
     13 C13       -51.7002  -30.6978   10.7878 C.ar      14 UNK        -0.0827 
     14 C14       -52.2997  -30.4546    9.5486 C.ar      14 UNK        -0.1249 
     15 C15       -52.5564  -31.1007   11.9826 C.3       14 UNK         0.0141 
     16 S16       -53.3981  -29.6853   12.7561 S.3       14 UNK        -0.2313 
     17 C17       -54.8166  -29.4058   11.6428 C.3       14 UNK        -0.0915 
     18 CA        -56.0174  -28.6879   12.3276 C.3       13 UNK         0.0968 
     19 C         -56.7640  -29.4933   13.4286 C.2       13 UNK         0.5732 
     20 N         -56.7236  -30.8192   13.3957 N.am      13 UNK        -0.7310 
     21 O         -57.4458  -28.9277   14.2813 O.2       13 UNK        -0.5035 
     22 N         -55.6565  -27.3422   12.7889 N.am      13 UNK        -0.4233 
     23 C         -55.6748  -26.2433   12.0259 C.2       13 UNK         0.4989 
     24 O         -56.0509  -26.2414   10.8524 O.2       13 UNK        -0.4996 
     25 CA        -55.1499  -24.9285   12.6345 C.3       12 UNK         0.0216 
     26 CB        -55.9678  -23.6938   12.1964 C.3       12 UNK        -0.1964 
     27 N         -54.9520  -24.9731   14.0883 N.am      12 UNK        -0.4276 
     28 C         -55.8853  -24.9728   15.0495 C.2       12 UNK         0.5020 
     29 O         -57.0965  -24.9169   14.8293 O.2       12 UNK        -0.5489 
     30 CA        -55.3758  -25.0284   16.5058 C.3       11 UNK         0.0294 
     31 CB        -56.4628  -25.5041   17.4939 C.3       11 UNK        -0.2019 
     32 N         -54.1420  -25.8049   16.6977 N.am      11 UNK        -0.4493 
     33 C         -53.9466  -27.1037   16.4189 C.2       11 UNK         0.4932 
     34 O         -54.7714  -27.8092   15.8381 O.2       11 UNK        -0.5029 
     35 CA        -52.6064  -27.7032   16.8812 C.3       10 UNK         0.0280 
     36 CB        -52.2530  -29.0253   16.1789 C.3       10 UNK        -0.1976 
     37 N         -51.5155  -26.7538   16.6699 N.am      10 UNK        -0.4242 
     38 C         -50.6511  -26.3336   17.6027 C.2       10 UNK         0.5072 
     39 O         -50.6954  -26.6897   18.7813 O.2       10 UNK        -0.5224 
     40 CA        -49.5384  -25.3569   17.1692 C.3       9 UNK         0.0343 
     41 CB        -48.1808  -26.0785   17.1433 C.3       9 UNK        -0.2003 
     42 N         -49.7609  -24.7205   15.8678 N.am      9 UNK        -0.4272 
     43 C         -50.7315  -23.8358   15.5992 C.2       9 UNK         0.4988 
     44 O         -51.5285  -23.4158   16.4390 O.2       9 UNK        -0.5108 
     45 CA        -50.8788  -23.3952   14.1320 C.3       8 UNK         0.0248 
     46 CB        -49.8993  -22.2568   13.8074 C.3       8 UNK        -0.2001 
     47 N         -50.7011  -24.4887   13.1687 N.am      8 UNK        -0.4140 
     48 C         -51.4207  -25.6201   13.1483 C.2       8 UNK         0.5028 
     49 O         -52.3076  -25.8709   13.9615 O.2       8 UNK        -0.5428 
     50 CA        -51.0654  -26.6645   12.0834 C.3       7 UNK         0.0264 
     51 CB        -51.5673  -26.2631   10.6873 C.3       7 UNK        -0.1988 
     52 N         -49.6280  -26.9086   12.0532 N.am      7 UNK        -0.4454 
     53 C         -48.9725  -27.6243   12.9779 C.2       7 UNK         0.5027 
     54 O         -49.5200  -28.2089   13.9130 O.2       7 UNK        -0.5083 
     55 CA        -47.4368  -27.6741   12.8595 C.3       6 UNK         0.0844 
     56 C56       -46.9619  -28.8961   12.0387 C.3       14 UNK        -0.0967 
     57 S57       -47.2758  -28.7578   10.2417 S.3       14 UNK        -0.2604 
     58 C58       -47.9952  -30.3856    9.8619 C.3       14 UNK         0.0134 
     59 N         -46.8619  -26.4172   12.3718 N.am      6 UNK        -0.4116 
     60 C         -46.9039  -25.2536   13.0332 C.2       5 UNK         0.5034 
     61 O         -47.4317  -25.1045   14.1349 O.2       5 UNK        -0.5045 
     62 CA        -46.2845  -24.0402   12.3259 C.3       5 UNK         0.0224 
     63 CB        -44.7553  -24.0438   12.4779 C.3       5 UNK        -0.1978 
     64 N         -46.6352  -23.9325   10.9065 N.am      5 UNK        -0.4737 
     65 C         -47.8743  -23.8259   10.4136 C.2       4 UNK         0.5027 
     66 O         -48.8912  -23.9472   11.0946 O.2       4 UNK        -0.5211 
     67 CA        -48.0132  -23.5064    8.9176 C.3       4 UNK         0.0297 
     68 CB        -47.5827  -22.0578    8.6178 C.3       4 UNK        -0.1993 
     69 N         -47.3608  -24.4533    8.0068 N.am      4 UNK        -0.4486 
     70 C         -46.0576  -24.7417    7.8590 C.2       3 UNK         0.4961 
     71 O         -45.1614  -24.2778    8.5652 O.2       3 UNK        -0.5105 
     72 CA        -45.6800  -25.7005    6.7108 C.3       3 UNK         0.0299 
     73 CB        -45.5574  -27.1399    7.2348 C.3       3 UNK        -0.1972 
     74 N         -46.6296  -25.6767    5.5936 N.am      3 UNK        -0.4305 
     75 C         -46.8720  -24.6162    4.8085 C.2       2 UNK         0.5006 
     76 O         -46.2099  -23.5782    4.8425 O.2       2 UNK        -0.5106 
     77 CA        -48.0660  -24.7051    3.8357 C.3       2 UNK         0.0296 
     78 CB        -47.5679  -24.9535    2.4023 C.3       2 UNK        -0.2002 
     79 N         -49.0892  -25.7092    4.1611 N.am      2 UNK        -0.4032 
     80 C         -49.7717  -25.8371    5.3093 C.2       1 UNK         0.5000 
     81 O         -49.5625  -25.1304    6.2969 O.2       1 UNK        -0.5238 
     82 H82       -48.9201  -29.7955    2.4395 H         1 UNK         0.0889 
     83 H83       -50.5857  -30.3802    2.4730 H         1 UNK         0.0889 
     84 H84       -49.5819  -30.4936    3.9195 H         1 UNK         0.0889 
     85 H85       -50.0503  -28.9141    5.4247 H         1 UNK         0.3028 
     86 H86       -51.6779  -26.5991    4.7775 H         1 UNK         0.0864 
     87 H87       -51.6466  -26.2489    7.2768 H         1 UNK         0.0720 
     88 H88       -50.5771  -27.6063    7.4564 H         1 UNK         0.0720 
     89 H89       -51.4990  -30.1641    6.2668 H         1 UNK         0.0814 
     90 H90       -53.0127  -30.6365    6.9699 H         1 UNK         0.0814 
     91 H91       -49.5211  -29.8897    7.6848 H         1 UNK         0.1469 
     92 H92       -49.8325  -30.8335   11.8523 H         1 UNK         0.1381 
     93 H93       -53.3737  -30.5213    9.4478 H         1 UNK         0.1206 
     94 H94       -53.2898  -31.8498   11.6813 H         1 UNK         0.0813 
     95 H95       -51.9347  -31.5801   12.7401 H         1 UNK         0.0813 
     96 H96       -54.4648  -28.8035   10.8038 H         1 UNK         0.0638 
     97 H97       -55.1361  -30.3539   11.2090 H         1 UNK         0.0638 
     98 H98       -56.7841  -28.5717   11.5598 H         1 UNK         0.0568 
     99 H99       -56.1742  -31.3039   12.7050 H         1 UNK         0.3450 
    100 H100      -57.2278  -31.3406   14.0952 H         1 UNK         0.3450 
    101 H101      -55.3756  -27.2831   13.7617 H         1 UNK         0.2987 
    102 H102      -54.1519  -24.8007   12.2159 H         1 UNK         0.0766 
    103 H103      -57.0178  -23.7794   12.4766 H         1 UNK         0.0798 
    104 H104      -55.5738  -22.7785   12.6381 H         1 UNK         0.0798 
    105 H105      -55.9347  -23.5686   11.1135 H         1 UNK         0.0798 
    106 H106      -53.9844  -25.1360   14.3648 H         1 UNK         0.3198 
    107 H107      -55.1245  -23.9993   16.7673 H         1 UNK         0.0843 
    108 H108      -56.8078  -26.5114   17.2569 H         1 UNK         0.0831 
    109 H109      -57.3336  -24.8479   17.4667 H         1 UNK         0.0831 
    110 H110      -56.0951  -25.5071   18.5199 H         1 UNK         0.0831 
    111 H111      -53.3739  -25.3020   17.1228 H         1 UNK         0.3133 
    112 H112      -52.7294  -27.9138   17.9451 H         1 UNK         0.0566 
    113 H113      -51.3695  -29.4826   16.6240 H         1 UNK         0.0814 
    114 H114      -53.0645  -29.7507   16.2484 H         1 UNK         0.0814 
    115 H115      -52.0400  -28.8616   15.1230 H         1 UNK         0.0814 
    116 H116      -51.4478  -26.3845   15.7259 H         1 UNK         0.3091 
    117 H117      -49.4916  -24.5678   17.9223 H         1 UNK         0.0702 
    118 H118      -47.3669  -25.3843   16.9331 H         1 UNK         0.0785 
    119 H119      -48.1582  -26.8611   16.3834 H         1 UNK         0.0785 
    120 H120      -47.9648  -26.5477   18.1041 H         1 UNK         0.0785 
    121 H121      -49.1124  -24.9722   15.1264 H         1 UNK         0.2998 
    122 H122      -51.8951  -23.0169   14.0044 H         1 UNK         0.0697 
    123 H123      -48.8623  -22.5827   13.8914 H         1 UNK         0.0825 
    124 H124      -50.0352  -21.4166   14.4897 H         1 UNK         0.0825 
    125 H125      -50.0496  -21.8807   12.7951 H         1 UNK         0.0825 
    126 H126      -49.9939  -24.3482   12.4471 H         1 UNK         0.3029 
    127 H127      -51.5603  -27.5962   12.3572 H         1 UNK         0.0897 
    128 H128      -51.3579  -27.0467    9.9582 H         1 UNK         0.0792 
    129 H129      -51.1067  -25.3407   10.3326 H         1 UNK         0.0792 
    130 H130      -52.6472  -26.1124   10.6910 H         1 UNK         0.0792 
    131 H131      -49.0956  -26.4365   11.3367 H         1 UNK         0.3086 
    132 H132      -47.0609  -27.8109   13.8761 H         1 UNK         0.0583 
    133 H133      -45.8871  -29.0254   12.1752 H         1 UNK         0.1020 
    134 H134      -47.4121  -29.8076   12.4362 H         1 UNK         0.1020 
    135 H135      -47.5896  -30.7180    8.9051 H         1 UNK         0.0694 
    136 H136      -47.6698  -31.1319   10.5878 H         1 UNK         0.0694 
    137 H137      -46.4326  -26.4432   11.4584 H         1 UNK         0.2989 
    138 H138      -46.6718  -23.1482   12.8224 H         1 UNK         0.1055 
    139 H139      -44.4662  -24.1148   13.5276 H         1 UNK         0.0806 
    140 H140      -44.3166  -23.1265   12.0846 H         1 UNK         0.0806 
    141 H141      -44.2976  -24.8841   11.9544 H         1 UNK         0.0806 
    142 H142      -45.8719  -23.8861   10.2341 H         1 UNK         0.3061 
    143 H143      -49.0777  -23.5781    8.6874 H         1 UNK         0.0734 
    144 H144      -46.5191  -21.8995    8.7981 H         1 UNK         0.0832 
    145 H145      -47.7879  -21.7932    7.5804 H         1 UNK         0.0832 
    146 H146      -48.1271  -21.3518    9.2465 H         1 UNK         0.0832 
    147 H147      -48.0110  -24.8912    7.3572 H         1 UNK         0.3156 
    148 H148      -44.7053  -25.3886    6.3300 H         1 UNK         0.0589 
    149 H149      -46.5178  -27.5269    7.5767 H         1 UNK         0.0808 
    150 H150      -45.1791  -27.8125    6.4649 H         1 UNK         0.0808 
    151 H151      -44.8664  -27.1934    8.0775 H         1 UNK         0.0808 
    152 H152      -47.2121  -26.4921    5.4760 H         1 UNK         0.3098 
    153 H153      -48.5611  -23.7324    3.8603 H         1 UNK         0.0720 
    154 H154      -48.3851  -24.9002    1.6824 H         1 UNK         0.0791 
    155 H155      -47.0969  -25.9324    2.3041 H         1 UNK         0.0791 
    156 H156      -46.8307  -24.2052    2.1071 H         1 UNK         0.0791 
    157 H157      -49.3681  -26.3300    3.4072 H         1 UNK         0.3028 
@<TRIPOS>BOND
     1    1    2 1    
     2    1   82 1    
     3    1   83 1    
     4    1   84 1    
     5    2    3 2    
     6    2    4 am   BACKBONE|DICT|INTERRES
     7    4    5 1    
     8    4   85 1    
     9    5    6 1    
    10    5   80 1    
    11    5   86 1    
    12    6    7 1    
    13    6   87 1    
    14    6   88 1    
    15    7    8 1    
    16    8    9 1    
    17    8   89 1    
    18    8   90 1    
    19    9   10 ar   
    20    9   14 ar   
    21   10   11 ar   
    22   10   91 1    
    23   11   12 ar   
    24   11   58 1    
    25   12   13 ar   
    26   12   92 1    
    27   13   14 ar   
    28   13   15 1    
    29   14   93 1    
    30   15   16 1    
    31   15   94 1    
    32   15   95 1    
    33   16   17 1    
    34   17   18 1    
    35   17   96 1    
    36   17   97 1    
    37   18   19 1    
    38   18   22 1    
    39   18   98 1    
    40   19   20 am   BACKBONE|DICT|INTERRES
    41   19   21 2    
    42   20   99 1    
    43   20  100 1    
    44   22   23 am   BACKBONE|DICT|INTERRES
    45   22  101 1    
    46   23   24 2    
    47   23   25 1    
    48   25   26 1    
    49   25   27 1    
    50   25  102 1    
    51   26  103 1    
    52   26  104 1    
    53   26  105 1    
    54   27   28 am   BACKBONE|DICT|INTERRES
    55   27  106 1    
    56   28   29 2    
    57   28   30 1    
    58   30   31 1    
    59   30   32 1    
    60   30  107 1    
    61   31  108 1    
    62   31  109 1    
    63   31  110 1    
    64   32   33 am   BACKBONE|DICT|INTERRES
    65   32  111 1    
    66   33   34 2    
    67   33   35 1    
    68   35   36 1    
    69   35   37 1    
    70   35  112 1    
    71   36  113 1    
    72   36  114 1    
    73   36  115 1    
    74   37   38 am   BACKBONE|DICT|INTERRES
    75   37  116 1    
    76   38   39 2    
    77   38   40 1    
    78   40   41 1    
    79   40   42 1    
    80   40  117 1    
    81   41  118 1    
    82   41  119 1    
    83   41  120 1    
    84   42   43 am   BACKBONE|DICT|INTERRES
    85   42  121 1    
    86   43   44 2    
    87   43   45 1    
    88   45   46 1    
    89   45   47 1    
    90   45  122 1    
    91   46  123 1    
    92   46  124 1    
    93   46  125 1    
    94   47   48 am   BACKBONE|DICT|INTERRES
    95   47  126 1    
    96   48   49 2    
    97   48   50 1    
    98   50   51 1    
    99   50   52 1    
   100   50  127 1    
   101   51  128 1    
   102   51  129 1    
   103   51  130 1    
   104   52   53 am   BACKBONE|DICT|INTERRES
   105   52  131 1    
   106   53   54 2    
   107   53   55 1    
   108   55   56 1    
   109   55   59 1    
   110   55  132 1    
   111   56   57 1    
   112   56  133 1    
   113   56  134 1    
   114   57   58 1    
   115   58  135 1    
   116   58  136 1    
   117   59   60 am   BACKBONE|DICT|INTERRES
   118   59  137 1    
   119   60   61 2    
   120   60   62 1    
   121   62   63 1    
   122   62   64 1    
   123   62  138 1    
   124   63  139 1    
   125   63  140 1    
   126   63  141 1    
   127   64   65 am   BACKBONE|DICT|INTERRES
   128   64  142 1    
   129   65   66 2    
   130   65   67 1    
   131   67   68 1    
   132   67   69 1    
   133   67  143 1    
   134   68  144 1    
   135   68  145 1    
   136   68  146 1    
   137   69   70 am   BACKBONE|DICT|INTERRES
   138   69  147 1    
   139   70   71 2    
   140   70   72 1    
   141   72   73 1    
   142   72   74 1    
   143   72  148 1    
   144   73  149 1    
   145   73  150 1    
   146   73  151 1    
   147   74   75 am   BACKBONE|DICT|INTERRES
   148   74  152 1    
   149   75   76 2    
   150   75   77 1    
   151   77   78 1    
   152   77   79 1    
   153   77  153 1    
   154   78  154 1    
   155   78  155 1    
   156   78  156 1    
   157   79   80 am   BACKBONE|DICT|INTERRES
   158   79  157 1    
   159   80   81 2    
@<TRIPOS>SUBSTRUCTURE
     1 UNK         1 GROUP             0       ****    0 ROOT    
