@<TRIPOS>MOLECULE
3R207
157   159    1
SMALL
USER_CHARGES


@<TRIPOS>ATOM
      1 CA        -49.4194  -31.0471    0.8710 C.3       0 UNK        -0.1975 
      2 C         -50.2534  -30.5557    2.0449 C.2       0 UNK         0.4852 
      3 O         -51.3931  -30.1319    1.8499 O.2       0 UNK        -0.5216 
      4 N         -49.6944  -30.6104    3.2615 N.am      1 UNK        -0.4461 
      5 CA        -50.3460  -30.1849    4.5060 C.3       1 UNK         0.0864 
      6 C6        -49.5480  -30.6415    5.7541 C.3       14 UNK        -0.0898 
      7 S7        -49.6170  -32.4397    6.0635 S.3       14 UNK        -0.2598 
      8 C8        -51.2615  -32.6943    6.8276 C.3       14 UNK         0.0286 
      9 C9        -51.6206  -31.6394    7.8675 C.ar      14 UNK        -0.0844 
     10 C10       -51.1139  -31.7056    9.1702 C.ar      14 UNK        -0.0881 
     11 C11       -51.4175  -30.7043   10.1019 C.ar      14 UNK        -0.0643 
     12 C12       -52.2292  -29.6329    9.7161 C.ar      14 UNK        -0.0930 
     13 C13       -52.7247  -29.5482    8.4118 C.ar      14 UNK        -0.0827 
     14 C14       -52.4397  -30.5679    7.5034 C.ar      14 UNK        -0.1249 
     15 C15       -53.4702  -28.3094    7.9410 C.3       14 UNK         0.0141 
     16 S16       -54.8733  -27.8563    9.0071 S.3       14 UNK        -0.2313 
     17 C17       -54.8520  -26.0557    8.7368 C.3       14 UNK        -0.0915 
     18 CA        -53.9055  -25.3385    9.7374 C.3       13 UNK         0.0968 
     19 C         -53.5308  -23.9255    9.2368 C.2       13 UNK         0.5732 
     20 N         -52.2684  -23.6923    8.9057 N.am      13 UNK        -0.7310 
     21 O         -54.3833  -23.0455    9.1337 O.2       13 UNK        -0.5035 
     22 N         -54.5126  -25.2256   11.0675 N.am      13 UNK        -0.4233 
     23 C         -54.2016  -25.9817   12.1240 C.2       13 UNK         0.4989 
     24 O         -53.3732  -26.8914   12.0930 O.2       13 UNK        -0.4996 
     25 CA        -54.9225  -25.6233   13.4368 C.3       12 UNK         0.0216 
     26 CB        -56.4471  -25.8490   13.3415 C.3       12 UNK        -0.1964 
     27 N         -54.3399  -26.2976   14.6061 N.am      12 UNK        -0.4276 
     28 C         -54.4220  -27.5866   14.9766 C.2       12 UNK         0.5020 
     29 O         -55.1222  -28.4310   14.4158 O.2       12 UNK        -0.5489 
     30 CA        -53.5807  -28.0147   16.1974 C.3       11 UNK         0.0294 
     31 CB        -52.5515  -29.0901   15.8054 C.3       11 UNK        -0.2019 
     32 N         -52.8730  -26.8836   16.8061 N.am      11 UNK        -0.4493 
     33 C         -53.3322  -26.1436   17.8244 C.2       11 UNK         0.4932 
     34 O         -54.3761  -26.3952   18.4280 O.2       11 UNK        -0.5029 
     35 CA        -52.5215  -24.8852   18.1972 C.3       10 UNK         0.0280 
     36 CB        -52.7140  -24.4558   19.6678 C.3       10 UNK        -0.1976 
     37 N         -51.0991  -24.9658   17.8415 N.am      10 UNK        -0.4242 
     38 C         -50.1679  -25.7770   18.3695 C.2       10 UNK         0.5072 
     39 O         -50.3988  -26.5779   19.2766 O.2       10 UNK        -0.5224 
     40 CA        -48.7366  -25.7125   17.7942 C.3       9 UNK         0.0343 
     41 CB        -48.3244  -27.0806   17.2234 C.3       9 UNK        -0.2003 
     42 N         -48.5510  -24.6945   16.7560 N.am      9 UNK        -0.4272 
     43 C         -48.4310  -23.3769   16.9700 C.2       9 UNK         0.4988 
     44 O         -48.3897  -22.8663   18.0895 O.2       9 UNK        -0.5108 
     45 CA        -48.4005  -22.4703   15.7238 C.3       8 UNK         0.0248 
     46 CB        -46.9656  -22.3184   15.1952 C.3       8 UNK        -0.2001 
     47 N         -49.2794  -22.9348   14.6431 N.am      8 UNK        -0.4140 
     48 C         -50.6094  -23.0741   14.7490 C.2       8 UNK         0.5028 
     49 O         -51.2500  -22.7910   15.7611 O.2       8 UNK        -0.5428 
     50 CA        -51.3445  -23.7056   13.5567 C.3       7 UNK         0.0264 
     51 CB        -51.5850  -22.6803   12.4399 C.3       7 UNK        -0.1988 
     52 N         -50.6496  -24.8867   13.0361 N.am      7 UNK        -0.4454 
     53 C         -50.4956  -26.0228   13.7354 C.2       7 UNK         0.5027 
     54 O         -50.9796  -26.1949   14.8546 O.2       7 UNK        -0.5083 
     55 CA        -49.6053  -27.1260   13.1272 C.3       6 UNK         0.0844 
     56 C56       -50.4133  -28.0587   12.1964 C.3       14 UNK        -0.0967 
     57 S57       -49.5035  -29.5890   11.7914 S.3       14 UNK        -0.2604 
     58 C58       -50.8645  -30.7744   11.5203 C.3       14 UNK         0.0134 
     59 N         -48.4283  -26.5565   12.4665 N.am      6 UNK        -0.4116 
     60 C         -47.4325  -25.9291   13.1084 C.2       5 UNK         0.5034 
     61 O         -47.3743  -25.8088   14.3306 O.2       5 UNK        -0.5045 
     62 CA        -46.3431  -25.2802   12.2390 C.3       5 UNK         0.0224 
     63 CB        -45.2584  -26.3072   11.8780 C.3       5 UNK        -0.1978 
     64 N         -46.8730  -24.6749   11.0141 N.am      5 UNK        -0.4737 
     65 C         -47.7518  -23.6612   10.9743 C.2       4 UNK         0.5027 
     66 O         -48.1728  -23.0905   11.9793 O.2       4 UNK        -0.5211 
     67 CA        -48.2826  -23.2502    9.5873 C.3       4 UNK         0.0297 
     68 CB        -47.4741  -22.0693    9.0296 C.3       4 UNK        -0.1993 
     69 N         -48.2504  -24.3641    8.6331 N.am      4 UNK        -0.4486 
     70 C         -49.0509  -25.4339    8.7070 C.2       3 UNK         0.4961 
     71 O         -50.0336  -25.5070    9.4496 O.2       3 UNK        -0.5105 
     72 CA        -48.6401  -26.6364    7.8507 C.3       3 UNK         0.0299 
     73 CB        -48.9099  -27.9641    8.5753 C.3       3 UNK        -0.1972 
     74 N         -49.3313  -26.6422    6.5676 N.am      3 UNK        -0.4305 
     75 C         -48.8922  -26.0457    5.4529 C.2       2 UNK         0.5006 
     76 O         -47.9076  -25.3044    5.4236 O.2       2 UNK        -0.5106 
     77 CA        -49.6416  -26.3998    4.1485 C.3       2 UNK         0.0296 
     78 CB        -48.9986  -25.7663    2.9003 C.3       2 UNK        -0.2002 
     79 N         -49.7070  -27.8561    3.9649 N.am      2 UNK        -0.4032 
     80 C         -50.5793  -28.6613    4.5889 C.2       1 UNK         0.5000 
     81 O         -51.5017  -28.2319    5.2833 O.2       1 UNK        -0.5238 
     82 H82       -48.4363  -31.3961    1.1862 H         1 UNK         0.0889 
     83 H83       -49.2786  -30.2437    0.1485 H         1 UNK         0.0889 
     84 H84       -49.9266  -31.8711    0.3700 H         1 UNK         0.0889 
     85 H85       -48.7662  -30.9967    3.3637 H         1 UNK         0.3028 
     86 H86       -51.3340  -30.6486    4.5366 H         1 UNK         0.0864 
     87 H87       -48.4981  -30.3618    5.6494 H         1 UNK         0.0720 
     88 H88       -49.8808  -30.1269    6.6552 H         1 UNK         0.0720 
     89 H89       -51.2867  -33.6833    7.2872 H         1 UNK         0.0814 
     90 H90       -52.0140  -32.7139    6.0378 H         1 UNK         0.0814 
     91 H91       -50.4717  -32.5288    9.4519 H         1 UNK         0.1469 
     92 H92       -52.4545  -28.8455   10.4216 H         1 UNK         0.1381 
     93 H93       -52.8103  -30.4973    6.4901 H         1 UNK         0.1206 
     94 H94       -53.8363  -28.4340    6.9207 H         1 UNK         0.0813 
     95 H95       -52.7478  -27.4927    7.9061 H         1 UNK         0.0813 
     96 H96       -55.8709  -25.6747    8.8260 H         1 UNK         0.0638 
     97 H97       -54.5534  -25.8679    7.7033 H         1 UNK         0.0638 
     98 H98       -52.9762  -25.9089    9.8076 H         1 UNK         0.0568 
     99 H99       -52.0159  -22.7793    8.5645 H         1 UNK         0.3450 
    100 H100      -51.5526  -24.4014    9.0331 H         1 UNK         0.3450 
    101 H101      -55.1696  -24.4650   11.1700 H         1 UNK         0.2987 
    102 H102      -54.7571  -24.5580   13.6046 H         1 UNK         0.0766 
    103 H103      -56.9379  -25.6577   14.2958 H         1 UNK         0.0798 
    104 H104      -56.6898  -26.8678   13.0375 H         1 UNK         0.0798 
    105 H105      -56.9003  -25.1813   12.6083 H         1 UNK         0.0798 
    106 H106      -53.6939  -25.7368   15.1414 H         1 UNK         0.3198 
    107 H107      -54.2669  -28.4545   16.9243 H         1 UNK         0.0843 
    108 H108      -51.8527  -28.7277   15.0520 H         1 UNK         0.0831 
    109 H109      -53.0445  -29.9713   15.3929 H         1 UNK         0.0831 
    110 H110      -51.9725  -29.4176   16.6690 H         1 UNK         0.0831 
    111 H111      -52.0209  -26.5923   16.3284 H         1 UNK         0.3133 
    112 H112      -52.9280  -24.0853   17.5771 H         1 UNK         0.0566 
    113 H113      -52.1356  -23.5613   19.8988 H         1 UNK         0.0814 
    114 H114      -53.7598  -24.2249   19.8740 H         1 UNK         0.0814 
    115 H115      -52.4142  -25.2398   20.3635 H         1 UNK         0.0814 
    116 H116      -50.8173  -24.3425   17.0921 H         1 UNK         0.3091 
    117 H117      -48.0686  -25.4781   18.6253 H         1 UNK         0.0702 
    118 H118      -47.2989  -27.0644   16.8539 H         1 UNK         0.0785 
    119 H119      -48.9726  -27.3837   16.4009 H         1 UNK         0.0785 
    120 H120      -48.3798  -27.8589   17.9856 H         1 UNK         0.0785 
    121 H121      -48.4867  -25.0347   15.8016 H         1 UNK         0.2998 
    122 H122      -48.7559  -21.4836   16.0276 H         1 UNK         0.0697 
    123 H123      -46.5445  -23.2758   14.8890 H         1 UNK         0.0825 
    124 H124      -46.3097  -21.9055   15.9628 H         1 UNK         0.0825 
    125 H125      -46.9264  -21.6459   14.3379 H         1 UNK         0.0825 
    126 H126      -48.8409  -23.1432   13.7482 H         1 UNK         0.3029 
    127 H127      -52.3205  -24.0311   13.9197 H         1 UNK         0.0897 
    128 H128      -52.2041  -23.1017   11.6515 H         1 UNK         0.0792 
    129 H129      -52.1078  -21.8030   12.8233 H         1 UNK         0.0792 
    130 H130      -50.6565  -22.3322   11.9890 H         1 UNK         0.0792 
    131 H131      -50.2120  -24.8042   12.1291 H         1 UNK         0.3086 
    132 H132      -49.2475  -27.7286   13.9649 H         1 UNK         0.0583 
    133 H133      -51.3484  -28.3448   12.6802 H         1 UNK         0.1020 
    134 H134      -50.6896  -27.5431   11.2746 H         1 UNK         0.1020 
    135 H135      -50.4874  -31.7777   11.7237 H         1 UNK         0.0694 
    136 H136      -51.6655  -30.6052   12.2414 H         1 UNK         0.0694 
    137 H137      -48.4075  -26.6032   11.4596 H         1 UNK         0.2989 
    138 H138      -45.8818  -24.4861   12.8299 H         1 UNK         0.1055 
    139 H139      -44.8354  -26.7583   12.7770 H         1 UNK         0.0806 
    140 H140      -44.4355  -25.8417   11.3351 H         1 UNK         0.0806 
    141 H141      -45.6528  -27.1169   11.2625 H         1 UNK         0.0806 
    142 H142      -46.5612  -25.0694   10.1391 H         1 UNK         0.3061 
    143 H143      -49.3190  -22.9288    9.7113 H         1 UNK         0.0734 
    144 H144      -47.8761  -21.7290    8.0751 H         1 UNK         0.0832 
    145 H145      -47.5051  -21.2201    9.7138 H         1 UNK         0.0832 
    146 H146      -46.4253  -22.3289    8.8802 H         1 UNK         0.0832 
    147 H147      -47.5096  -24.3613    7.9443 H         1 UNK         0.3156 
    148 H148      -47.5626  -26.5833    7.6788 H         1 UNK         0.0589 
    149 H149      -49.9753  -28.1387    8.7281 H         1 UNK         0.0808 
    150 H150      -48.5061  -28.8089    8.0190 H         1 UNK         0.0808 
    151 H151      -48.4313  -27.9751    9.5542 H         1 UNK         0.0808 
    152 H152      -50.1786  -27.1961    6.5025 H         1 UNK         0.3098 
    153 H153      -50.6546  -26.0013    4.2380 H         1 UNK         0.0720 
    154 H154      -49.5645  -26.0044    1.9994 H         1 UNK         0.0791 
    155 H155      -47.9738  -26.1100    2.7538 H         1 UNK         0.0791 
    156 H156      -48.9698  -24.6791    2.9848 H         1 UNK         0.0791 
    157 H157      -48.9584  -28.2814    3.4374 H         1 UNK         0.3028 
@<TRIPOS>BOND
     1    1    2 1    
     2    1   82 1    
     3    1   83 1    
     4    1   84 1    
     5    2    3 2    
     6    2    4 am   BACKBONE|DICT|INTERRES
     7    4    5 1    
     8    4   85 1    
     9    5    6 1    
    10    5   80 1    
    11    5   86 1    
    12    6    7 1    
    13    6   87 1    
    14    6   88 1    
    15    7    8 1    
    16    8    9 1    
    17    8   89 1    
    18    8   90 1    
    19    9   10 ar   
    20    9   14 ar   
    21   10   11 ar   
    22   10   91 1    
    23   11   12 ar   
    24   11   58 1    
    25   12   13 ar   
    26   12   92 1    
    27   13   14 ar   
    28   13   15 1    
    29   14   93 1    
    30   15   16 1    
    31   15   94 1    
    32   15   95 1    
    33   16   17 1    
    34   17   18 1    
    35   17   96 1    
    36   17   97 1    
    37   18   19 1    
    38   18   22 1    
    39   18   98 1    
    40   19   20 am   BACKBONE|DICT|INTERRES
    41   19   21 2    
    42   20   99 1    
    43   20  100 1    
    44   22   23 am   BACKBONE|DICT|INTERRES
    45   22  101 1    
    46   23   24 2    
    47   23   25 1    
    48   25   26 1    
    49   25   27 1    
    50   25  102 1    
    51   26  103 1    
    52   26  104 1    
    53   26  105 1    
    54   27   28 am   BACKBONE|DICT|INTERRES
    55   27  106 1    
    56   28   29 2    
    57   28   30 1    
    58   30   31 1    
    59   30   32 1    
    60   30  107 1    
    61   31  108 1    
    62   31  109 1    
    63   31  110 1    
    64   32   33 am   BACKBONE|DICT|INTERRES
    65   32  111 1    
    66   33   34 2    
    67   33   35 1    
    68   35   36 1    
    69   35   37 1    
    70   35  112 1    
    71   36  113 1    
    72   36  114 1    
    73   36  115 1    
    74   37   38 am   BACKBONE|DICT|INTERRES
    75   37  116 1    
    76   38   39 2    
    77   38   40 1    
    78   40   41 1    
    79   40   42 1    
    80   40  117 1    
    81   41  118 1    
    82   41  119 1    
    83   41  120 1    
    84   42   43 am   BACKBONE|DICT|INTERRES
    85   42  121 1    
    86   43   44 2    
    87   43   45 1    
    88   45   46 1    
    89   45   47 1    
    90   45  122 1    
    91   46  123 1    
    92   46  124 1    
    93   46  125 1    
    94   47   48 am   BACKBONE|DICT|INTERRES
    95   47  126 1    
    96   48   49 2    
    97   48   50 1    
    98   50   51 1    
    99   50   52 1    
   100   50  127 1    
   101   51  128 1    
   102   51  129 1    
   103   51  130 1    
   104   52   53 am   BACKBONE|DICT|INTERRES
   105   52  131 1    
   106   53   54 2    
   107   53   55 1    
   108   55   56 1    
   109   55   59 1    
   110   55  132 1    
   111   56   57 1    
   112   56  133 1    
   113   56  134 1    
   114   57   58 1    
   115   58  135 1    
   116   58  136 1    
   117   59   60 am   BACKBONE|DICT|INTERRES
   118   59  137 1    
   119   60   61 2    
   120   60   62 1    
   121   62   63 1    
   122   62   64 1    
   123   62  138 1    
   124   63  139 1    
   125   63  140 1    
   126   63  141 1    
   127   64   65 am   BACKBONE|DICT|INTERRES
   128   64  142 1    
   129   65   66 2    
   130   65   67 1    
   131   67   68 1    
   132   67   69 1    
   133   67  143 1    
   134   68  144 1    
   135   68  145 1    
   136   68  146 1    
   137   69   70 am   BACKBONE|DICT|INTERRES
   138   69  147 1    
   139   70   71 2    
   140   70   72 1    
   141   72   73 1    
   142   72   74 1    
   143   72  148 1    
   144   73  149 1    
   145   73  150 1    
   146   73  151 1    
   147   74   75 am   BACKBONE|DICT|INTERRES
   148   74  152 1    
   149   75   76 2    
   150   75   77 1    
   151   77   78 1    
   152   77   79 1    
   153   77  153 1    
   154   78  154 1    
   155   78  155 1    
   156   78  156 1    
   157   79   80 am   BACKBONE|DICT|INTERRES
   158   79  157 1    
   159   80   81 2    
@<TRIPOS>SUBSTRUCTURE
     1 UNK         1 GROUP             0       ****    0 ROOT    
