@<TRIPOS>MOLECULE
3R207
157   159    1
SMALL
USER_CHARGES


@<TRIPOS>ATOM
      1 CA        -49.1790  -29.0064    2.2126 C.3       0 UNK        -0.1975 
      2 C         -48.3159  -29.1761    3.4543 C.2       0 UNK         0.4852 
      3 O         -47.2907  -29.8548    3.3898 O.2       0 UNK        -0.5216 
      4 N         -48.7335  -28.5630    4.5716 N.am      1 UNK        -0.4461 
      5 CA        -48.0782  -28.5611    5.8891 C.3       1 UNK         0.0864 
      6 C6        -48.1761  -29.9432    6.5964 C.3       14 UNK        -0.0898 
      7 S7        -49.8884  -30.3045    7.1094 S.3       14 UNK        -0.2598 
      8 C8        -49.7993  -29.7825    8.8509 C.3       14 UNK         0.0286 
      9 C9        -51.1291  -29.2707    9.3748 C.ar      14 UNK        -0.0844 
     10 C10       -51.6823  -28.1032    8.8436 C.ar      14 UNK        -0.0881 
     11 C11       -52.8482  -27.5587    9.3875 C.ar      14 UNK        -0.0643 
     12 C12       -53.4717  -28.2008   10.4615 C.ar      14 UNK        -0.0930 
     13 C13       -52.9371  -29.3814   10.9881 C.ar      14 UNK        -0.0827 
     14 C14       -51.7667  -29.9129   10.4388 C.ar      14 UNK        -0.1249 
     15 C15       -53.5799  -30.0562   12.1892 C.3       14 UNK         0.0141 
     16 S16       -54.7719  -31.3485   11.7168 S.3       14 UNK        -0.2313 
     17 C17       -56.2633  -30.3983   11.2489 C.3       14 UNK        -0.0915 
     18 CA        -57.2718  -30.1570   12.4064 C.3       13 UNK         0.0968 
     19 C         -57.8701  -31.4809   12.9675 C.2       13 UNK         0.5732 
     20 N         -58.8098  -32.0841   12.2516 N.am      13 UNK        -0.7310 
     21 O         -57.4756  -31.9795   14.0207 O.2       13 UNK        -0.5035 
     22 N         -56.6953  -29.2706   13.4257 N.am      13 UNK        -0.4233 
     23 C         -57.3468  -28.7342   14.4638 C.2       13 UNK         0.4989 
     24 O         -58.5473  -28.8947   14.6894 O.2       13 UNK        -0.4996 
     25 CA        -56.5155  -27.8388   15.4001 C.3       12 UNK         0.0216 
     26 CB        -55.8047  -28.6871   16.4669 C.3       12 UNK        -0.1964 
     27 N         -55.5298  -26.9924   14.7140 N.am      12 UNK        -0.4276 
     28 C         -55.8319  -26.0309   13.8244 C.2       12 UNK         0.5020 
     29 O         -56.9755  -25.8215   13.4154 O.2       12 UNK        -0.5489 
     30 CA        -54.6722  -25.1427   13.3186 C.3       11 UNK         0.0294 
     31 CB        -55.1548  -23.7837   12.7714 C.3       11 UNK        -0.2019 
     32 N         -53.6034  -24.9403   14.3027 N.am      11 UNK        -0.4493 
     33 C         -53.7150  -24.4854   15.5611 C.2       11 UNK         0.4932 
     34 O         -54.7659  -24.0632   16.0464 O.2       11 UNK        -0.5029 
     35 CA        -52.4429  -24.5356   16.4345 C.3       10 UNK         0.0280 
     36 CB        -52.7675  -24.7255   17.9311 C.3       10 UNK        -0.1976 
     37 N         -51.4528  -25.5320   16.0004 N.am      10 UNK        -0.4242 
     38 C         -51.6268  -26.8571   15.8566 C.2       10 UNK         0.5072 
     39 O         -52.6988  -27.4258   16.0754 O.2       10 UNK        -0.5224 
     40 CA        -50.4389  -27.6943   15.3356 C.3       9 UNK         0.0343 
     41 CB        -50.8519  -28.5050   14.0958 C.3       9 UNK        -0.2003 
     42 N         -49.2570  -26.8972   14.9982 N.am      9 UNK        -0.4272 
     43 C         -48.3400  -26.4610   15.8720 C.2       9 UNK         0.4988 
     44 O         -48.3438  -26.7467   17.0695 O.2       9 UNK        -0.5108 
     45 CA        -47.2630  -25.5034   15.3266 C.3       8 UNK         0.0248 
     46 CB        -46.0758  -26.2920   14.7524 C.3       8 UNK        -0.2001 
     47 N         -47.7768  -24.5673   14.3180 N.am      8 UNK        -0.4140 
     48 C         -48.7382  -23.6598   14.5508 C.2       8 UNK         0.5028 
     49 O         -49.2568  -23.4843   15.6533 O.2       8 UNK        -0.5428 
     50 CA        -49.2556  -22.8514   13.3506 C.3       7 UNK         0.0264 
     51 CB        -48.3055  -21.6900   13.0190 C.3       7 UNK        -0.1988 
     52 N         -49.4714  -23.6738   12.1589 N.am      7 UNK        -0.4454 
     53 C         -50.3436  -24.6897   12.0732 C.2       7 UNK         0.5027 
     54 O         -51.0940  -25.0266   12.9891 O.2       7 UNK        -0.5083 
     55 CA        -50.3338  -25.5078   10.7654 C.3       6 UNK         0.0844 
     56 C56       -51.1008  -24.7950    9.6222 C.3       14 UNK        -0.0967 
     57 S57       -52.9122  -24.8300    9.8556 S.3       14 UNK        -0.2604 
     58 C58       -53.4091  -26.2564    8.8382 C.3       14 UNK         0.0134 
     59 N         -48.9713  -25.8803   10.3703 N.am      6 UNK        -0.4116 
     60 C         -48.1411  -26.6286   11.1134 C.2       5 UNK         0.5034 
     61 O         -48.4615  -27.1680   12.1712 O.2       5 UNK        -0.5045 
     62 CA        -46.6872  -26.7436   10.6304 C.3       5 UNK         0.0224 
     63 CB        -46.5163  -27.9002    9.6366 C.3       5 UNK        -0.1978 
     64 N         -46.2145  -25.4965   10.0278 N.am      5 UNK        -0.4737 
     65 C         -45.9316  -24.3900   10.7289 C.2       4 UNK         0.5027 
     66 O         -45.9944  -24.3255   11.9566 O.2       4 UNK        -0.5211 
     67 CA        -45.5667  -23.1351    9.9178 C.3       4 UNK         0.0297 
     68 CB        -44.0842  -23.1627    9.5144 C.3       4 UNK        -0.1993 
     69 N         -46.4018  -22.9713    8.7234 N.am      4 UNK        -0.4486 
     70 C         -47.7241  -22.7550    8.7554 C.2       3 UNK         0.4961 
     71 O         -48.3690  -22.6304    9.7947 O.2       3 UNK        -0.5105 
     72 CA        -48.4697  -22.7079    7.4117 C.3       3 UNK         0.0299 
     73 CB        -48.5182  -21.2671    6.8800 C.3       3 UNK        -0.1972 
     74 N         -47.9323  -23.5941    6.3738 N.am      3 UNK        -0.4305 
     75 C         -47.7795  -24.9232    6.4678 C.2       2 UNK         0.5006 
     76 O         -48.0005  -25.5605    7.5004 O.2       2 UNK        -0.5106 
     77 CA        -47.3300  -25.6639    5.1905 C.3       2 UNK         0.0296 
     78 CB        -46.6865  -24.7407    4.1343 C.3       2 UNK        -0.2002 
     79 N         -46.3837  -26.7426    5.4927 N.am      2 UNK        -0.4032 
     80 C         -46.6240  -28.0194    5.8353 C.2       1 UNK         0.5000 
     81 O         -45.6900  -28.7774    6.1001 O.2       1 UNK        -0.5238 
     82 H82       -49.5206  -29.9786    1.8581 H         1 UNK         0.0889 
     83 H83       -48.6020  -28.5367    1.4164 H         1 UNK         0.0889 
     84 H84       -50.0564  -28.3890    2.4045 H         1 UNK         0.0889 
     85 H85       -49.5982  -28.0424    4.5330 H         1 UNK         0.3028 
     86 H86       -48.6330  -27.8532    6.5044 H         1 UNK         0.0864 
     87 H87       -47.8283  -30.7428    5.9407 H         1 UNK         0.0720 
     88 H88       -47.5346  -29.9883    7.4785 H         1 UNK         0.0720 
     89 H89       -49.0793  -28.9729    8.9578 H         1 UNK         0.0814 
     90 H90       -49.4256  -30.6107    9.4551 H         1 UNK         0.0814 
     91 H91       -51.1828  -27.6018    8.0262 H         1 UNK         0.1469 
     92 H92       -54.3609  -27.7666   10.8959 H         1 UNK         0.1381 
     93 H93       -51.3372  -30.8110   10.8614 H         1 UNK         0.1206 
     94 H94       -54.0427  -29.3147   12.8387 H         1 UNK         0.0813 
     95 H95       -52.8042  -30.5313   12.7908 H         1 UNK         0.0813 
     96 H96       -56.7549  -30.9414   10.4401 H         1 UNK         0.0638 
     97 H97       -55.9672  -29.4470   10.8088 H         1 UNK         0.0638 
     98 H98       -58.1119  -29.6016   11.9849 H         1 UNK         0.0568 
     99 H99       -59.2023  -32.9485   12.5904 H         1 UNK         0.3450 
    100 H100      -59.1354  -31.6940   11.3810 H         1 UNK         0.3450 
    101 H101      -55.7075  -29.0973   13.3493 H         1 UNK         0.2987 
    102 H102      -57.2125  -27.1709   15.9106 H         1 UNK         0.0766 
    103 H103      -55.3062  -28.0583   17.2052 H         1 UNK         0.0798 
    104 H104      -55.0527  -29.3436   16.0269 H         1 UNK         0.0798 
    105 H105      -56.5148  -29.3169   17.0046 H         1 UNK         0.0798 
    106 H106      -54.5686  -27.0699   15.0321 H         1 UNK         0.3198 
    107 H107      -54.2166  -25.6885   12.4915 H         1 UNK         0.0843 
    108 H108      -55.6662  -23.1995   13.5369 H         1 UNK         0.0831 
    109 H109      -55.8504  -23.9191   11.9424 H         1 UNK         0.0831 
    110 H110      -54.3205  -23.1912   12.3955 H         1 UNK         0.0831 
    111 H111      -52.6675  -25.1789   13.9762 H         1 UNK         0.3133 
    112 H112      -51.9620  -23.5635   16.3195 H         1 UNK         0.0566 
    113 H113      -51.8597  -24.7425   18.5342 H         1 UNK         0.0814 
    114 H114      -53.3875  -23.9105   18.3064 H         1 UNK         0.0814 
    115 H115      -53.3081  -25.6555   18.1111 H         1 UNK         0.0814 
    116 H116      -50.5483  -25.1440   15.7560 H         1 UNK         0.3091 
    117 H117      -50.1726  -28.3987   16.1260 H         1 UNK         0.0702 
    118 H118      -51.6705  -29.1830   14.3354 H         1 UNK         0.0785 
    119 H119      -50.0274  -29.1130   13.7230 H         1 UNK         0.0785 
    120 H120      -51.1840  -27.8592   13.2815 H         1 UNK         0.0785 
    121 H121      -49.1400  -26.6660   14.0161 H         1 UNK         0.2998 
    122 H122      -46.8982  -24.9074   16.1657 H         1 UNK         0.0697 
    123 H123      -46.3772  -26.9242   13.9176 H         1 UNK         0.0825 
    124 H124      -45.6380  -26.9426   15.5106 H         1 UNK         0.0825 
    125 H125      -45.2872  -25.6259   14.4018 H         1 UNK         0.0825 
    126 H126      -47.3538  -24.6070   13.3948 H         1 UNK         0.3029 
    127 H127      -50.2223  -22.4287   13.6332 H         1 UNK         0.0897 
    128 H128      -48.7099  -21.0630   12.2240 H         1 UNK         0.0792 
    129 H129      -48.1506  -21.0512   13.8894 H         1 UNK         0.0792 
    130 H130      -47.3270  -22.0463   12.6961 H         1 UNK         0.0792 
    131 H131      -48.9331  -23.4210   11.3312 H         1 UNK         0.3086 
    132 H132      -50.8445  -26.4467   10.9857 H         1 UNK         0.0583 
    133 H133      -50.7892  -23.7535    9.5323 H         1 UNK         0.1020 
    134 H134      -50.8639  -25.2527    8.6609 H         1 UNK         0.1020 
    135 H135      -54.4985  -26.3097    8.8140 H         1 UNK         0.0694 
    136 H136      -53.0883  -26.0996    7.8071 H         1 UNK         0.0694 
    137 H137      -48.6237  -25.5080    9.4939 H         1 UNK         0.2989 
    138 H138      -46.0666  -26.9579   11.5032 H         1 UNK         0.1055 
    139 H139      -46.8393  -28.8444   10.0769 H         1 UNK         0.0806 
    140 H140      -45.4734  -28.0210    9.3427 H         1 UNK         0.0806 
    141 H141      -47.1000  -27.7394    8.7323 H         1 UNK         0.0806 
    142 H142      -46.2091  -25.4488    9.0180 H         1 UNK         0.3061 
    143 H143      -45.7290  -22.2678   10.5616 H         1 UNK         0.0734 
    144 H144      -43.7918  -22.2403    9.0124 H         1 UNK         0.0832 
    145 H145      -43.4449  -23.2677   10.3923 H         1 UNK         0.0832 
    146 H146      -43.8592  -23.9956    8.8470 H         1 UNK         0.0832 
    147 H147      -45.9493  -23.0558    7.8250 H         1 UNK         0.3156 
    148 H148      -49.4953  -23.0291    7.6011 H         1 UNK         0.0589 
    149 H149      -47.5248  -20.8958    6.6248 H         1 UNK         0.0808 
    150 H150      -49.1449  -21.1913    5.9912 H         1 UNK         0.0808 
    151 H151      -48.9370  -20.5897    7.6260 H         1 UNK         0.0808 
    152 H152      -47.7192  -23.1605    5.4869 H         1 UNK         0.3098 
    153 H153      -48.2344  -26.0680    4.7407 H         1 UNK         0.0720 
    154 H154      -46.3569  -25.3129    3.2664 H         1 UNK         0.0791 
    155 H155      -45.8165  -24.2121    4.5271 H         1 UNK         0.0791 
    156 H156      -47.3931  -23.9979    3.7615 H         1 UNK         0.0791 
    157 H157      -45.4156  -26.4586    5.4910 H         1 UNK         0.3028 
@<TRIPOS>BOND
     1    1    2 1    
     2    1   82 1    
     3    1   83 1    
     4    1   84 1    
     5    2    3 2    
     6    2    4 am   BACKBONE|DICT|INTERRES
     7    4    5 1    
     8    4   85 1    
     9    5    6 1    
    10    5   80 1    
    11    5   86 1    
    12    6    7 1    
    13    6   87 1    
    14    6   88 1    
    15    7    8 1    
    16    8    9 1    
    17    8   89 1    
    18    8   90 1    
    19    9   10 ar   
    20    9   14 ar   
    21   10   11 ar   
    22   10   91 1    
    23   11   12 ar   
    24   11   58 1    
    25   12   13 ar   
    26   12   92 1    
    27   13   14 ar   
    28   13   15 1    
    29   14   93 1    
    30   15   16 1    
    31   15   94 1    
    32   15   95 1    
    33   16   17 1    
    34   17   18 1    
    35   17   96 1    
    36   17   97 1    
    37   18   19 1    
    38   18   22 1    
    39   18   98 1    
    40   19   20 am   BACKBONE|DICT|INTERRES
    41   19   21 2    
    42   20   99 1    
    43   20  100 1    
    44   22   23 am   BACKBONE|DICT|INTERRES
    45   22  101 1    
    46   23   24 2    
    47   23   25 1    
    48   25   26 1    
    49   25   27 1    
    50   25  102 1    
    51   26  103 1    
    52   26  104 1    
    53   26  105 1    
    54   27   28 am   BACKBONE|DICT|INTERRES
    55   27  106 1    
    56   28   29 2    
    57   28   30 1    
    58   30   31 1    
    59   30   32 1    
    60   30  107 1    
    61   31  108 1    
    62   31  109 1    
    63   31  110 1    
    64   32   33 am   BACKBONE|DICT|INTERRES
    65   32  111 1    
    66   33   34 2    
    67   33   35 1    
    68   35   36 1    
    69   35   37 1    
    70   35  112 1    
    71   36  113 1    
    72   36  114 1    
    73   36  115 1    
    74   37   38 am   BACKBONE|DICT|INTERRES
    75   37  116 1    
    76   38   39 2    
    77   38   40 1    
    78   40   41 1    
    79   40   42 1    
    80   40  117 1    
    81   41  118 1    
    82   41  119 1    
    83   41  120 1    
    84   42   43 am   BACKBONE|DICT|INTERRES
    85   42  121 1    
    86   43   44 2    
    87   43   45 1    
    88   45   46 1    
    89   45   47 1    
    90   45  122 1    
    91   46  123 1    
    92   46  124 1    
    93   46  125 1    
    94   47   48 am   BACKBONE|DICT|INTERRES
    95   47  126 1    
    96   48   49 2    
    97   48   50 1    
    98   50   51 1    
    99   50   52 1    
   100   50  127 1    
   101   51  128 1    
   102   51  129 1    
   103   51  130 1    
   104   52   53 am   BACKBONE|DICT|INTERRES
   105   52  131 1    
   106   53   54 2    
   107   53   55 1    
   108   55   56 1    
   109   55   59 1    
   110   55  132 1    
   111   56   57 1    
   112   56  133 1    
   113   56  134 1    
   114   57   58 1    
   115   58  135 1    
   116   58  136 1    
   117   59   60 am   BACKBONE|DICT|INTERRES
   118   59  137 1    
   119   60   61 2    
   120   60   62 1    
   121   62   63 1    
   122   62   64 1    
   123   62  138 1    
   124   63  139 1    
   125   63  140 1    
   126   63  141 1    
   127   64   65 am   BACKBONE|DICT|INTERRES
   128   64  142 1    
   129   65   66 2    
   130   65   67 1    
   131   67   68 1    
   132   67   69 1    
   133   67  143 1    
   134   68  144 1    
   135   68  145 1    
   136   68  146 1    
   137   69   70 am   BACKBONE|DICT|INTERRES
   138   69  147 1    
   139   70   71 2    
   140   70   72 1    
   141   72   73 1    
   142   72   74 1    
   143   72  148 1    
   144   73  149 1    
   145   73  150 1    
   146   73  151 1    
   147   74   75 am   BACKBONE|DICT|INTERRES
   148   74  152 1    
   149   75   76 2    
   150   75   77 1    
   151   77   78 1    
   152   77   79 1    
   153   77  153 1    
   154   78  154 1    
   155   78  155 1    
   156   78  156 1    
   157   79   80 am   BACKBONE|DICT|INTERRES
   158   79  157 1    
   159   80   81 2    
@<TRIPOS>SUBSTRUCTURE
     1 UNK         1 GROUP             0       ****    0 ROOT    
