@<TRIPOS>MOLECULE
3R207
157   159    1
SMALL
USER_CHARGES


@<TRIPOS>ATOM
      1 CA        -48.8436  -31.4670    5.9291 C.3       0 UNK        -0.1975 
      2 C         -49.5351  -30.1619    5.5654 C.2       0 UNK         0.4852 
      3 O         -49.2282  -29.5773    4.5246 O.2       0 UNK        -0.5216 
      4 N         -50.4611  -29.6982    6.4180 N.am      1 UNK        -0.4461 
      5 CA        -51.1985  -28.4374    6.2781 C.3       1 UNK         0.0864 
      6 C6        -52.2232  -28.2655    7.4294 C.3       14 UNK        -0.0898 
      7 S7        -53.3229  -26.8092    7.2761 S.3       14 UNK        -0.2598 
      8 C8        -52.4103  -25.4629    8.1140 C.3       14 UNK         0.0286 
      9 C9        -52.3951  -25.5835    9.6313 C.ar      14 UNK        -0.0844 
     10 C10       -53.2633  -24.8051   10.4002 C.ar      14 UNK        -0.0881 
     11 C11       -53.2017  -24.8423   11.7955 C.ar      14 UNK        -0.0643 
     12 C12       -52.3235  -25.7314   12.4218 C.ar      14 UNK        -0.0930 
     13 C13       -51.4372  -26.5072   11.6686 C.ar      14 UNK        -0.0827 
     14 C14       -51.4612  -26.4021   10.2741 C.ar      14 UNK        -0.1249 
     15 C15       -50.3853  -27.3559   12.3794 C.3       14 UNK         0.0141 
     16 S16       -50.0466  -28.9646   11.5822 S.3       14 UNK        -0.2313 
     17 C17       -51.0275  -30.1236   12.5918 C.3       14 UNK        -0.0915 
     18 CA        -52.3224  -30.5971   11.8861 C.3       13 UNK         0.0968 
     19 C         -53.0179  -31.7351   12.6904 C.2       13 UNK         0.5732 
     20 N         -54.2655  -31.5987   13.1267 N.am      13 UNK        -0.7310 
     21 O         -52.4121  -32.7805   12.9140 O.2       13 UNK        -0.5035 
     22 N         -53.2041  -29.4682   11.5674 N.am      13 UNK        -0.4233 
     23 C         -54.0960  -29.4593   10.5697 C.2       13 UNK         0.4989 
     24 O         -54.2030  -30.3688    9.7446 O.2       13 UNK        -0.4996 
     25 CA        -55.0346  -28.2371   10.4883 C.3       12 UNK         0.0216 
     26 CB        -56.3404  -28.5373    9.7231 C.3       12 UNK        -0.1964 
     27 N         -55.3297  -27.6295   11.7929 N.am      12 UNK        -0.4276 
     28 C         -55.8648  -28.2339   12.8635 C.2       12 UNK         0.5020 
     29 O         -56.2133  -29.4163   12.8969 O.2       12 UNK        -0.5489 
     30 CA        -55.9986  -27.3735   14.1300 C.3       11 UNK         0.0294 
     31 CB        -57.4757  -27.2013   14.5196 C.3       11 UNK        -0.2019 
     32 N         -55.2549  -27.9212   15.2677 N.am      11 UNK        -0.4493 
     33 C         -53.9442  -28.1995   15.2822 C.2       11 UNK         0.4932 
     34 O         -53.1989  -28.0753   14.3109 O.2       11 UNK        -0.5029 
     35 CA        -53.3557  -28.6655   16.6231 C.3       10 UNK         0.0280 
     36 CB        -52.4985  -29.9312   16.4508 C.3       10 UNK        -0.1976 
     37 N         -52.5420  -27.6074   17.2248 N.am      10 UNK        -0.4242 
     38 C         -53.0221  -26.4604   17.7269 C.2       10 UNK         0.5072 
     39 O         -54.2242  -26.1982   17.7954 O.2       10 UNK        -0.5224 
     40 CA        -52.0097  -25.4381   18.2788 C.3       9 UNK         0.0343 
     41 CB        -52.0423  -25.4312   19.8167 C.3       9 UNK        -0.2003 
     42 N         -50.6265  -25.6467   17.8362 N.am      9 UNK        -0.4272 
     43 C         -50.1630  -25.3417   16.6176 C.2       9 UNK         0.4988 
     44 O         -50.8662  -24.9220   15.6969 O.2       9 UNK        -0.5108 
     45 CA        -48.6620  -25.5708   16.3889 C.3       8 UNK         0.0248 
     46 CB        -48.4016  -27.0048   15.8982 C.3       8 UNK        -0.2001 
     47 N         -48.1626  -24.6247   15.3921 N.am      8 UNK        -0.4140 
     48 C         -47.6221  -23.4288   15.6671 C.2       8 UNK         0.5028 
     49 O         -47.3792  -23.0291   16.8067 O.2       8 UNK        -0.5428 
     50 CA        -47.3082  -22.5172   14.4673 C.3       7 UNK         0.0264 
     51 CB        -45.8875  -22.7798   13.9423 C.3       7 UNK        -0.1988 
     52 N         -48.2678  -22.7244   13.3838 N.am      7 UNK        -0.4454 
     53 C         -49.4745  -22.1520   13.3008 C.2       7 UNK         0.5027 
     54 O         -49.8258  -21.2144   14.0196 O.2       7 UNK        -0.5083 
     55 CA        -50.4437  -22.7463   12.2490 C.3       6 UNK         0.0844 
     56 C56       -51.8309  -22.0416   12.1838 C.3       14 UNK        -0.0967 
     57 S57       -52.9683  -22.6386   13.4902 S.3       14 UNK        -0.2604 
     58 C58       -54.0186  -23.8560   12.6197 C.3       14 UNK         0.0134 
     59 N         -49.8471  -22.9191   10.9138 N.am      6 UNK        -0.4116 
     60 C         -48.9670  -23.8734   10.5730 C.2       5 UNK         0.5034 
     61 O         -48.4714  -24.6487   11.3944 O.2       5 UNK        -0.5045 
     62 CA        -48.5964  -23.9677    9.0781 C.3       5 UNK         0.0224 
     63 CB        -47.7936  -22.7372    8.6080 C.3       5 UNK        -0.1978 
     64 N         -47.9069  -25.2197    8.7253 N.am      5 UNK        -0.4737 
     65 C         -46.6869  -25.6381    9.1038 C.2       4 UNK         0.5027 
     66 O         -45.8781  -24.9634    9.7420 O.2       4 UNK        -0.5211 
     67 CA        -46.2945  -27.0597    8.6751 C.3       4 UNK         0.0297 
     68 CB        -47.0811  -28.1096    9.4784 C.3       4 UNK        -0.1993 
     69 N         -46.5431  -27.2502    7.2474 N.am      4 UNK        -0.4486 
     70 C         -45.6160  -27.1346    6.2862 C.2       3 UNK         0.4961 
     71 O         -44.4181  -26.9516    6.5059 O.2       3 UNK        -0.5105 
     72 CA        -46.0971  -27.2348    4.8248 C.3       3 UNK         0.0299 
     73 CB        -45.9118  -28.6655    4.2951 C.3       3 UNK        -0.1972 
     74 N         -47.4937  -26.8256    4.6523 N.am      3 UNK        -0.4305 
     75 C         -47.9310  -25.5646    4.8006 C.2       2 UNK         0.5006 
     76 O         -47.1825  -24.6008    4.9645 O.2       2 UNK        -0.5106 
     77 CA        -49.4535  -25.3237    4.7964 C.3       2 UNK         0.0296 
     78 CB        -49.8974  -24.7128    3.4573 C.3       2 UNK        -0.2002 
     79 N         -50.2736  -26.5073    5.0775 N.am      2 UNK        -0.4032 
     80 C         -50.2177  -27.2512    6.1911 C.2       1 UNK         0.5000 
     81 O         -49.4296  -27.0431    7.1181 O.2       1 UNK        -0.5238 
     82 H82       -49.2474  -31.9019    6.8432 H         1 UNK         0.0889 
     83 H83       -47.7773  -31.2980    6.0762 H         1 UNK         0.0889 
     84 H84       -48.9664  -32.1926    5.1255 H         1 UNK         0.0889 
     85 H85       -50.6480  -30.2166    7.2641 H         1 UNK         0.3028 
     86 H86       -51.7550  -28.4986    5.3405 H         1 UNK         0.0864 
     87 H87       -51.7308  -28.2803    8.3979 H         1 UNK         0.0720 
     88 H88       -52.8802  -29.1366    7.4432 H         1 UNK         0.0720 
     89 H89       -52.8796  -24.5205    7.8278 H         1 UNK         0.0814 
     90 H90       -51.3904  -25.3892    7.7466 H         1 UNK         0.0814 
     91 H91       -53.9488  -24.1265    9.9108 H         1 UNK         0.1469 
     92 H92       -52.2719  -25.7529   13.5025 H         1 UNK         0.1381 
     93 H93       -50.7253  -26.9380    9.6932 H         1 UNK         0.1206 
     94 H94       -50.6663  -27.5097   13.4212 H         1 UNK         0.0813 
     95 H95       -49.4535  -26.7928   12.4020 H         1 UNK         0.0813 
     96 H96       -51.2563  -29.6778   13.5583 H         1 UNK         0.0638 
     97 H97       -50.3801  -30.9760   12.8050 H         1 UNK         0.0638 
     98 H98       -52.0185  -31.0555   10.9432 H         1 UNK         0.0568 
     99 H99       -54.6884  -32.3584   13.6343 H         1 UNK         0.3450 
    100 H100      -54.8054  -30.7578   12.9449 H         1 UNK         0.3450 
    101 H101      -53.1884  -28.7032   12.2322 H         1 UNK         0.2987 
    102 H102      -54.4893  -27.4835    9.9220 H         1 UNK         0.0766 
    103 H103      -56.1300  -28.8583    8.7020 H         1 UNK         0.0798 
    104 H104      -56.9737  -27.6528    9.6573 H         1 UNK         0.0798 
    105 H105      -56.9161  -29.3293   10.2032 H         1 UNK         0.0798 
    106 H106      -55.0242  -26.6712   11.8916 H         1 UNK         0.3198 
    107 H107      -55.5867  -26.3843   13.9294 H         1 UNK         0.0843 
    108 H108      -57.9371  -28.1549   14.7803 H         1 UNK         0.0831 
    109 H109      -58.0498  -26.7776   13.6943 H         1 UNK         0.0831 
    110 H110      -57.5883  -26.5284   15.3699 H         1 UNK         0.0831 
    111 H111      -55.7756  -28.0449   16.1238 H         1 UNK         0.3133 
    112 H112      -54.1740  -28.9051   17.3054 H         1 UNK         0.0566 
    113 H113      -52.1897  -30.3336   17.4156 H         1 UNK         0.0814 
    114 H114      -51.5983  -29.7355   15.8684 H         1 UNK         0.0814 
    115 H115      -53.0567  -30.7147   15.9362 H         1 UNK         0.0814 
    116 H116      -51.5414  -27.7254   17.1861 H         1 UNK         0.3091 
    117 H117      -52.3309  -24.4538   17.9306 H         1 UNK         0.0702 
    118 H118      -51.3981  -24.6519   20.2245 H         1 UNK         0.0785 
    119 H119      -51.7204  -26.3870   20.2321 H         1 UNK         0.0785 
    120 H120      -53.0508  -25.2392   20.1859 H         1 UNK         0.0785 
    121 H121      -49.9810  -25.9992   18.5290 H         1 UNK         0.2998 
    122 H122      -48.1321  -25.4261   17.3330 H         1 UNK         0.0697 
    123 H123      -47.3367  -27.1819   15.7455 H         1 UNK         0.0825 
    124 H124      -48.9104  -27.2115   14.9575 H         1 UNK         0.0825 
    125 H125      -48.7487  -27.7397   16.6255 H         1 UNK         0.0825 
    126 H126      -48.3837  -24.8376   14.4308 H         1 UNK         0.3029 
    127 H127      -47.3634  -21.4806   14.8074 H         1 UNK         0.0897 
    128 H128      -45.7722  -23.8013   13.5770 H         1 UNK         0.0792 
    129 H129      -45.1469  -22.6275   14.7287 H         1 UNK         0.0792 
    130 H130      -45.6367  -22.1028   13.1254 H         1 UNK         0.0792 
    131 H131      -48.0742  -23.4771   12.7247 H         1 UNK         0.3086 
    132 H132      -50.6202  -23.7569   12.6151 H         1 UNK         0.0583 
    133 H133      -51.7324  -20.9572   12.2585 H         1 UNK         0.1020 
    134 H134      -52.3071  -22.2162   11.2186 H         1 UNK         0.1020 
    135 H135      -54.6078  -24.3951   13.3602 H         1 UNK         0.0694 
    136 H136      -54.7301  -23.3192   11.9902 H         1 UNK         0.0694 
    137 H137      -50.1764  -22.2861   10.2003 H         1 UNK         0.2989 
    138 H138      -49.5357  -23.9878    8.5243 H         1 UNK         0.1055 
    139 H139      -46.8844  -22.5951    9.1928 H         1 UNK         0.0806 
    140 H140      -48.3801  -21.8226    8.6992 H         1 UNK         0.0806 
    141 H141      -47.5059  -22.8310    7.5604 H         1 UNK         0.0806 
    142 H142      -48.4797  -25.8890    8.2151 H         1 UNK         0.3061 
    143 H143      -45.2336  -27.1984    8.8945 H         1 UNK         0.0734 
    144 H144      -46.7569  -29.1208    9.2330 H         1 UNK         0.0832 
    145 H145      -46.9331  -27.9711   10.5503 H         1 UNK         0.0832 
    146 H146      -48.1537  -28.0492    9.2911 H         1 UNK         0.0832 
    147 H147      -47.5178  -27.3441    6.9778 H         1 UNK         0.3156 
    148 H148      -45.4742  -26.5682    4.2244 H         1 UNK         0.0589 
    149 H149      -46.4858  -29.3884    4.8750 H         1 UNK         0.0808 
    150 H150      -44.8646  -28.9665    4.3469 H         1 UNK         0.0808 
    151 H151      -46.2217  -28.7486    3.2533 H         1 UNK         0.0808 
    152 H152      -48.1710  -27.5660    4.5086 H         1 UNK         0.3098 
    153 H153      -49.6580  -24.5977    5.5860 H         1 UNK         0.0720 
    154 H154      -50.9509  -24.4328    3.4771 H         1 UNK         0.0791 
    155 H155      -49.7476  -25.4060    2.6286 H         1 UNK         0.0791 
    156 H156      -49.3297  -23.8086    3.2322 H         1 UNK         0.0791 
    157 H157      -50.9364  -26.7670    4.3608 H         1 UNK         0.3028 
@<TRIPOS>BOND
     1    1    2 1    
     2    1   82 1    
     3    1   83 1    
     4    1   84 1    
     5    2    3 2    
     6    2    4 am   BACKBONE|DICT|INTERRES
     7    4    5 1    
     8    4   85 1    
     9    5    6 1    
    10    5   80 1    
    11    5   86 1    
    12    6    7 1    
    13    6   87 1    
    14    6   88 1    
    15    7    8 1    
    16    8    9 1    
    17    8   89 1    
    18    8   90 1    
    19    9   10 ar   
    20    9   14 ar   
    21   10   11 ar   
    22   10   91 1    
    23   11   12 ar   
    24   11   58 1    
    25   12   13 ar   
    26   12   92 1    
    27   13   14 ar   
    28   13   15 1    
    29   14   93 1    
    30   15   16 1    
    31   15   94 1    
    32   15   95 1    
    33   16   17 1    
    34   17   18 1    
    35   17   96 1    
    36   17   97 1    
    37   18   19 1    
    38   18   22 1    
    39   18   98 1    
    40   19   20 am   BACKBONE|DICT|INTERRES
    41   19   21 2    
    42   20   99 1    
    43   20  100 1    
    44   22   23 am   BACKBONE|DICT|INTERRES
    45   22  101 1    
    46   23   24 2    
    47   23   25 1    
    48   25   26 1    
    49   25   27 1    
    50   25  102 1    
    51   26  103 1    
    52   26  104 1    
    53   26  105 1    
    54   27   28 am   BACKBONE|DICT|INTERRES
    55   27  106 1    
    56   28   29 2    
    57   28   30 1    
    58   30   31 1    
    59   30   32 1    
    60   30  107 1    
    61   31  108 1    
    62   31  109 1    
    63   31  110 1    
    64   32   33 am   BACKBONE|DICT|INTERRES
    65   32  111 1    
    66   33   34 2    
    67   33   35 1    
    68   35   36 1    
    69   35   37 1    
    70   35  112 1    
    71   36  113 1    
    72   36  114 1    
    73   36  115 1    
    74   37   38 am   BACKBONE|DICT|INTERRES
    75   37  116 1    
    76   38   39 2    
    77   38   40 1    
    78   40   41 1    
    79   40   42 1    
    80   40  117 1    
    81   41  118 1    
    82   41  119 1    
    83   41  120 1    
    84   42   43 am   BACKBONE|DICT|INTERRES
    85   42  121 1    
    86   43   44 2    
    87   43   45 1    
    88   45   46 1    
    89   45   47 1    
    90   45  122 1    
    91   46  123 1    
    92   46  124 1    
    93   46  125 1    
    94   47   48 am   BACKBONE|DICT|INTERRES
    95   47  126 1    
    96   48   49 2    
    97   48   50 1    
    98   50   51 1    
    99   50   52 1    
   100   50  127 1    
   101   51  128 1    
   102   51  129 1    
   103   51  130 1    
   104   52   53 am   BACKBONE|DICT|INTERRES
   105   52  131 1    
   106   53   54 2    
   107   53   55 1    
   108   55   56 1    
   109   55   59 1    
   110   55  132 1    
   111   56   57 1    
   112   56  133 1    
   113   56  134 1    
   114   57   58 1    
   115   58  135 1    
   116   58  136 1    
   117   59   60 am   BACKBONE|DICT|INTERRES
   118   59  137 1    
   119   60   61 2    
   120   60   62 1    
   121   62   63 1    
   122   62   64 1    
   123   62  138 1    
   124   63  139 1    
   125   63  140 1    
   126   63  141 1    
   127   64   65 am   BACKBONE|DICT|INTERRES
   128   64  142 1    
   129   65   66 2    
   130   65   67 1    
   131   67   68 1    
   132   67   69 1    
   133   67  143 1    
   134   68  144 1    
   135   68  145 1    
   136   68  146 1    
   137   69   70 am   BACKBONE|DICT|INTERRES
   138   69  147 1    
   139   70   71 2    
   140   70   72 1    
   141   72   73 1    
   142   72   74 1    
   143   72  148 1    
   144   73  149 1    
   145   73  150 1    
   146   73  151 1    
   147   74   75 am   BACKBONE|DICT|INTERRES
   148   74  152 1    
   149   75   76 2    
   150   75   77 1    
   151   77   78 1    
   152   77   79 1    
   153   77  153 1    
   154   78  154 1    
   155   78  155 1    
   156   78  156 1    
   157   79   80 am   BACKBONE|DICT|INTERRES
   158   79  157 1    
   159   80   81 2    
@<TRIPOS>SUBSTRUCTURE
     1 UNK         1 GROUP             0       ****    0 ROOT    
