@<TRIPOS>MOLECULE
3R207
157   159    1
SMALL
USER_CHARGES


@<TRIPOS>ATOM
      1 CA        -46.5473  -30.5958   10.0010 C.3       0 UNK        -0.1975 
      2 C         -46.6888  -30.2936    8.5163 C.2       0 UNK         0.4852 
      3 O         -45.6826  -30.1521    7.8205 O.2       0 UNK        -0.5216 
      4 N         -47.9304  -30.1985    8.0290 N.am      1 UNK        -0.4461 
      5 CA        -48.2728  -29.8009    6.6617 C.3       1 UNK         0.0864 
      6 C6        -49.6609  -30.3610    6.2493 C.3       14 UNK        -0.0898 
      7 S7        -51.0267  -29.9029    7.3799 S.3       14 UNK        -0.2598 
      8 C8        -52.0960  -28.8733    6.3229 C.3       14 UNK         0.0286 
      9 C9        -52.5634  -27.6135    7.0399 C.ar      14 UNK        -0.0844 
     10 C10       -52.1220  -26.3583    6.6107 C.ar      14 UNK        -0.0881 
     11 C11       -52.5773  -25.1905    7.2312 C.ar      14 UNK        -0.0643 
     12 C12       -53.4711  -25.2852    8.3004 C.ar      14 UNK        -0.0930 
     13 C13       -53.9251  -26.5333    8.7368 C.ar      14 UNK        -0.0827 
     14 C14       -53.4694  -27.6942    8.1028 C.ar      14 UNK        -0.1249 
     15 C15       -54.9481  -26.6125    9.8592 C.3       14 UNK         0.0141 
     16 S16       -54.1756  -26.5055   11.5021 S.3       14 UNK        -0.2313 
     17 C17       -53.7010  -28.2427   11.7954 C.3       14 UNK        -0.0915 
     18 CA        -54.8629  -29.0946   12.3784 C.3       13 UNK         0.0968 
     19 C         -54.4801  -30.6008   12.4923 C.2       13 UNK         0.5732 
     20 N         -54.7582  -31.2913   13.5929 N.am      13 UNK        -0.7310 
     21 O         -53.9285  -31.1674   11.5522 O.2       13 UNK        -0.5035 
     22 N         -55.3914  -28.5153   13.6226 N.am      13 UNK        -0.4233 
     23 C         -56.6550  -28.6208   14.0454 C.2       13 UNK         0.4989 
     24 O         -57.5522  -29.1651   13.3982 O.2       13 UNK        -0.4996 
     25 CA        -56.9420  -28.0517   15.4500 C.3       12 UNK         0.0216 
     26 CB        -58.4210  -28.1992   15.8664 C.3       12 UNK        -0.1964 
     27 N         -56.0637  -28.6242   16.4811 N.am      12 UNK        -0.4276 
     28 C         -55.8703  -29.9223   16.7616 C.2       12 UNK         0.5020 
     29 O         -56.4132  -30.8472   16.1551 O.2       12 UNK        -0.5489 
     30 CA        -54.8412  -30.2338   17.8640 C.3       11 UNK         0.0294 
     31 CB        -54.7909  -31.7302   18.2267 C.3       11 UNK        -0.2019 
     32 N         -53.5115  -29.8056   17.4312 N.am      11 UNK        -0.4493 
     33 C         -53.0423  -28.5565   17.5295 C.2       11 UNK         0.4932 
     34 O         -53.6412  -27.6590   18.1275 O.2       11 UNK        -0.5029 
     35 CA        -51.7052  -28.2491   16.8231 C.3       10 UNK         0.0280 
     36 CB        -51.3290  -29.2745   15.7274 C.3       10 UNK        -0.1976 
     37 N         -51.6718  -26.8945   16.2620 N.am      10 UNK        -0.4242 
     38 C         -52.5288  -26.3462   15.3884 C.2       10 UNK         0.5072 
     39 O         -53.5275  -26.9249   14.9594 O.2       10 UNK        -0.5224 
     40 CA        -52.2216  -24.9214   14.8862 C.3       9 UNK         0.0343 
     41 CB        -52.8699  -23.8573   15.7921 C.3       9 UNK        -0.2003 
     42 N         -50.7942  -24.6476   14.6517 N.am      9 UNK        -0.4272 
     43 C         -49.7950  -24.5673   15.5434 C.2       9 UNK         0.4988 
     44 O         -49.9519  -24.6845   16.7596 O.2       9 UNK        -0.5108 
     45 CA        -48.3677  -24.3973   15.0004 C.3       8 UNK         0.0248 
     46 CB        -47.7208  -25.7758   14.7891 C.3       8 UNK        -0.2001 
     47 N         -48.2772  -23.6132   13.7649 N.am      8 UNK        -0.4140 
     48 C         -48.4696  -22.2867   13.7053 C.2       8 UNK         0.5028 
     49 O         -48.8095  -21.5995   14.6696 O.2       8 UNK        -0.5428 
     50 CA        -48.2117  -21.5992   12.3549 C.3       7 UNK         0.0264 
     51 CB        -46.7028  -21.4332   12.1104 C.3       7 UNK        -0.1988 
     52 N         -48.8072  -22.3208   11.2329 N.am      7 UNK        -0.4454 
     53 C         -50.1169  -22.3316   10.9422 C.2       7 UNK         0.5027 
     54 O         -50.9653  -21.6847   11.5576 O.2       7 UNK        -0.5083 
     55 CA        -50.5462  -23.2349    9.7670 C.3       6 UNK         0.0844 
     56 C56       -50.2892  -22.5103    8.4181 C.3       14 UNK        -0.0967 
     57 S57       -50.3597  -23.5672    6.9320 S.3       14 UNK        -0.2604 
     58 C58       -52.1419  -23.8306    6.7060 C.3       14 UNK         0.0134 
     59 N         -49.9175  -24.5548    9.8510 N.am      6 UNK        -0.4116 
     60 C         -50.0522  -25.4141   10.8716 C.2       5 UNK         0.5034 
     61 O         -50.7415  -25.2056   11.8680 O.2       5 UNK        -0.5045 
     62 CA        -49.2291  -26.7054   10.7972 C.3       5 UNK         0.0224 
     63 CB        -50.0419  -27.8133   10.1172 C.3       5 UNK        -0.1978 
     64 N         -47.9489  -26.5105   10.1080 N.am      5 UNK        -0.4737 
     65 C         -46.9433  -25.7857   10.6206 C.2       4 UNK         0.5027 
     66 O         -46.9988  -25.2257   11.7156 O.2       4 UNK        -0.5211 
     67 CA        -45.6854  -25.6144    9.7576 C.3       4 UNK         0.0297 
     68 CB        -44.9435  -26.9468    9.5778 C.3       4 UNK        -0.1993 
     69 N         -45.9613  -25.0259    8.4478 N.am      4 UNK        -0.4486 
     70 C         -46.4894  -23.8159    8.2294 C.2       3 UNK         0.4961 
     71 O         -46.8656  -23.0590    9.1245 O.2       3 UNK        -0.5105 
     72 CA        -46.6400  -23.3747    6.7632 C.3       3 UNK         0.0299 
     73 CB        -45.2869  -22.9641    6.1501 C.3       3 UNK        -0.1972 
     74 N         -47.3553  -24.3513    5.9323 N.am      3 UNK        -0.4305 
     75 C         -46.9735  -25.5764    5.5492 C.2       2 UNK         0.5006 
     76 O         -45.8559  -26.0560    5.7563 O.2       2 UNK        -0.5106 
     77 CA        -48.0455  -26.4101    4.8250 C.3       2 UNK         0.0296 
     78 CB        -47.8564  -26.3222    3.3023 C.3       2 UNK        -0.2002 
     79 N         -48.0638  -27.8201    5.2302 N.am      2 UNK        -0.4032 
     80 C         -48.1826  -28.2682    6.4894 C.2       1 UNK         0.5000 
     81 O         -48.2485  -27.5296    7.4769 O.2       1 UNK        -0.5238 
     82 H82       -45.9648  -31.5053   10.1456 H         1 UNK         0.0889 
     83 H83       -47.5151  -30.7327   10.4832 H         1 UNK         0.0889 
     84 H84       -46.0328  -29.7772   10.5032 H         1 UNK         0.0889 
     85 H85       -48.7237  -30.2984    8.6458 H         1 UNK         0.3028 
     86 H86       -47.5310  -30.2405    5.9911 H         1 UNK         0.0864 
     87 H87       -49.9012  -30.0818    5.2226 H         1 UNK         0.0720 
     88 H88       -49.6107  -31.4509    6.2374 H         1 UNK         0.0720 
     89 H89       -51.5769  -28.6044    5.4024 H         1 UNK         0.0814 
     90 H90       -52.9637  -29.4606    6.0196 H         1 UNK         0.0814 
     91 H91       -51.4338  -26.2834    5.7804 H         1 UNK         0.1469 
     92 H92       -53.8331  -24.3872    8.7817 H         1 UNK         0.1381 
     93 H93       -53.8244  -28.6624    8.4287 H         1 UNK         0.1206 
     94 H94       -55.6589  -25.7910    9.7581 H         1 UNK         0.0813 
     95 H95       -55.5372  -27.5269    9.7805 H         1 UNK         0.0813 
     96 H96       -52.8508  -28.2466   12.4798 H         1 UNK         0.0638 
     97 H97       -53.3378  -28.6648   10.8575 H         1 UNK         0.0638 
     98 H98       -55.6659  -29.0740   11.6402 H         1 UNK         0.0568 
     99 H99       -55.2876  -30.8824   14.3522 H         1 UNK         0.3450 
    100 H100      -54.5056  -32.2655   13.6299 H         1 UNK         0.3450 
    101 H101      -54.7143  -28.0098   14.1937 H         1 UNK         0.2987 
    102 H102      -56.7137  -26.9856   15.4025 H         1 UNK         0.0766 
    103 H103      -59.0801  -27.7112   15.1472 H         1 UNK         0.0798 
    104 H104      -58.6069  -27.7414   16.8379 H         1 UNK         0.0798 
    105 H105      -58.7220  -29.2459   15.9262 H         1 UNK         0.0798 
    106 H106      -55.4935  -27.9585   16.9925 H         1 UNK         0.3198 
    107 H107      -55.1362  -29.6832   18.7603 H         1 UNK         0.0843 
    108 H108      -55.7679  -32.0824   18.5604 H         1 UNK         0.0831 
    109 H109      -54.0861  -31.9181   19.0368 H         1 UNK         0.0831 
    110 H110      -54.4962  -32.3458   17.3758 H         1 UNK         0.0831 
    111 H111      -52.9748  -30.4763   16.9001 H         1 UNK         0.3133 
    112 H112      -50.9343  -28.2800   17.5939 H         1 UNK         0.0566 
    113 H113      -50.4088  -28.9839   15.2199 H         1 UNK         0.0814 
    114 H114      -51.1539  -30.2657   16.1468 H         1 UNK         0.0814 
    115 H115      -52.1070  -29.3633   14.9673 H         1 UNK         0.0814 
    116 H116      -50.9374  -26.2833   16.6093 H         1 UNK         0.3091 
    117 H117      -52.6900  -24.8393   13.9039 H         1 UNK         0.0702 
    118 H118      -52.4804  -23.8919   16.8098 H         1 UNK         0.0785 
    119 H119      -53.9482  -24.0095   15.8546 H         1 UNK         0.0785 
    120 H120      -52.7050  -22.8528   15.4021 H         1 UNK         0.0785 
    121 H121      -50.5476  -24.6262   13.6645 H         1 UNK         0.2998 
    122 H122      -47.7912  -23.8740   15.7664 H         1 UNK         0.0697 
    123 H123      -48.2425  -26.3527   14.0254 H         1 UNK         0.0825 
    124 H124      -47.7374  -26.3622   15.7089 H         1 UNK         0.0825 
    125 H125      -46.6783  -25.6826   14.4843 H         1 UNK         0.0825 
    126 H126      -47.9489  -24.1049   12.9363 H         1 UNK         0.3029 
    127 H127      -48.6581  -20.6031   12.3982 H         1 UNK         0.0897 
    128 H128      -46.5104  -20.8718   11.1958 H         1 UNK         0.0792 
    129 H129      -46.2301  -20.8910   12.9305 H         1 UNK         0.0792 
    130 H130      -46.1992  -22.3969   12.0198 H         1 UNK         0.0792 
    131 H131      -48.1678  -22.8391   10.6360 H         1 UNK         0.3086 
    132 H132      -51.6215  -23.4011    9.8573 H         1 UNK         0.0583 
    133 H133      -50.9920  -21.6838    8.2978 H         1 UNK         0.1020 
    134 H134      -49.2996  -22.0492    8.4126 H         1 UNK         0.1020 
    135 H135      -52.7055  -23.0239    7.1770 H         1 UNK         0.0694 
    136 H136      -52.3688  -23.7780    5.6403 H         1 UNK         0.0694 
    137 H137      -49.3355  -24.8240    9.0718 H         1 UNK         0.2989 
    138 H138      -49.0177  -27.0227   11.8202 H         1 UNK         0.1055 
    139 H139      -50.9606  -28.0144   10.6681 H         1 UNK         0.0806 
    140 H140      -49.4823  -28.7459   10.0654 H         1 UNK         0.0806 
    141 H141      -50.3326  -27.5323    9.1043 H         1 UNK         0.0806 
    142 H142      -47.8724  -26.8970    9.1670 H         1 UNK         0.3061 
    143 H143      -45.0206  -24.9297   10.2885 H         1 UNK         0.0734 
    144 H144      -44.7721  -27.4359   10.5376 H         1 UNK         0.0832 
    145 H145      -45.5081  -27.6357    8.9505 H         1 UNK         0.0832 
    146 H146      -43.9695  -26.7971    9.1118 H         1 UNK         0.0832 
    147 H147      -45.7346  -25.5835    7.6283 H         1 UNK         0.3156 
    148 H148      -47.2711  -22.4846    6.7695 H         1 UNK         0.0589 
    149 H149      -44.5737  -23.7883    6.1302 H         1 UNK         0.0808 
    150 H150      -45.4087  -22.6019    5.1294 H         1 UNK         0.0808 
    151 H151      -44.8307  -22.1589    6.7275 H         1 UNK         0.0808 
    152 H152      -48.3147  -24.0912    5.7393 H         1 UNK         0.3098 
    153 H153      -49.0263  -25.9998    5.0736 H         1 UNK         0.0720 
    154 H154      -46.9054  -26.7560    2.9899 H         1 UNK         0.0791 
    155 H155      -47.8665  -25.2844    2.9658 H         1 UNK         0.0791 
    156 H156      -48.6546  -26.8403    2.7704 H         1 UNK         0.0791 
    157 H157      -47.9858  -28.4954    4.4842 H         1 UNK         0.3028 
@<TRIPOS>BOND
     1    1    2 1    
     2    1   82 1    
     3    1   83 1    
     4    1   84 1    
     5    2    3 2    
     6    2    4 am   BACKBONE|DICT|INTERRES
     7    4    5 1    
     8    4   85 1    
     9    5    6 1    
    10    5   80 1    
    11    5   86 1    
    12    6    7 1    
    13    6   87 1    
    14    6   88 1    
    15    7    8 1    
    16    8    9 1    
    17    8   89 1    
    18    8   90 1    
    19    9   10 ar   
    20    9   14 ar   
    21   10   11 ar   
    22   10   91 1    
    23   11   12 ar   
    24   11   58 1    
    25   12   13 ar   
    26   12   92 1    
    27   13   14 ar   
    28   13   15 1    
    29   14   93 1    
    30   15   16 1    
    31   15   94 1    
    32   15   95 1    
    33   16   17 1    
    34   17   18 1    
    35   17   96 1    
    36   17   97 1    
    37   18   19 1    
    38   18   22 1    
    39   18   98 1    
    40   19   20 am   BACKBONE|DICT|INTERRES
    41   19   21 2    
    42   20   99 1    
    43   20  100 1    
    44   22   23 am   BACKBONE|DICT|INTERRES
    45   22  101 1    
    46   23   24 2    
    47   23   25 1    
    48   25   26 1    
    49   25   27 1    
    50   25  102 1    
    51   26  103 1    
    52   26  104 1    
    53   26  105 1    
    54   27   28 am   BACKBONE|DICT|INTERRES
    55   27  106 1    
    56   28   29 2    
    57   28   30 1    
    58   30   31 1    
    59   30   32 1    
    60   30  107 1    
    61   31  108 1    
    62   31  109 1    
    63   31  110 1    
    64   32   33 am   BACKBONE|DICT|INTERRES
    65   32  111 1    
    66   33   34 2    
    67   33   35 1    
    68   35   36 1    
    69   35   37 1    
    70   35  112 1    
    71   36  113 1    
    72   36  114 1    
    73   36  115 1    
    74   37   38 am   BACKBONE|DICT|INTERRES
    75   37  116 1    
    76   38   39 2    
    77   38   40 1    
    78   40   41 1    
    79   40   42 1    
    80   40  117 1    
    81   41  118 1    
    82   41  119 1    
    83   41  120 1    
    84   42   43 am   BACKBONE|DICT|INTERRES
    85   42  121 1    
    86   43   44 2    
    87   43   45 1    
    88   45   46 1    
    89   45   47 1    
    90   45  122 1    
    91   46  123 1    
    92   46  124 1    
    93   46  125 1    
    94   47   48 am   BACKBONE|DICT|INTERRES
    95   47  126 1    
    96   48   49 2    
    97   48   50 1    
    98   50   51 1    
    99   50   52 1    
   100   50  127 1    
   101   51  128 1    
   102   51  129 1    
   103   51  130 1    
   104   52   53 am   BACKBONE|DICT|INTERRES
   105   52  131 1    
   106   53   54 2    
   107   53   55 1    
   108   55   56 1    
   109   55   59 1    
   110   55  132 1    
   111   56   57 1    
   112   56  133 1    
   113   56  134 1    
   114   57   58 1    
   115   58  135 1    
   116   58  136 1    
   117   59   60 am   BACKBONE|DICT|INTERRES
   118   59  137 1    
   119   60   61 2    
   120   60   62 1    
   121   62   63 1    
   122   62   64 1    
   123   62  138 1    
   124   63  139 1    
   125   63  140 1    
   126   63  141 1    
   127   64   65 am   BACKBONE|DICT|INTERRES
   128   64  142 1    
   129   65   66 2    
   130   65   67 1    
   131   67   68 1    
   132   67   69 1    
   133   67  143 1    
   134   68  144 1    
   135   68  145 1    
   136   68  146 1    
   137   69   70 am   BACKBONE|DICT|INTERRES
   138   69  147 1    
   139   70   71 2    
   140   70   72 1    
   141   72   73 1    
   142   72   74 1    
   143   72  148 1    
   144   73  149 1    
   145   73  150 1    
   146   73  151 1    
   147   74   75 am   BACKBONE|DICT|INTERRES
   148   74  152 1    
   149   75   76 2    
   150   75   77 1    
   151   77   78 1    
   152   77   79 1    
   153   77  153 1    
   154   78  154 1    
   155   78  155 1    
   156   78  156 1    
   157   79   80 am   BACKBONE|DICT|INTERRES
   158   79  157 1    
   159   80   81 2    
@<TRIPOS>SUBSTRUCTURE
     1 UNK         1 GROUP             0       ****    0 ROOT    
