@<TRIPOS>MOLECULE
3R207
157   159    1
SMALL
USER_CHARGES


@<TRIPOS>ATOM
      1 CA        -51.2214  -27.3390    7.5432 C.3       0 UNK        -0.1975 
      2 C         -50.4793  -26.0150    7.4549 C.2       0 UNK         0.4852 
      3 O         -49.8904  -25.7044    6.4164 O.2       0 UNK        -0.5216 
      4 N         -50.5126  -25.2340    8.5422 N.am      1 UNK        -0.4461 
      5 CA        -49.9157  -23.8979    8.6559 C.3       1 UNK         0.0864 
      6 C6        -50.2174  -23.2432   10.0236 C.3       14 UNK        -0.0898 
      7 S7        -52.0021  -23.0019   10.3033 S.3       14 UNK        -0.2598 
      8 C8        -52.2750  -24.0248   11.7815 C.3       14 UNK         0.0286 
      9 C9        -52.2782  -25.5106   11.4596 C.ar      14 UNK        -0.0844 
     10 C10       -51.1819  -26.3119   11.7925 C.ar      14 UNK        -0.0881 
     11 C11       -51.2041  -27.6853   11.5326 C.ar      14 UNK        -0.0643 
     12 C12       -52.3334  -28.2575   10.9403 C.ar      14 UNK        -0.0930 
     13 C13       -53.4343  -27.4651   10.6023 C.ar      14 UNK        -0.0827 
     14 C14       -53.3975  -26.0913   10.8568 C.ar      14 UNK        -0.1249 
     15 C15       -54.6658  -28.0920    9.9699 C.3       14 UNK         0.0141 
     16 S16       -56.0351  -28.2058   11.1632 S.3       14 UNK        -0.2313 
     17 C17       -57.2472  -29.1690   10.1924 C.3       14 UNK        -0.0915 
     18 CA        -57.6059  -30.5445   10.8168 C.3       13 UNK         0.0968 
     19 C         -56.4112  -31.5425   10.7980 C.2       13 UNK         0.5732 
     20 N         -56.0572  -32.0536    9.6260 N.am      13 UNK        -0.7310 
     21 O         -55.7882  -31.8387   11.8158 O.2       13 UNK        -0.5035 
     22 N         -58.2339  -30.3716   12.1334 N.am      13 UNK        -0.4233 
     23 C         -58.8852  -31.3183   12.8203 C.2       13 UNK         0.4989 
     24 O         -59.0668  -32.4618   12.3974 O.2       13 UNK        -0.4996 
     25 CA        -59.4937  -30.9107   14.1802 C.3       12 UNK         0.0216 
     26 CB        -59.4390  -32.0531   15.2184 C.3       12 UNK        -0.1964 
     27 N         -58.9673  -29.6527   14.7361 N.am      12 UNK        -0.4276 
     28 C         -57.7297  -29.4183   15.1952 C.2       12 UNK         0.5020 
     29 O         -56.8268  -30.2585   15.2351 O.2       12 UNK        -0.5489 
     30 CA        -57.4597  -27.9962   15.7020 C.3       11 UNK         0.0294 
     31 CB        -58.0694  -27.7725   17.0978 C.3       11 UNK        -0.2019 
     32 N         -56.0158  -27.7978   15.7604 N.am      11 UNK        -0.4493 
     33 C         -55.3769  -26.6479   15.5340 C.2       11 UNK         0.4932 
     34 O         -55.9448  -25.5759   15.3036 O.2       11 UNK        -0.5029 
     35 CA        -53.8441  -26.7111   15.5642 C.3       10 UNK         0.0280 
     36 CB        -53.2986  -27.6262   14.4505 C.3       10 UNK        -0.1976 
     37 N         -53.3219  -25.3553   15.4147 N.am      10 UNK        -0.4242 
     38 C         -52.0881  -24.9509   15.7259 C.2       10 UNK         0.5072 
     39 O         -51.2087  -25.6896   16.1768 O.2       10 UNK        -0.5224 
     40 CA        -51.7875  -23.4619   15.5230 C.3       9 UNK         0.0343 
     41 CB        -52.2286  -22.6347   16.7440 C.3       9 UNK        -0.2003 
     42 N         -50.3509  -23.3133   15.3151 N.am      9 UNK        -0.4272 
     43 C         -49.7481  -22.3326   14.6330 C.2       9 UNK         0.4988 
     44 O         -50.3521  -21.4004   14.1018 O.2       9 UNK        -0.5108 
     45 CA        -48.2113  -22.3846   14.5305 C.3       8 UNK         0.0248 
     46 CB        -47.5760  -21.4231   15.5489 C.3       8 UNK        -0.2001 
     47 N         -47.6606  -23.7297   14.7305 N.am      8 UNK        -0.4140 
     48 C         -47.6870  -24.6959   13.8045 C.2       8 UNK         0.5028 
     49 O         -48.1251  -24.5439   12.6620 O.2       8 UNK        -0.5428 
     50 CA        -47.1645  -26.0703   14.2350 C.3       7 UNK         0.0264 
     51 CB        -48.1763  -26.7590   15.1748 C.3       7 UNK        -0.1988 
     52 N         -46.9467  -26.8700   13.0320 N.am      7 UNK        -0.4454 
     53 C         -46.3109  -28.0455   12.9668 C.2       7 UNK         0.5027 
     54 O         -45.8143  -28.6096   13.9433 O.2       7 UNK        -0.5083 
     55 CA        -46.1952  -28.7055   11.5788 C.3       6 UNK         0.0844 
     56 C56       -47.4456  -29.5566   11.2289 C.3       14 UNK        -0.0967 
     57 S57       -48.8290  -28.5943   10.5183 S.3       14 UNK        -0.2604 
     58 C58       -50.0096  -28.5513   11.8938 C.3       14 UNK         0.0134 
     59 N         -45.8751  -27.7455   10.5222 N.am      6 UNK        -0.4116 
     60 C         -44.7042  -27.1237   10.3407 C.2       5 UNK         0.5034 
     61 O         -43.7284  -27.2698   11.0786 O.2       5 UNK        -0.5045 
     62 CA        -44.6191  -26.1849    9.1197 C.3       5 UNK         0.0224 
     63 CB        -43.1779  -25.9860    8.6053 C.3       5 UNK        -0.1978 
     64 N         -45.5242  -26.5752    8.0285 N.am      5 UNK        -0.4737 
     65 C         -45.4941  -27.7002    7.2957 C.2       4 UNK         0.5027 
     66 O         -44.6412  -28.5800    7.4121 O.2       4 UNK        -0.5211 
     67 CA        -46.6241  -27.8852    6.2688 C.3       4 UNK         0.0297 
     68 CB        -47.8412  -28.5474    6.9286 C.3       4 UNK        -0.1993 
     69 N         -47.0267  -26.6165    5.6575 N.am      4 UNK        -0.4486 
     70 C         -46.3389  -26.0163    4.6754 C.2       3 UNK         0.4961 
     71 O         -45.3670  -26.5175    4.1087 O.2       3 UNK        -0.5105 
     72 CA        -46.7927  -24.6024    4.2792 C.3       3 UNK         0.0299 
     73 CB        -48.0590  -24.6496    3.4086 C.3       3 UNK        -0.1972 
     74 N         -47.0233  -23.7572    5.4521 N.am      3 UNK        -0.4305 
     75 C         -46.0583  -23.3250    6.2799 C.2       2 UNK         0.5006 
     76 O         -44.8575  -23.5194    6.0903 O.2       2 UNK        -0.5106 
     77 CA        -46.4920  -22.5429    7.5341 C.3       2 UNK         0.0296 
     78 CB        -46.2371  -21.0384    7.3452 C.3       2 UNK        -0.2002 
     79 N         -47.8950  -22.7491    7.9044 N.am      2 UNK        -0.4032 
     80 C         -48.3963  -23.8932    8.3902 C.2       1 UNK         0.5000 
     81 O         -47.7149  -24.8973    8.6148 O.2       1 UNK        -0.5238 
     82 H82       -52.2670  -27.1747    7.8020 H         1 UNK         0.0889 
     83 H83       -50.7749  -27.9790    8.3030 H         1 UNK         0.0889 
     84 H84       -51.1863  -27.8667    6.5905 H         1 UNK         0.0889 
     85 H85       -50.9992  -25.5574    9.3682 H         1 UNK         0.3028 
     86 H86       -50.3810  -23.2897    7.8772 H         1 UNK         0.0864 
     87 H87       -49.7477  -22.2606   10.0983 H         1 UNK         0.0720 
     88 H88       -49.7907  -23.8398   10.8298 H         1 UNK         0.0720 
     89 H89       -53.2316  -23.7515   12.2289 H         1 UNK         0.0814 
     90 H90       -51.5111  -23.7923   12.5238 H         1 UNK         0.0814 
     91 H91       -50.3123  -25.8711   12.2594 H         1 UNK         0.1469 
     92 H92       -52.3539  -29.3209   10.7447 H         1 UNK         0.1381 
     93 H93       -54.2505  -25.4764   10.6035 H         1 UNK         0.1206 
     94 H94       -54.9804  -27.4968    9.1113 H         1 UNK         0.0813 
     95 H95       -54.4329  -29.0883    9.5902 H         1 UNK         0.0813 
     96 H96       -56.8876  -29.2983    9.1702 H         1 UNK         0.0638 
     97 H97       -58.1509  -28.5644   10.1024 H         1 UNK         0.0638 
     98 H98       -58.3740  -30.9893   10.1811 H         1 UNK         0.0568 
     99 H99       -55.2813  -32.6957    9.5886 H         1 UNK         0.3450 
    100 H100      -56.5549  -31.8206    8.7811 H         1 UNK         0.3450 
    101 H101      -58.0956  -29.4719   12.5662 H         1 UNK         0.2987 
    102 H102      -60.5478  -30.7181   13.9749 H         1 UNK         0.0766 
    103 H103      -58.4160  -32.3746   15.4155 H         1 UNK         0.0798 
    104 H104      -59.9890  -32.9275   14.8684 H         1 UNK         0.0798 
    105 H105      -59.8852  -31.7512   16.1660 H         1 UNK         0.0798 
    106 H106      -59.6275  -28.8862   14.7532 H         1 UNK         0.3198 
    107 H107      -57.8979  -27.2917   14.9910 H         1 UNK         0.0843 
    108 H108      -57.6622  -28.4703   17.8306 H         1 UNK         0.0831 
    109 H109      -59.1514  -27.9079   17.0837 H         1 UNK         0.0831 
    110 H110      -57.8764  -26.7612   17.4565 H         1 UNK         0.0831 
    111 H111      -55.4912  -28.6593   15.8593 H         1 UNK         0.3133 
    112 H112      -53.5406  -27.0995   16.5385 H         1 UNK         0.0566 
    113 H113      -53.6496  -27.3042   13.4707 H         1 UNK         0.0814 
    114 H114      -53.6212  -28.6588   14.5856 H         1 UNK         0.0814 
    115 H115      -52.2089  -27.6334   14.4296 H         1 UNK         0.0814 
    116 H116      -54.0213  -24.6862   15.1143 H         1 UNK         0.3091 
    117 H117      -52.3241  -23.1128   14.6392 H         1 UNK         0.0702 
    118 H118      -52.0271  -21.5733   16.5980 H         1 UNK         0.0785 
    119 H119      -51.7124  -22.9515   17.6512 H         1 UNK         0.0785 
    120 H120      -53.2995  -22.7386   16.9229 H         1 UNK         0.0785 
    121 H121      -49.8023  -24.0784   15.6864 H         1 UNK         0.2998 
    122 H122      -47.9400  -22.0442   13.5286 H         1 UNK         0.0697 
    123 H123      -47.8072  -21.7096   16.5757 H         1 UNK         0.0825 
    124 H124      -46.4914  -21.3921   15.4434 H         1 UNK         0.0825 
    125 H125      -47.9424  -20.4055   15.4052 H         1 UNK         0.0825 
    126 H126      -47.2755  -23.9328   15.6422 H         1 UNK         0.3029 
    127 H127      -46.2084  -25.9392   14.7462 H         1 UNK         0.0897 
    128 H128      -49.1566  -26.8591   14.7080 H         1 UNK         0.0792 
    129 H129      -48.3156  -26.1868   16.0925 H         1 UNK         0.0792 
    130 H130      -47.8464  -27.7537   15.4732 H         1 UNK         0.0792 
    131 H131      -47.3135  -26.4424   12.1887 H         1 UNK         0.3086 
    132 H132      -45.3505  -29.3952   11.6425 H         1 UNK         0.0583 
    133 H133      -47.1638  -30.2988   10.4803 H         1 UNK         0.1020 
    134 H134      -47.7871  -30.1375   12.0883 H         1 UNK         0.1020 
    135 H135      -50.3331  -29.5662   12.1298 H         1 UNK         0.0694 
    136 H136      -49.5212  -28.1646   12.7876 H         1 UNK         0.0694 
    137 H137      -46.6236  -27.5488    9.8729 H         1 UNK         0.2989 
    138 H138      -44.9767  -25.2155    9.4707 H         1 UNK         0.1055 
    139 H139      -42.5433  -25.5497    9.3775 H         1 UNK         0.0806 
    140 H140      -43.1543  -25.3117    7.7489 H         1 UNK         0.0806 
    141 H141      -42.7202  -26.9286    8.3041 H         1 UNK         0.0806 
    142 H142      -46.3243  -25.9560    7.9132 H         1 UNK         0.3061 
    143 H143      -46.2602  -28.5554    5.4867 H         1 UNK         0.0734 
    144 H144      -48.6336  -28.7363    6.2045 H         1 UNK         0.0832 
    145 H145      -47.5727  -29.5052    7.3766 H         1 UNK         0.0832 
    146 H146      -48.2502  -27.9215    7.7205 H         1 UNK         0.0832 
    147 H147      -47.8459  -26.1548    6.0403 H         1 UNK         0.3156 
    148 H148      -45.9949  -24.1478    3.6878 H         1 UNK         0.0589 
    149 H149      -48.9089  -25.0717    3.9460 H         1 UNK         0.0808 
    150 H150      -48.3408  -23.6544    3.0644 H         1 UNK         0.0808 
    151 H151      -47.8977  -25.2641    2.5219 H         1 UNK         0.0808 
    152 H152      -47.9847  -23.5555    5.6842 H         1 UNK         0.3098 
    153 H153      -45.8711  -22.8921    8.3621 H         1 UNK         0.0720 
    154 H154      -46.4624  -20.4797    8.2539 H         1 UNK         0.0791 
    155 H155      -46.8398  -20.6241    6.5359 H         1 UNK         0.0791 
    156 H156      -45.1907  -20.8473    7.1021 H         1 UNK         0.0791 
    157 H157      -48.5165  -21.9659    7.7590 H         1 UNK         0.3028 
@<TRIPOS>BOND
     1    1    2 1    
     2    1   82 1    
     3    1   83 1    
     4    1   84 1    
     5    2    3 2    
     6    2    4 am   BACKBONE|DICT|INTERRES
     7    4    5 1    
     8    4   85 1    
     9    5    6 1    
    10    5   80 1    
    11    5   86 1    
    12    6    7 1    
    13    6   87 1    
    14    6   88 1    
    15    7    8 1    
    16    8    9 1    
    17    8   89 1    
    18    8   90 1    
    19    9   10 ar   
    20    9   14 ar   
    21   10   11 ar   
    22   10   91 1    
    23   11   12 ar   
    24   11   58 1    
    25   12   13 ar   
    26   12   92 1    
    27   13   14 ar   
    28   13   15 1    
    29   14   93 1    
    30   15   16 1    
    31   15   94 1    
    32   15   95 1    
    33   16   17 1    
    34   17   18 1    
    35   17   96 1    
    36   17   97 1    
    37   18   19 1    
    38   18   22 1    
    39   18   98 1    
    40   19   20 am   BACKBONE|DICT|INTERRES
    41   19   21 2    
    42   20   99 1    
    43   20  100 1    
    44   22   23 am   BACKBONE|DICT|INTERRES
    45   22  101 1    
    46   23   24 2    
    47   23   25 1    
    48   25   26 1    
    49   25   27 1    
    50   25  102 1    
    51   26  103 1    
    52   26  104 1    
    53   26  105 1    
    54   27   28 am   BACKBONE|DICT|INTERRES
    55   27  106 1    
    56   28   29 2    
    57   28   30 1    
    58   30   31 1    
    59   30   32 1    
    60   30  107 1    
    61   31  108 1    
    62   31  109 1    
    63   31  110 1    
    64   32   33 am   BACKBONE|DICT|INTERRES
    65   32  111 1    
    66   33   34 2    
    67   33   35 1    
    68   35   36 1    
    69   35   37 1    
    70   35  112 1    
    71   36  113 1    
    72   36  114 1    
    73   36  115 1    
    74   37   38 am   BACKBONE|DICT|INTERRES
    75   37  116 1    
    76   38   39 2    
    77   38   40 1    
    78   40   41 1    
    79   40   42 1    
    80   40  117 1    
    81   41  118 1    
    82   41  119 1    
    83   41  120 1    
    84   42   43 am   BACKBONE|DICT|INTERRES
    85   42  121 1    
    86   43   44 2    
    87   43   45 1    
    88   45   46 1    
    89   45   47 1    
    90   45  122 1    
    91   46  123 1    
    92   46  124 1    
    93   46  125 1    
    94   47   48 am   BACKBONE|DICT|INTERRES
    95   47  126 1    
    96   48   49 2    
    97   48   50 1    
    98   50   51 1    
    99   50   52 1    
   100   50  127 1    
   101   51  128 1    
   102   51  129 1    
   103   51  130 1    
   104   52   53 am   BACKBONE|DICT|INTERRES
   105   52  131 1    
   106   53   54 2    
   107   53   55 1    
   108   55   56 1    
   109   55   59 1    
   110   55  132 1    
   111   56   57 1    
   112   56  133 1    
   113   56  134 1    
   114   57   58 1    
   115   58  135 1    
   116   58  136 1    
   117   59   60 am   BACKBONE|DICT|INTERRES
   118   59  137 1    
   119   60   61 2    
   120   60   62 1    
   121   62   63 1    
   122   62   64 1    
   123   62  138 1    
   124   63  139 1    
   125   63  140 1    
   126   63  141 1    
   127   64   65 am   BACKBONE|DICT|INTERRES
   128   64  142 1    
   129   65   66 2    
   130   65   67 1    
   131   67   68 1    
   132   67   69 1    
   133   67  143 1    
   134   68  144 1    
   135   68  145 1    
   136   68  146 1    
   137   69   70 am   BACKBONE|DICT|INTERRES
   138   69  147 1    
   139   70   71 2    
   140   70   72 1    
   141   72   73 1    
   142   72   74 1    
   143   72  148 1    
   144   73  149 1    
   145   73  150 1    
   146   73  151 1    
   147   74   75 am   BACKBONE|DICT|INTERRES
   148   74  152 1    
   149   75   76 2    
   150   75   77 1    
   151   77   78 1    
   152   77   79 1    
   153   77  153 1    
   154   78  154 1    
   155   78  155 1    
   156   78  156 1    
   157   79   80 am   BACKBONE|DICT|INTERRES
   158   79  157 1    
   159   80   81 2    
@<TRIPOS>SUBSTRUCTURE
     1 UNK         1 GROUP             0       ****    0 ROOT    
