@<TRIPOS>MOLECULE
3R207
157   159    1
SMALL
USER_CHARGES


@<TRIPOS>ATOM
      1 CA        -50.2910  -30.9665    6.6243 C.3       0 UNK        -0.1975 
      2 C         -51.2958  -29.9716    7.2014 C.2       0 UNK         0.4852 
      3 O         -51.6511  -30.0964    8.3685 O.2       0 UNK        -0.5216 
      4 N         -51.7857  -28.9826    6.4380 N.am      1 UNK        -0.4461 
      5 CA        -51.4596  -28.6952    5.0325 C.3       1 UNK         0.0864 
      6 C6        -52.4737  -27.7196    4.3862 C.3       14 UNK        -0.0898 
      7 S7        -54.1689  -28.3946    4.3864 S.3       14 UNK        -0.2598 
      8 C8        -55.0999  -27.1012    5.2703 C.3       14 UNK         0.0286 
      9 C9        -54.6384  -26.9204    6.7108 C.ar      14 UNK        -0.0844 
     10 C10       -54.1139  -25.6963    7.1336 C.ar      14 UNK        -0.0881 
     11 C11       -53.7186  -25.5145    8.4611 C.ar      14 UNK        -0.0643 
     12 C12       -53.8372  -26.5747    9.3677 C.ar      14 UNK        -0.0930 
     13 C13       -54.3643  -27.8083    8.9600 C.ar      14 UNK        -0.0827 
     14 C14       -54.7683  -27.9647    7.6302 C.ar      14 UNK        -0.1249 
     15 C15       -54.5785  -28.9779    9.9229 C.3       14 UNK         0.0141 
     16 S16       -53.4850  -29.0165   11.3835 S.3       14 UNK        -0.2313 
     17 C17       -54.1976  -30.4365   12.2864 C.3       14 UNK        -0.0915 
     18 CA        -53.2056  -31.5799   12.6386 C.3       13 UNK         0.0968 
     19 C         -52.6847  -32.3565   11.3890 C.2       13 UNK         0.5732 
     20 N         -51.3876  -32.5264   11.1871 N.am      13 UNK        -0.7310 
     21 O         -53.4892  -32.8722   10.6158 O.2       13 UNK        -0.5035 
     22 N         -52.2706  -31.2048   13.7198 N.am      13 UNK        -0.4233 
     23 C         -51.0712  -30.6117   13.6749 C.2       13 UNK         0.4989 
     24 O         -50.4542  -30.3462   12.6449 O.2       13 UNK        -0.4996 
     25 CA        -50.4651  -30.2412   15.0412 C.3       12 UNK         0.0216 
     26 CB        -49.0109  -29.7447   14.9340 C.3       12 UNK        -0.1964 
     27 N         -51.2731  -29.2087   15.6907 N.am      12 UNK        -0.4276 
     28 C         -52.4008  -29.4278   16.3809 C.2       12 UNK         0.5020 
     29 O         -52.8601  -30.5506   16.5972 O.2       12 UNK        -0.5489 
     30 CA        -53.1610  -28.1853   16.8681 C.3       11 UNK         0.0294 
     31 CB        -52.5959  -27.6907   18.2090 C.3       11 UNK        -0.2019 
     32 N         -53.0973  -27.1125   15.8727 N.am      11 UNK        -0.4493 
     33 C         -53.8871  -27.0525   14.7879 C.2       11 UNK         0.4932 
     34 O         -54.8303  -27.8215   14.6014 O.2       11 UNK        -0.5029 
     35 CA        -53.5676  -25.9742   13.7297 C.3       10 UNK         0.0280 
     36 CB        -54.8088  -25.5216   12.9311 C.3       10 UNK        -0.1976 
     37 N         -52.8298  -24.8292   14.2732 N.am      10 UNK        -0.4242 
     38 C         -53.2547  -23.9716   15.2148 C.2       10 UNK         0.5072 
     39 O         -54.4047  -23.9593   15.6574 O.2       10 UNK        -0.5224 
     40 CA        -52.2234  -22.9747   15.7821 C.3       9 UNK         0.0343 
     41 CB        -52.4916  -22.6451   17.2660 C.3       9 UNK        -0.2003 
     42 N         -50.8190  -23.3660   15.6048 N.am      9 UNK        -0.4272 
     43 C         -50.2000  -24.4756   16.0386 C.2       9 UNK         0.4988 
     44 O         -50.7922  -25.4060   16.5881 O.2       9 UNK        -0.5108 
     45 CA        -48.6770  -24.5794   15.7961 C.3       8 UNK         0.0248 
     46 CB        -48.2090  -26.0413   15.6772 C.3       8 UNK        -0.2001 
     47 N         -48.2429  -23.8435   14.6047 N.am      8 UNK        -0.4140 
     48 C         -47.9879  -22.5288   14.5467 C.2       8 UNK         0.5028 
     49 O         -47.9866  -21.7895   15.5308 O.2       8 UNK        -0.5428 
     50 CA        -47.7793  -21.9207   13.1488 C.3       7 UNK         0.0264 
     51 CB        -46.2943  -21.9693   12.7570 C.3       7 UNK        -0.1988 
     52 N         -48.5863  -22.5787   12.1149 N.am      7 UNK        -0.4454 
     53 C         -49.9283  -22.5931   12.0727 C.2       7 UNK         0.5027 
     54 O         -50.6385  -21.9622   12.8561 O.2       7 UNK        -0.5083 
     55 CA        -50.5938  -23.5143   11.0299 C.3       6 UNK         0.0844 
     56 C56       -50.8316  -22.7923    9.6801 C.3       14 UNK        -0.0967 
     57 S57       -51.4719  -23.9105    8.3831 S.3       14 UNK        -0.2604 
     58 C58       -53.1922  -24.1618    8.9181 C.3       14 UNK         0.0134 
     59 N         -49.8675  -24.7746   10.8737 N.am      6 UNK        -0.4116 
     60 C         -49.8110  -25.7422   11.7959 C.2       5 UNK         0.5034 
     61 O         -50.3492  -25.6736   12.9009 O.2       5 UNK        -0.5045 
     62 CA        -48.9724  -26.9722   11.4276 C.3       5 UNK         0.0224 
     63 CB        -49.7729  -27.9198   10.5212 C.3       5 UNK        -0.1978 
     64 N         -47.7222  -26.5873   10.7684 N.am      5 UNK        -0.4737 
     65 C         -46.6992  -25.9922   11.3991 C.2       4 UNK         0.5027 
     66 O         -46.6867  -25.7603   12.6075 O.2       4 UNK        -0.5211 
     67 CA        -45.5046  -25.5475   10.5362 C.3       4 UNK         0.0297 
     68 CB        -44.4900  -26.6927   10.3934 C.3       4 UNK        -0.1993 
     69 N         -45.8924  -25.0695    9.2062 N.am      4 UNK        -0.4486 
     70 C         -46.6598  -23.9949    8.9741 C.2       3 UNK         0.4961 
     71 O         -47.0984  -23.2639    9.8591 O.2       3 UNK        -0.5105 
     72 CA        -47.0465  -23.7070    7.5140 C.3       3 UNK         0.0299 
     73 CB        -46.0303  -22.7517    6.8691 C.3       3 UNK        -0.1972 
     74 N         -47.1934  -24.9054    6.6807 N.am      3 UNK        -0.4305 
     75 C         -48.0430  -25.9110    6.9286 C.2       2 UNK         0.5006 
     76 O         -48.7466  -25.9904    7.9383 O.2       2 UNK        -0.5106 
     77 CA        -48.0789  -27.0411    5.9004 C.3       2 UNK         0.0296 
     78 CB        -47.0606  -28.1389    6.2573 C.3       2 UNK        -0.2002 
     79 N         -49.4255  -27.5988    5.8897 N.am      2 UNK        -0.4032 
     80 C         -50.0209  -28.1718    4.8375 C.2       1 UNK         0.5000 
     81 O         -49.4760  -28.3148    3.7415 O.2       1 UNK        -0.5238 
     82 H82       -49.3118  -30.5042    6.5057 H         1 UNK         0.0889 
     83 H83       -50.6180  -31.3593    5.6628 H         1 UNK         0.0889 
     84 H84       -50.1742  -31.8155    7.2977 H         1 UNK         0.0889 
     85 H85       -52.4815  -28.3719    6.8469 H         1 UNK         0.3028 
     86 H86       -51.5249  -29.6331    4.4784 H         1 UNK         0.0864 
     87 H87       -52.2071  -27.5229    3.3457 H         1 UNK         0.0720 
     88 H88       -52.4528  -26.7519    4.8905 H         1 UNK         0.0720 
     89 H89       -56.1575  -27.3682    5.2702 H         1 UNK         0.0814 
     90 H90       -55.0223  -26.1661    4.7133 H         1 UNK         0.0814 
     91 H91       -54.0206  -24.8762    6.4347 H         1 UNK         0.1469 
     92 H92       -53.5341  -26.4277   10.3942 H         1 UNK         0.1381 
     93 H93       -55.1909  -28.9060    7.3050 H         1 UNK         0.1206 
     94 H94       -54.4469  -29.9196    9.3867 H         1 UNK         0.0813 
     95 H95       -55.6150  -28.9500   10.2610 H         1 UNK         0.0813 
     96 H96       -54.6439  -30.0519   13.2035 H         1 UNK         0.0638 
     97 H97       -55.0349  -30.8436   11.7173 H         1 UNK         0.0638 
     98 H98       -53.8172  -32.3353   13.1335 H         1 UNK         0.0568 
     99 H99       -51.0699  -33.0360   10.3794 H         1 UNK         0.3450 
    100 H100      -50.7435  -31.9660   11.7343 H         1 UNK         0.3450 
    101 H101      -52.6443  -31.3466   14.6515 H         1 UNK         0.2987 
    102 H102      -50.4633  -31.1412   15.6602 H         1 UNK         0.0766 
    103 H103      -48.5976  -29.5073   15.9145 H         1 UNK         0.0798 
    104 H104      -48.9327  -28.8536   14.3121 H         1 UNK         0.0798 
    105 H105      -48.3712  -30.5078   14.4889 H         1 UNK         0.0798 
    106 H106      -50.9964  -28.2511   15.5296 H         1 UNK         0.3198 
    107 H107      -54.2049  -28.4661   17.0252 H         1 UNK         0.0843 
    108 H108      -53.1212  -26.8011   18.5570 H         1 UNK         0.0831 
    109 H109      -51.5351  -27.4472   18.1406 H         1 UNK         0.0831 
    110 H110      -52.7038  -28.4547   18.9800 H         1 UNK         0.0831 
    111 H111      -52.3594  -26.4225   15.9924 H         1 UNK         0.3133 
    112 H112      -52.8901  -26.4527   13.0223 H         1 UNK         0.0566 
    113 H113      -54.5522  -24.7606   12.1946 H         1 UNK         0.0814 
    114 H114      -55.2488  -26.3601   12.3896 H         1 UNK         0.0814 
    115 H115      -55.5841  -25.1147   13.5804 H         1 UNK         0.0814 
    116 H116      -51.8566  -24.7838   13.9867 H         1 UNK         0.3091 
    117 H117      -52.3524  -22.0556   15.2089 H         1 UNK         0.0702 
    118 H118      -51.7707  -21.9226   17.6487 H         1 UNK         0.0785 
    119 H119      -52.4378  -23.5369   17.8917 H         1 UNK         0.0785 
    120 H120      -53.4830  -22.2110   17.4018 H         1 UNK         0.0785 
    121 H121      -50.2547  -22.6869   15.1110 H         1 UNK         0.2998 
    122 H122      -48.1905  -24.1468   16.6724 H         1 UNK         0.0697 
    123 H123      -47.1305  -26.1018   15.5307 H         1 UNK         0.0825 
    124 H124      -48.4449  -26.6093   16.5780 H         1 UNK         0.0825 
    125 H125      -48.6863  -26.5439   14.8368 H         1 UNK         0.0825 
    126 H126      -48.1994  -24.3781   13.7459 H         1 UNK         0.3029 
    127 H127      -48.0881  -20.8742   13.1945 H         1 UNK         0.0897 
    128 H128      -46.1197  -21.4742   11.8015 H         1 UNK         0.0792 
    129 H129      -45.6766  -21.4646   13.5012 H         1 UNK         0.0792 
    130 H130      -45.9334  -22.9949   12.6734 H         1 UNK         0.0792 
    131 H131      -48.0701  -23.0447   11.3692 H         1 UNK         0.3086 
    132 H132      -51.5714  -23.7704   11.4419 H         1 UNK         0.0583 
    133 H133      -51.5243  -21.9579    9.8066 H         1 UNK         0.1020 
    134 H134      -49.8991  -22.3609    9.3102 H         1 UNK         0.1020 
    135 H135      -53.2717  -24.0832   10.0019 H         1 UNK         0.0694 
    136 H136      -53.8135  -23.3631    8.5104 H         1 UNK         0.0694 
    137 H137      -49.4194  -24.9303    9.9793 H         1 UNK         0.2989 
    138 H138      -48.7299  -27.5032   12.3499 H         1 UNK         0.1055 
    139 H139      -50.6817  -28.2508   11.0226 H         1 UNK         0.0806 
    140 H140      -49.2030  -28.8148   10.2720 H         1 UNK         0.0806 
    141 H141      -50.0835  -27.4455    9.5906 H         1 UNK         0.0806 
    142 H142      -47.6956  -26.6721    9.7598 H         1 UNK         0.3061 
    143 H143      -45.0149  -24.7206   11.0549 H         1 UNK         0.0734 
    144 H144      -43.5954  -26.3680    9.8616 H         1 UNK         0.0832 
    145 H145      -44.1696  -27.0523   11.3724 H         1 UNK         0.0832 
    146 H146      -44.9118  -27.5435    9.8566 H         1 UNK         0.0832 
    147 H147      -45.5796  -25.6110    8.4139 H         1 UNK         0.3156 
    148 H148      -48.0177  -23.2077    7.5323 H         1 UNK         0.0589 
    149 H149      -45.0426  -23.2069    6.7858 H         1 UNK         0.0808 
    150 H150      -46.3471  -22.4481    5.8712 H         1 UNK         0.0808 
    151 H151      -45.9205  -21.8419    7.4615 H         1 UNK         0.0808 
    152 H152      -46.6405  -24.9361    5.8357 H         1 UNK         0.3098 
    153 H153      -47.8460  -26.6270    4.9168 H         1 UNK         0.0720 
    154 H154      -46.0449  -27.7422    6.2788 H         1 UNK         0.0791 
    155 H155      -47.0757  -28.9462    5.5248 H         1 UNK         0.0791 
    156 H156      -47.2646  -28.5735    7.2370 H         1 UNK         0.0791 
    157 H157      -49.9449  -27.4608    6.7485 H         1 UNK         0.3028 
@<TRIPOS>BOND
     1    1    2 1    
     2    1   82 1    
     3    1   83 1    
     4    1   84 1    
     5    2    3 2    
     6    2    4 am   BACKBONE|DICT|INTERRES
     7    4    5 1    
     8    4   85 1    
     9    5    6 1    
    10    5   80 1    
    11    5   86 1    
    12    6    7 1    
    13    6   87 1    
    14    6   88 1    
    15    7    8 1    
    16    8    9 1    
    17    8   89 1    
    18    8   90 1    
    19    9   10 ar   
    20    9   14 ar   
    21   10   11 ar   
    22   10   91 1    
    23   11   12 ar   
    24   11   58 1    
    25   12   13 ar   
    26   12   92 1    
    27   13   14 ar   
    28   13   15 1    
    29   14   93 1    
    30   15   16 1    
    31   15   94 1    
    32   15   95 1    
    33   16   17 1    
    34   17   18 1    
    35   17   96 1    
    36   17   97 1    
    37   18   19 1    
    38   18   22 1    
    39   18   98 1    
    40   19   20 am   BACKBONE|DICT|INTERRES
    41   19   21 2    
    42   20   99 1    
    43   20  100 1    
    44   22   23 am   BACKBONE|DICT|INTERRES
    45   22  101 1    
    46   23   24 2    
    47   23   25 1    
    48   25   26 1    
    49   25   27 1    
    50   25  102 1    
    51   26  103 1    
    52   26  104 1    
    53   26  105 1    
    54   27   28 am   BACKBONE|DICT|INTERRES
    55   27  106 1    
    56   28   29 2    
    57   28   30 1    
    58   30   31 1    
    59   30   32 1    
    60   30  107 1    
    61   31  108 1    
    62   31  109 1    
    63   31  110 1    
    64   32   33 am   BACKBONE|DICT|INTERRES
    65   32  111 1    
    66   33   34 2    
    67   33   35 1    
    68   35   36 1    
    69   35   37 1    
    70   35  112 1    
    71   36  113 1    
    72   36  114 1    
    73   36  115 1    
    74   37   38 am   BACKBONE|DICT|INTERRES
    75   37  116 1    
    76   38   39 2    
    77   38   40 1    
    78   40   41 1    
    79   40   42 1    
    80   40  117 1    
    81   41  118 1    
    82   41  119 1    
    83   41  120 1    
    84   42   43 am   BACKBONE|DICT|INTERRES
    85   42  121 1    
    86   43   44 2    
    87   43   45 1    
    88   45   46 1    
    89   45   47 1    
    90   45  122 1    
    91   46  123 1    
    92   46  124 1    
    93   46  125 1    
    94   47   48 am   BACKBONE|DICT|INTERRES
    95   47  126 1    
    96   48   49 2    
    97   48   50 1    
    98   50   51 1    
    99   50   52 1    
   100   50  127 1    
   101   51  128 1    
   102   51  129 1    
   103   51  130 1    
   104   52   53 am   BACKBONE|DICT|INTERRES
   105   52  131 1    
   106   53   54 2    
   107   53   55 1    
   108   55   56 1    
   109   55   59 1    
   110   55  132 1    
   111   56   57 1    
   112   56  133 1    
   113   56  134 1    
   114   57   58 1    
   115   58  135 1    
   116   58  136 1    
   117   59   60 am   BACKBONE|DICT|INTERRES
   118   59  137 1    
   119   60   61 2    
   120   60   62 1    
   121   62   63 1    
   122   62   64 1    
   123   62  138 1    
   124   63  139 1    
   125   63  140 1    
   126   63  141 1    
   127   64   65 am   BACKBONE|DICT|INTERRES
   128   64  142 1    
   129   65   66 2    
   130   65   67 1    
   131   67   68 1    
   132   67   69 1    
   133   67  143 1    
   134   68  144 1    
   135   68  145 1    
   136   68  146 1    
   137   69   70 am   BACKBONE|DICT|INTERRES
   138   69  147 1    
   139   70   71 2    
   140   70   72 1    
   141   72   73 1    
   142   72   74 1    
   143   72  148 1    
   144   73  149 1    
   145   73  150 1    
   146   73  151 1    
   147   74   75 am   BACKBONE|DICT|INTERRES
   148   74  152 1    
   149   75   76 2    
   150   75   77 1    
   151   77   78 1    
   152   77   79 1    
   153   77  153 1    
   154   78  154 1    
   155   78  155 1    
   156   78  156 1    
   157   79   80 am   BACKBONE|DICT|INTERRES
   158   79  157 1    
   159   80   81 2    
@<TRIPOS>SUBSTRUCTURE
     1 UNK         1 GROUP             0       ****    0 ROOT    
