@<TRIPOS>MOLECULE
3R207
157   159    1
SMALL
USER_CHARGES


@<TRIPOS>ATOM
      1 CA        -54.4190  -24.5807    8.7000 C.3       0 UNK        -0.1975 
      2 C         -53.1424  -25.3930    8.5465 C.2       0 UNK         0.4852 
      3 O         -52.8065  -26.1652    9.4414 O.2       0 UNK        -0.5216 
      4 N         -52.4344  -25.2257    7.4211 N.am      1 UNK        -0.4461 
      5 CA        -51.1812  -25.9241    7.1191 C.3       1 UNK         0.0864 
      6 C6        -50.9217  -25.9755    5.5901 C.3       14 UNK        -0.0898 
      7 S7        -49.6979  -27.2395    5.1045 S.3       14 UNK        -0.2598 
      8 C8        -50.7717  -28.6577    4.6984 C.3       14 UNK         0.0286 
      9 C9        -51.5134  -29.1560    5.9293 C.ar      14 UNK        -0.0844 
     10 C10       -50.8369  -29.9089    6.8921 C.ar      14 UNK        -0.0881 
     11 C11       -51.4809  -30.2875    8.0706 C.ar      14 UNK        -0.0643 
     12 C12       -52.8206  -29.9464    8.2599 C.ar      14 UNK        -0.0930 
     13 C13       -53.5178  -29.1893    7.3113 C.ar      14 UNK        -0.0827 
     14 C14       -52.8533  -28.8108    6.1396 C.ar      14 UNK        -0.1249 
     15 C15       -54.9562  -28.7026    7.5221 C.3       14 UNK         0.0141 
     16 S16       -55.9183  -29.5032    8.8572 S.3       14 UNK        -0.2313 
     17 C17       -55.2019  -28.7781   10.3788 C.3       14 UNK        -0.0915 
     18 CA        -55.3021  -29.7005   11.6284 C.3       13 UNK         0.0968 
     19 C         -54.6476  -31.1007   11.4254 C.2       13 UNK         0.5732 
     20 N         -55.4244  -32.1119   11.0614 N.am      13 UNK        -0.7310 
     21 O         -53.4396  -31.2674   11.5785 O.2       13 UNK        -0.5035 
     22 N         -54.7458  -29.0219   12.8071 N.am      13 UNK        -0.4233 
     23 C         -54.8124  -29.4983   14.0583 C.2       13 UNK         0.4989 
     24 O         -55.4946  -30.4685   14.3921 O.2       13 UNK        -0.4996 
     25 CA        -53.9596  -28.7870   15.1198 C.3       12 UNK         0.0216 
     26 CB        -52.5674  -29.4364   15.1960 C.3       12 UNK        -0.1964 
     27 N         -53.8155  -27.3471   14.8937 N.am      12 UNK        -0.4276 
     28 C         -54.8130  -26.4598   15.0039 C.2       12 UNK         0.5020 
     29 O         -55.9809  -26.7681   15.2523 O.2       12 UNK        -0.5489 
     30 CA        -54.4187  -24.9801   14.8407 C.3       11 UNK         0.0294 
     31 CB        -55.6305  -24.0246   14.8526 C.3       11 UNK        -0.2019 
     32 N         -53.4179  -24.5595   15.8312 N.am      11 UNK        -0.4493 
     33 C         -53.5193  -24.6327   17.1691 C.2       11 UNK         0.4932 
     34 O         -54.5203  -25.0331   17.7662 O.2       11 UNK        -0.5029 
     35 CA        -52.2881  -24.1702   17.9748 C.3       10 UNK         0.0280 
     36 CB        -52.4030  -24.4784   19.4831 C.3       10 UNK        -0.1976 
     37 N         -51.0206  -24.6848   17.4452 N.am      10 UNK        -0.4242 
     38 C         -50.6547  -25.9610   17.2527 C.2       10 UNK         0.5072 
     39 O         -51.3743  -26.9214   17.5285 O.2       10 UNK        -0.5224 
     40 CA        -49.2451  -26.2070   16.6587 C.3       9 UNK         0.0343 
     41 CB        -49.0804  -27.6408   16.1197 C.3       9 UNK        -0.2003 
     42 N         -48.8832  -25.2707   15.5892 N.am      9 UNK        -0.4272 
     43 C         -48.5910  -23.9708   15.7329 C.2       9 UNK         0.4988 
     44 O         -48.5109  -23.4071   16.8246 O.2       9 UNK        -0.5108 
     45 CA        -48.4482  -23.1393   14.4486 C.3       8 UNK         0.0248 
     46 CB        -46.9869  -23.1143   13.9730 C.3       8 UNK        -0.2001 
     47 N         -49.3168  -23.5997   13.3608 N.am      8 UNK        -0.4140 
     48 C         -50.6593  -23.6173   13.3882 C.2       8 UNK         0.5028 
     49 O         -51.3393  -23.2677   14.3535 O.2       8 UNK        -0.5428 
     50 CA        -51.3533  -24.1375   12.1202 C.3       7 UNK         0.0264 
     51 CB        -51.3619  -23.0459   11.0382 C.3       7 UNK        -0.1988 
     52 N         -50.7144  -25.3578   11.6205 N.am      7 UNK        -0.4454 
     53 C         -50.8120  -26.5575   12.2182 C.2       7 UNK         0.5027 
     54 O         -51.5327  -26.7737   13.1951 O.2       7 UNK        -0.5083 
     55 CA        -49.9030  -27.6846   11.6806 C.3       6 UNK         0.0844 
     56 C56       -50.6337  -28.5849   10.6515 C.3       14 UNK        -0.0967 
     57 S57       -49.5694  -29.9534   10.0663 S.3       14 UNK        -0.2604 
     58 C58       -50.7271  -31.0333    9.1616 C.3       14 UNK         0.0134 
     59 N         -48.6423  -27.1470   11.1557 N.am      6 UNK        -0.4116 
     60 C         -47.6597  -26.6261   11.9026 C.2       5 UNK         0.5034 
     61 O         -47.7378  -26.5102   13.1261 O.2       5 UNK        -0.5045 
     62 CA        -46.4096  -26.0887   11.1751 C.3       5 UNK         0.0224 
     63 CB        -45.1075  -26.3844   11.9493 C.3       5 UNK        -0.1978 
     64 N         -46.3052  -26.5020    9.7685 N.am      5 UNK        -0.4737 
     65 C         -46.1045  -27.7361    9.2777 C.2       4 UNK         0.5027 
     66 O         -45.8901  -28.7239    9.9795 O.2       4 UNK        -0.5211 
     67 CA        -46.1815  -27.9118    7.7483 C.3       4 UNK         0.0297 
     68 CB        -47.2644  -28.9366    7.3760 C.3       4 UNK        -0.1993 
     69 N         -46.4888  -26.6570    7.0596 N.am      4 UNK        -0.4486 
     70 C         -45.5884  -25.8499    6.4837 C.2       3 UNK         0.4961 
     71 O         -44.3856  -26.1023    6.4125 O.2       3 UNK        -0.5105 
     72 CA        -46.1128  -24.5220    5.9026 C.3       3 UNK         0.0299 
     73 CB        -46.4109  -24.6764    4.4026 C.3       3 UNK        -0.1972 
     74 N         -47.3084  -24.0094    6.5808 N.am      3 UNK        -0.4305 
     75 C         -47.3614  -23.6293    7.8664 C.2       2 UNK         0.5006 
     76 O         -46.3922  -23.6394    8.6241 O.2       2 UNK        -0.5106 
     77 CA        -48.7401  -23.2369    8.4260 C.3       2 UNK         0.0296 
     78 CB        -48.9831  -21.7289    8.2570 C.3       2 UNK        -0.2002 
     79 N         -49.8550  -23.9857    7.8336 N.am      2 UNK        -0.4032 
     80 C         -49.9915  -25.3198    7.8859 C.2       1 UNK         0.5000 
     81 O         -49.2175  -26.0560    8.5012 O.2       1 UNK        -0.5238 
     82 H82       -54.6123  -23.9531    7.8304 H         1 UNK         0.0889 
     83 H83       -54.3486  -23.9370    9.5764 H         1 UNK         0.0889 
     84 H84       -55.2709  -25.2465    8.8353 H         1 UNK         0.0889 
     85 H85       -52.7721  -24.5876    6.7145 H         1 UNK         0.3028 
     86 H86       -51.2864  -26.9469    7.4837 H         1 UNK         0.0864 
     87 H87       -50.5913  -25.0070    5.2108 H         1 UNK         0.0720 
     88 H88       -51.8515  -26.1895    5.0609 H         1 UNK         0.0720 
     89 H89       -50.1582  -29.4626    4.2910 H         1 UNK         0.0814 
     90 H90       -51.4704  -28.3759    3.9091 H         1 UNK         0.0814 
     91 H91       -49.7972  -30.1644    6.7439 H         1 UNK         0.1469 
     92 H92       -53.2981  -30.2582    9.1711 H         1 UNK         0.1381 
     93 H93       -53.3704  -28.2089    5.4048 H         1 UNK         0.1206 
     94 H94       -54.9415  -27.6276    7.7010 H         1 UNK         0.0813 
     95 H95       -55.5095  -28.8481    6.5933 H         1 UNK         0.0813 
     96 H96       -55.7342  -27.8457   10.5723 H         1 UNK         0.0638 
     97 H97       -54.1662  -28.4862   10.2018 H         1 UNK         0.0638 
     98 H98       -56.3628  -29.8594   11.8326 H         1 UNK         0.0568 
     99 H99       -55.0117  -33.0203   10.9220 H         1 UNK         0.3450 
    100 H100      -56.4124  -31.9807   10.9115 H         1 UNK         0.3450 
    101 H101      -54.1417  -28.2339   12.6298 H         1 UNK         0.2987 
    102 H102      -54.4524  -28.9243   16.0848 H         1 UNK         0.0766 
    103 H103      -51.9785  -29.0188   16.0117 H         1 UNK         0.0798 
    104 H104      -52.0052  -29.3008   14.2711 H         1 UNK         0.0798 
    105 H105      -52.6459  -30.5098   15.3741 H         1 UNK         0.0798 
    106 H106      -52.8927  -27.0197   14.6199 H         1 UNK         0.3198 
    107 H107      -53.9492  -24.8965   13.8621 H         1 UNK         0.0843 
    108 H108      -56.1663  -24.0588   15.8018 H         1 UNK         0.0831 
    109 H109      -56.3417  -24.2886   14.0691 H         1 UNK         0.0831 
    110 H110      -55.3232  -22.9936   14.6779 H         1 UNK         0.0831 
    111 H111      -52.5585  -24.1760   15.4389 H         1 UNK         0.3133 
    112 H112      -52.2444  -23.0859   17.8633 H         1 UNK         0.0566 
    113 H113      -51.5365  -24.1087   20.0312 H         1 UNK         0.0814 
    114 H114      -53.2845  -24.0024   19.9145 H         1 UNK         0.0814 
    115 H115      -52.4868  -25.5495   19.6707 H         1 UNK         0.0814 
    116 H116      -50.3276  -23.9820   17.2050 H         1 UNK         0.3091 
    117 H117      -48.5344  -26.0746   17.4768 H         1 UNK         0.0702 
    118 H118      -48.0696  -27.8111   15.7481 H         1 UNK         0.0785 
    119 H119      -49.7737  -27.8414   15.3018 H         1 UNK         0.0785 
    120 H120      -49.2660  -28.3817   16.8983 H         1 UNK         0.0785 
    121 H121      -48.8625  -25.6557   14.6512 H         1 UNK         0.2998 
    122 H122      -48.7449  -22.1160   14.6883 H         1 UNK         0.0697 
    123 H123      -46.6215  -24.1123   13.7325 H         1 UNK         0.0825 
    124 H124      -46.3345  -22.7109   14.7487 H         1 UNK         0.0825 
    125 H125      -46.8636  -22.4865   13.0904 H         1 UNK         0.0825 
    126 H126      -48.8550  -23.9312   12.5293 H         1 UNK         0.3029 
    127 H127      -52.3895  -24.3757   12.3591 H         1 UNK         0.0897 
    128 H128      -50.3676  -22.6404   10.8578 H         1 UNK         0.0792 
    129 H129      -51.9929  -22.2105   11.3446 H         1 UNK         0.0792 
    130 H130      -51.7540  -23.4132   10.0922 H         1 UNK         0.0792 
    131 H131      -50.1456  -25.2873   10.7895 H         1 UNK         0.3086 
    132 H132      -49.6520  -28.3126   12.5384 H         1 UNK         0.0583 
    133 H133      -51.5401  -29.0093   11.0885 H         1 UNK         0.1020 
    134 H134      -50.9506  -28.0008    9.7860 H         1 UNK         0.1020 
    135 H135      -50.1657  -31.8553    8.7155 H         1 UNK         0.0694 
    136 H136      -51.4182  -31.4884    9.8716 H         1 UNK         0.0694 
    137 H137      -48.5401  -27.1515   10.1471 H         1 UNK         0.2989 
    138 H138      -46.5299  -25.0046   11.1516 H         1 UNK         0.1055 
    139 H139      -45.1284  -25.9330   12.9417 H         1 UNK         0.0806 
    140 H140      -44.2376  -25.9815   11.4310 H         1 UNK         0.0806 
    141 H141      -44.9510  -27.4542   12.0889 H         1 UNK         0.0806 
    142 H142      -46.4389  -25.7539    9.0982 H         1 UNK         0.3061 
    143 H143      -45.2161  -28.2989    7.4162 H         1 UNK         0.0734 
    144 H144      -47.2950  -29.1099    6.3003 H         1 UNK         0.0832 
    145 H145      -47.0828  -29.8995    7.8553 H         1 UNK         0.0832 
    146 H146      -48.2521  -28.5966    7.6890 H         1 UNK         0.0832 
    147 H147      -47.4576  -26.3646    7.0927 H         1 UNK         0.3156 
    148 H148      -45.3216  -23.7784    6.0195 H         1 UNK         0.0589 
    149 H149      -47.2129  -25.3935    4.2212 H         1 UNK         0.0808 
    150 H150      -46.7003  -23.7261    3.9538 H         1 UNK         0.0808 
    151 H151      -45.5305  -25.0311    3.8647 H         1 UNK         0.0808 
    152 H152      -48.1541  -23.9630    6.0320 H         1 UNK         0.3098 
    153 H153      -48.7196  -23.4660    9.4923 H         1 UNK         0.0720 
    154 H154      -49.9213  -21.4200    8.7179 H         1 UNK         0.0791 
    155 H155      -49.0159  -21.4397    7.2058 H         1 UNK         0.0791 
    156 H156      -48.1872  -21.1507    8.7288 H         1 UNK         0.0791 
    157 H157      -50.5435  -23.4491    7.3262 H         1 UNK         0.3028 
@<TRIPOS>BOND
     1    1    2 1    
     2    1   82 1    
     3    1   83 1    
     4    1   84 1    
     5    2    3 2    
     6    2    4 am   BACKBONE|DICT|INTERRES
     7    4    5 1    
     8    4   85 1    
     9    5    6 1    
    10    5   80 1    
    11    5   86 1    
    12    6    7 1    
    13    6   87 1    
    14    6   88 1    
    15    7    8 1    
    16    8    9 1    
    17    8   89 1    
    18    8   90 1    
    19    9   10 ar   
    20    9   14 ar   
    21   10   11 ar   
    22   10   91 1    
    23   11   12 ar   
    24   11   58 1    
    25   12   13 ar   
    26   12   92 1    
    27   13   14 ar   
    28   13   15 1    
    29   14   93 1    
    30   15   16 1    
    31   15   94 1    
    32   15   95 1    
    33   16   17 1    
    34   17   18 1    
    35   17   96 1    
    36   17   97 1    
    37   18   19 1    
    38   18   22 1    
    39   18   98 1    
    40   19   20 am   BACKBONE|DICT|INTERRES
    41   19   21 2    
    42   20   99 1    
    43   20  100 1    
    44   22   23 am   BACKBONE|DICT|INTERRES
    45   22  101 1    
    46   23   24 2    
    47   23   25 1    
    48   25   26 1    
    49   25   27 1    
    50   25  102 1    
    51   26  103 1    
    52   26  104 1    
    53   26  105 1    
    54   27   28 am   BACKBONE|DICT|INTERRES
    55   27  106 1    
    56   28   29 2    
    57   28   30 1    
    58   30   31 1    
    59   30   32 1    
    60   30  107 1    
    61   31  108 1    
    62   31  109 1    
    63   31  110 1    
    64   32   33 am   BACKBONE|DICT|INTERRES
    65   32  111 1    
    66   33   34 2    
    67   33   35 1    
    68   35   36 1    
    69   35   37 1    
    70   35  112 1    
    71   36  113 1    
    72   36  114 1    
    73   36  115 1    
    74   37   38 am   BACKBONE|DICT|INTERRES
    75   37  116 1    
    76   38   39 2    
    77   38   40 1    
    78   40   41 1    
    79   40   42 1    
    80   40  117 1    
    81   41  118 1    
    82   41  119 1    
    83   41  120 1    
    84   42   43 am   BACKBONE|DICT|INTERRES
    85   42  121 1    
    86   43   44 2    
    87   43   45 1    
    88   45   46 1    
    89   45   47 1    
    90   45  122 1    
    91   46  123 1    
    92   46  124 1    
    93   46  125 1    
    94   47   48 am   BACKBONE|DICT|INTERRES
    95   47  126 1    
    96   48   49 2    
    97   48   50 1    
    98   50   51 1    
    99   50   52 1    
   100   50  127 1    
   101   51  128 1    
   102   51  129 1    
   103   51  130 1    
   104   52   53 am   BACKBONE|DICT|INTERRES
   105   52  131 1    
   106   53   54 2    
   107   53   55 1    
   108   55   56 1    
   109   55   59 1    
   110   55  132 1    
   111   56   57 1    
   112   56  133 1    
   113   56  134 1    
   114   57   58 1    
   115   58  135 1    
   116   58  136 1    
   117   59   60 am   BACKBONE|DICT|INTERRES
   118   59  137 1    
   119   60   61 2    
   120   60   62 1    
   121   62   63 1    
   122   62   64 1    
   123   62  138 1    
   124   63  139 1    
   125   63  140 1    
   126   63  141 1    
   127   64   65 am   BACKBONE|DICT|INTERRES
   128   64  142 1    
   129   65   66 2    
   130   65   67 1    
   131   67   68 1    
   132   67   69 1    
   133   67  143 1    
   134   68  144 1    
   135   68  145 1    
   136   68  146 1    
   137   69   70 am   BACKBONE|DICT|INTERRES
   138   69  147 1    
   139   70   71 2    
   140   70   72 1    
   141   72   73 1    
   142   72   74 1    
   143   72  148 1    
   144   73  149 1    
   145   73  150 1    
   146   73  151 1    
   147   74   75 am   BACKBONE|DICT|INTERRES
   148   74  152 1    
   149   75   76 2    
   150   75   77 1    
   151   77   78 1    
   152   77   79 1    
   153   77  153 1    
   154   78  154 1    
   155   78  155 1    
   156   78  156 1    
   157   79   80 am   BACKBONE|DICT|INTERRES
   158   79  157 1    
   159   80   81 2    
@<TRIPOS>SUBSTRUCTURE
     1 UNK         1 GROUP             0       ****    0 ROOT    
