@<TRIPOS>MOLECULE
3R207
157   159    1
SMALL
USER_CHARGES


@<TRIPOS>ATOM
      1 CA        -52.9930  -24.8436    9.9176 C.3       0 UNK        -0.1975 
      2 C         -52.0717  -25.5219    8.9145 C.2       0 UNK         0.4852 
      3 O         -50.8874  -25.1957    8.8617 O.2       0 UNK        -0.5216 
      4 N         -52.6038  -26.4628    8.1219 N.am      1 UNK        -0.4461 
      5 CA        -51.8753  -27.2283    7.1040 C.3       1 UNK         0.0864 
      6 C6        -52.7916  -28.2947    6.4470 C.3       14 UNK        -0.0898 
      7 S7        -51.8422  -29.6723    5.7148 S.3       14 UNK        -0.2598 
      8 C8        -52.1726  -31.0308    6.8865 C.3       14 UNK         0.0286 
      9 C9        -51.6909  -30.6930    8.2894 C.ar      14 UNK        -0.0844 
     10 C10       -50.3225  -30.6356    8.5650 C.ar      14 UNK        -0.0881 
     11 C11       -49.8723  -30.2594    9.8327 C.ar      14 UNK        -0.0643 
     12 C12       -50.7997  -29.9615   10.8350 C.ar      14 UNK        -0.0930 
     13 C13       -52.1706  -30.0309   10.5752 C.ar      14 UNK        -0.0827 
     14 C14       -52.6107  -30.4073    9.3030 C.ar      14 UNK        -0.1249 
     15 C15       -53.1673  -29.6909   11.6716 C.3       14 UNK         0.0141 
     16 S16       -53.8060  -27.9955   11.4983 S.3       14 UNK        -0.2313 
     17 C17       -55.2436  -28.2542   10.4020 C.3       14 UNK        -0.0915 
     18 CA        -56.5680  -27.7261   11.0106 C.3       13 UNK         0.0968 
     19 C         -57.7401  -27.9289   10.0117 C.2       13 UNK         0.5732 
     20 N         -58.0244  -26.9378    9.1777 N.am      13 UNK        -0.7310 
     21 O         -58.3605  -28.9896    9.9568 O.2       13 UNK        -0.5035 
     22 N         -56.8297  -28.3181   12.3296 N.am      13 UNK        -0.4233 
     23 C         -57.8159  -27.9714   13.1634 C.2       13 UNK         0.4989 
     24 O         -58.6429  -27.0914   12.9210 O.2       13 UNK        -0.4996 
     25 CA        -57.8738  -28.6902   14.5236 C.3       12 UNK         0.0216 
     26 CB        -58.6188  -30.0361   14.4204 C.3       12 UNK        -0.1964 
     27 N         -56.5639  -28.8262   15.1789 N.am      12 UNK        -0.4276 
     28 C         -55.5243  -29.6022   14.8454 C.2       12 UNK         0.5020 
     29 O         -55.5250  -30.3824   13.8920 O.2       12 UNK        -0.5489 
     30 CA        -54.2468  -29.4098   15.6826 C.3       11 UNK         0.0294 
     31 CB        -53.3321  -30.6482   15.6557 C.3       11 UNK        -0.2019 
     32 N         -53.4932  -28.2388   15.2261 N.am      11 UNK        -0.4493 
     33 C         -53.8528  -26.9648   15.4363 C.2       11 UNK         0.4932 
     34 O         -54.8631  -26.6437   16.0672 O.2       11 UNK        -0.5029 
     35 CA        -52.9232  -25.8769   14.8573 C.3       10 UNK         0.0280 
     36 CB        -53.2764  -24.4664   15.3720 C.3       10 UNK        -0.1976 
     37 N         -51.4915  -26.1429   15.0570 N.am      10 UNK        -0.4242 
     38 C         -50.8653  -26.4089   16.2156 C.2       10 UNK         0.5072 
     39 O         -51.4282  -26.5186   17.3058 O.2       10 UNK        -0.5224 
     40 CA        -49.3370  -26.5644   16.1472 C.3       9 UNK         0.0343 
     41 CB        -48.9417  -27.8624   15.4217 C.3       9 UNK        -0.2003 
     42 N         -48.6862  -25.4150   15.5139 N.am      9 UNK        -0.4272 
     43 C         -48.6533  -24.1768   16.0316 C.2       9 UNK         0.4988 
     44 O         -49.1167  -23.8798   17.1334 O.2       9 UNK        -0.5108 
     45 CA        -47.9903  -23.0778   15.1834 C.3       8 UNK         0.0248 
     46 CB        -46.4646  -23.0918   15.3699 C.3       8 UNK        -0.2001 
     47 N         -48.3192  -23.1875   13.7611 N.am      8 UNK        -0.4140 
     48 C         -49.5370  -22.9662   13.2448 C.2       8 UNK         0.5028 
     49 O         -50.4897  -22.5396   13.8968 O.2       8 UNK        -0.5428 
     50 CA        -49.7382  -23.2938   11.7556 C.3       7 UNK         0.0264 
     51 CB        -49.3524  -22.0983   10.8714 C.3       7 UNK        -0.1988 
     52 N         -48.9973  -24.4799   11.3242 N.am      7 UNK        -0.4454 
     53 C         -49.2252  -25.7262   11.7650 C.2       7 UNK         0.5027 
     54 O         -50.1056  -26.0199   12.5757 O.2       7 UNK        -0.5083 
     55 CA        -48.2697  -26.8224   11.2569 C.3       6 UNK         0.0844 
     56 C56       -48.6857  -27.3152    9.8529 C.3       14 UNK        -0.0967 
     57 S57       -47.6583  -28.6967    9.2460 S.3       14 UNK        -0.2604 
     58 C58       -48.3834  -30.1288   10.1070 C.3       14 UNK         0.0134 
     59 N         -46.8788  -26.3703   11.2984 N.am      6 UNK        -0.4116 
     60 C         -46.1889  -26.1138   12.4168 C.2       5 UNK         0.5034 
     61 O         -46.6369  -26.2663   13.5525 O.2       5 UNK        -0.5045 
     62 CA        -44.7725  -25.5464   12.2291 C.3       5 UNK         0.0224 
     63 CB        -43.7628  -26.6794   11.9862 C.3       5 UNK        -0.1978 
     64 N         -44.6980  -24.5759   11.1322 N.am      5 UNK        -0.4737 
     65 C         -45.3238  -23.3901   11.1327 C.2       4 UNK         0.5027 
     66 O         -45.9882  -22.9706   12.0783 O.2       4 UNK        -0.5211 
     67 CA        -45.2339  -22.5548    9.8451 C.3       4 UNK         0.0297 
     68 CB        -43.9576  -21.6990    9.8457 C.3       4 UNK        -0.1993 
     69 N         -45.2876  -23.3647    8.6229 N.am      4 UNK        -0.4486 
     70 C         -46.3291  -24.1244    8.2593 C.2       3 UNK         0.4961 
     71 O         -47.3601  -24.2454    8.9248 O.2       3 UNK        -0.5105 
     72 CA        -46.1701  -24.9163    6.9594 C.3       3 UNK         0.0299 
     73 CB        -45.3633  -26.2058    7.2029 C.3       3 UNK        -0.1972 
     74 N         -47.4940  -25.2287    6.4212 N.am      3 UNK        -0.4305 
     75 C         -47.7430  -25.5410    5.1429 C.2       2 UNK         0.5006 
     76 O         -46.8584  -25.6665    4.2937 O.2       2 UNK        -0.5106 
     77 CA        -49.2142  -25.7385    4.7400 C.3       2 UNK         0.0296 
     78 CB        -49.3813  -26.4202    3.3658 C.3       2 UNK        -0.2002 
     79 N         -49.9527  -26.4903    5.7556 N.am      2 UNK        -0.4032 
     80 C         -51.2481  -26.3011    6.0391 C.2       1 UNK         0.5000 
     81 O         -51.9557  -25.4513    5.4893 O.2       1 UNK        -0.5238 
     82 H82       -52.6697  -25.0759   10.9323 H         1 UNK         0.0889 
     83 H83       -54.0271  -25.1691    9.8084 H         1 UNK         0.0889 
     84 H84       -52.9597  -23.7624    9.7870 H         1 UNK         0.0889 
     85 H85       -53.5897  -26.6616    8.1910 H         1 UNK         0.3028 
     86 H86       -51.0724  -27.7426    7.6371 H         1 UNK         0.0864 
     87 H87       -53.4818  -28.7076    7.1836 H         1 UNK         0.0720 
     88 H88       -53.4271  -27.8540    5.6762 H         1 UNK         0.0720 
     89 H89       -51.6678  -31.9327    6.5375 H         1 UNK         0.0814 
     90 H90       -53.2400  -31.2573    6.8842 H         1 UNK         0.0814 
     91 H91       -49.6065  -30.8453    7.7819 H         1 UNK         0.1469 
     92 H92       -50.4537  -29.6561   11.8130 H         1 UNK         0.1381 
     93 H93       -53.6695  -30.4560    9.0938 H         1 UNK         0.1206 
     94 H94       -52.6856  -29.7725   12.6451 H         1 UNK         0.0813 
     95 H95       -53.9836  -30.4141   11.6803 H         1 UNK         0.0813 
     96 H96       -55.3443  -29.3143   10.1666 H         1 UNK         0.0638 
     97 H97       -55.0323  -27.7537    9.4562 H         1 UNK         0.0638 
     98 H98       -56.4539  -26.6526   11.1738 H         1 UNK         0.0568 
     99 H99       -58.7718  -27.0594    8.5124 H         1 UNK         0.3450 
    100 H100      -57.5209  -26.0654    9.2094 H         1 UNK         0.3450 
    101 H101      -56.2129  -29.0702   12.6208 H         1 UNK         0.2987 
    102 H102      -58.4589  -28.0497   15.1857 H         1 UNK         0.0766 
    103 H103      -58.6992  -30.5209   15.3932 H         1 UNK         0.0798 
    104 H104      -58.1244  -30.7293   13.7393 H         1 UNK         0.0798 
    105 H105      -59.6328  -29.8884   14.0464 H         1 UNK         0.0798 
    106 H106      -56.3758  -28.1298   15.8933 H         1 UNK         0.3198 
    107 H107      -54.5456  -29.2478   16.7208 H         1 UNK         0.0843 
    108 H108      -52.9766  -30.8791   14.6521 H         1 UNK         0.0831 
    109 H109      -53.8650  -31.5284   16.0175 H         1 UNK         0.0831 
    110 H110      -52.4612  -30.5121   16.2972 H         1 UNK         0.0831 
    111 H111      -52.6603  -28.4139   14.6841 H         1 UNK         0.3133 
    112 H112      -53.0838  -25.8828   13.7783 H         1 UNK         0.0566 
    113 H113      -53.1532  -24.3899   16.4529 H         1 UNK         0.0814 
    114 H114      -52.6469  -23.7072   14.9097 H         1 UNK         0.0814 
    115 H115      -54.3109  -24.2099   15.1408 H         1 UNK         0.0814 
    116 H116      -50.9229  -26.0887   14.2117 H         1 UNK         0.3091 
    117 H117      -48.9652  -26.6305   17.1719 H         1 UNK         0.0702 
    118 H118      -47.8636  -28.0203   15.4570 H         1 UNK         0.0785 
    119 H119      -49.2407  -27.8538   14.3736 H         1 UNK         0.0785 
    120 H120      -49.4115  -28.7290   15.8888 H         1 UNK         0.0785 
    121 H121      -48.2134  -25.5877   14.6329 H         1 UNK         0.2998 
    122 H122      -48.3635  -22.1147   15.5382 H         1 UNK         0.0697 
    123 H123      -46.0215  -24.0227   15.0158 H         1 UNK         0.0825 
    124 H124      -46.1991  -22.9833   16.4223 H         1 UNK         0.0825 
    125 H125      -45.9921  -22.2709   14.8300 H         1 UNK         0.0825 
    126 H126      -47.5591  -23.4280   13.1306 H         1 UNK         0.3029 
    127 H127      -50.7998  -23.4990   11.6056 H         1 UNK         0.0897 
    128 H128      -49.9322  -21.2135   11.1372 H         1 UNK         0.0792 
    129 H129      -49.5427  -22.3095    9.8186 H         1 UNK         0.0792 
    130 H130      -48.2979  -21.8428   10.9767 H         1 UNK         0.0792 
    131 H131      -48.3005  -24.3432   10.5959 H         1 UNK         0.3086 
    132 H132      -48.3591  -27.6646   11.9460 H         1 UNK         0.0583 
    133 H133      -49.7381  -27.6007    9.8394 H         1 UNK         0.1020 
    134 H134      -48.6032  -26.5064    9.1269 H         1 UNK         0.1020 
    135 H135      -47.8736  -31.0354    9.7783 H         1 UNK         0.0694 
    136 H136      -48.1898  -30.0396   11.1770 H         1 UNK         0.0694 
    137 H137      -46.4433  -26.1860   10.4079 H         1 UNK         0.2989 
    138 H138      -44.4989  -25.0334   13.1540 H         1 UNK         0.1055 
    139 H139      -43.7902  -27.4057   12.8000 H         1 UNK         0.0806 
    140 H140      -42.7434  -26.2972   11.9307 H         1 UNK         0.0806 
    141 H141      -43.9707  -27.2191   11.0613 H         1 UNK         0.0806 
    142 H142      -44.1642  -24.8378   10.3161 H         1 UNK         0.3061 
    143 H143      -46.0935  -21.8816    9.8315 H         1 UNK         0.0734 
    144 H144      -43.9089  -21.0746   10.7392 H         1 UNK         0.0832 
    145 H145      -43.9266  -21.0306    8.9851 H         1 UNK         0.0832 
    146 H146      -43.0562  -22.3129    9.8287 H         1 UNK         0.0832 
    147 H147      -44.4783  -23.3289    8.0190 H         1 UNK         0.3156 
    148 H148      -45.6391  -24.2861    6.2425 H         1 UNK         0.0589 
    149 H149      -44.3687  -25.9827    7.5904 H         1 UNK         0.0808 
    150 H150      -45.8551  -26.8568    7.9239 H         1 UNK         0.0808 
    151 H151      -45.2267  -26.7732    6.2824 H         1 UNK         0.0808 
    152 H152      -48.2574  -25.0836    7.0726 H         1 UNK         0.3098 
    153 H153      -49.6300  -24.7311    4.6679 H         1 UNK         0.0720 
    154 H154      -50.4316  -26.4933    3.0832 H         1 UNK         0.0791 
    155 H155      -48.9641  -27.4279    3.3659 H         1 UNK         0.0791 
    156 H156      -48.8776  -25.8551    2.5804 H         1 UNK         0.0791 
    157 H157      -49.4328  -27.2043    6.2479 H         1 UNK         0.3028 
@<TRIPOS>BOND
     1    1    2 1    
     2    1   82 1    
     3    1   83 1    
     4    1   84 1    
     5    2    3 2    
     6    2    4 am   BACKBONE|DICT|INTERRES
     7    4    5 1    
     8    4   85 1    
     9    5    6 1    
    10    5   80 1    
    11    5   86 1    
    12    6    7 1    
    13    6   87 1    
    14    6   88 1    
    15    7    8 1    
    16    8    9 1    
    17    8   89 1    
    18    8   90 1    
    19    9   10 ar   
    20    9   14 ar   
    21   10   11 ar   
    22   10   91 1    
    23   11   12 ar   
    24   11   58 1    
    25   12   13 ar   
    26   12   92 1    
    27   13   14 ar   
    28   13   15 1    
    29   14   93 1    
    30   15   16 1    
    31   15   94 1    
    32   15   95 1    
    33   16   17 1    
    34   17   18 1    
    35   17   96 1    
    36   17   97 1    
    37   18   19 1    
    38   18   22 1    
    39   18   98 1    
    40   19   20 am   BACKBONE|DICT|INTERRES
    41   19   21 2    
    42   20   99 1    
    43   20  100 1    
    44   22   23 am   BACKBONE|DICT|INTERRES
    45   22  101 1    
    46   23   24 2    
    47   23   25 1    
    48   25   26 1    
    49   25   27 1    
    50   25  102 1    
    51   26  103 1    
    52   26  104 1    
    53   26  105 1    
    54   27   28 am   BACKBONE|DICT|INTERRES
    55   27  106 1    
    56   28   29 2    
    57   28   30 1    
    58   30   31 1    
    59   30   32 1    
    60   30  107 1    
    61   31  108 1    
    62   31  109 1    
    63   31  110 1    
    64   32   33 am   BACKBONE|DICT|INTERRES
    65   32  111 1    
    66   33   34 2    
    67   33   35 1    
    68   35   36 1    
    69   35   37 1    
    70   35  112 1    
    71   36  113 1    
    72   36  114 1    
    73   36  115 1    
    74   37   38 am   BACKBONE|DICT|INTERRES
    75   37  116 1    
    76   38   39 2    
    77   38   40 1    
    78   40   41 1    
    79   40   42 1    
    80   40  117 1    
    81   41  118 1    
    82   41  119 1    
    83   41  120 1    
    84   42   43 am   BACKBONE|DICT|INTERRES
    85   42  121 1    
    86   43   44 2    
    87   43   45 1    
    88   45   46 1    
    89   45   47 1    
    90   45  122 1    
    91   46  123 1    
    92   46  124 1    
    93   46  125 1    
    94   47   48 am   BACKBONE|DICT|INTERRES
    95   47  126 1    
    96   48   49 2    
    97   48   50 1    
    98   50   51 1    
    99   50   52 1    
   100   50  127 1    
   101   51  128 1    
   102   51  129 1    
   103   51  130 1    
   104   52   53 am   BACKBONE|DICT|INTERRES
   105   52  131 1    
   106   53   54 2    
   107   53   55 1    
   108   55   56 1    
   109   55   59 1    
   110   55  132 1    
   111   56   57 1    
   112   56  133 1    
   113   56  134 1    
   114   57   58 1    
   115   58  135 1    
   116   58  136 1    
   117   59   60 am   BACKBONE|DICT|INTERRES
   118   59  137 1    
   119   60   61 2    
   120   60   62 1    
   121   62   63 1    
   122   62   64 1    
   123   62  138 1    
   124   63  139 1    
   125   63  140 1    
   126   63  141 1    
   127   64   65 am   BACKBONE|DICT|INTERRES
   128   64  142 1    
   129   65   66 2    
   130   65   67 1    
   131   67   68 1    
   132   67   69 1    
   133   67  143 1    
   134   68  144 1    
   135   68  145 1    
   136   68  146 1    
   137   69   70 am   BACKBONE|DICT|INTERRES
   138   69  147 1    
   139   70   71 2    
   140   70   72 1    
   141   72   73 1    
   142   72   74 1    
   143   72  148 1    
   144   73  149 1    
   145   73  150 1    
   146   73  151 1    
   147   74   75 am   BACKBONE|DICT|INTERRES
   148   74  152 1    
   149   75   76 2    
   150   75   77 1    
   151   77   78 1    
   152   77   79 1    
   153   77  153 1    
   154   78  154 1    
   155   78  155 1    
   156   78  156 1    
   157   79   80 am   BACKBONE|DICT|INTERRES
   158   79  157 1    
   159   80   81 2    
@<TRIPOS>SUBSTRUCTURE
     1 UNK         1 GROUP             0       ****    0 ROOT    
