@<TRIPOS>MOLECULE
3R207
157   159    1
SMALL
USER_CHARGES


@<TRIPOS>ATOM
      1 CA        -51.4937  -29.9992    8.9910 C.3       0 UNK        -0.1975 
      2 C         -51.2236  -29.0542    7.8343 C.2       0 UNK         0.4852 
      3 O         -51.0354  -27.8626    8.0611 O.2       0 UNK        -0.5216 
      4 N         -51.1790  -29.5814    6.6025 N.am      1 UNK        -0.4461 
      5 CA        -51.0284  -28.8830    5.3127 C.3       1 UNK         0.0864 
      6 C6        -52.1903  -27.9055    4.9893 C.3       14 UNK        -0.0898 
      7 S7        -53.8053  -28.7536    4.9075 S.3       14 UNK        -0.2598 
      8 C8        -54.9342  -27.5018    5.6001 C.3       14 UNK         0.0286 
      9 C9        -54.7603  -27.3346    7.1030 C.ar      14 UNK        -0.0844 
     10 C10       -54.1423  -26.1926    7.6212 C.ar      14 UNK        -0.0881 
     11 C11       -53.9752  -26.0375    9.0005 C.ar      14 UNK        -0.0643 
     12 C12       -54.4365  -27.0372    9.8639 C.ar      14 UNK        -0.0930 
     13 C13       -55.0769  -28.1754    9.3608 C.ar      14 UNK        -0.0827 
     14 C14       -55.2388  -28.3140    7.9784 C.ar      14 UNK        -0.1249 
     15 C15       -55.6413  -29.2218   10.3144 C.3       14 UNK         0.0141 
     16 S16       -55.0402  -30.9077    9.9699 S.3       14 UNK        -0.2313 
     17 C17       -55.8233  -31.8188   11.3462 C.3       14 UNK        -0.0915 
     18 CA        -54.8459  -32.3560   12.4331 C.3       13 UNK         0.0968 
     19 C         -54.1481  -33.6909   12.0215 C.2       13 UNK         0.5732 
     20 N         -52.8327  -33.8218   12.0857 N.am      13 UNK        -0.7310 
     21 O         -54.8308  -34.6559   11.6838 O.2       13 UNK        -0.5035 
     22 N         -54.0609  -31.2807   13.0773 N.am      13 UNK        -0.4233 
     23 C         -52.8869  -30.7309   12.7401 C.2       13 UNK         0.4989 
     24 O         -52.1521  -31.1578   11.8506 O.2       13 UNK        -0.4996 
     25 CA        -52.4548  -29.4837   13.5410 C.3       12 UNK         0.0216 
     26 CB        -51.1734  -28.8433   12.9725 C.3       12 UNK        -0.1964 
     27 N         -53.4821  -28.4415   13.6004 N.am      12 UNK        -0.4276 
     28 C         -54.6226  -28.4558   14.2991 C.2       12 UNK         0.5020 
     29 O         -55.0002  -29.4215   14.9665 O.2       12 UNK        -0.5489 
     30 CA        -55.4656  -27.1649   14.2420 C.3       11 UNK         0.0294 
     31 CB        -56.8221  -27.3125   14.9552 C.3       11 UNK        -0.2019 
     32 N         -54.7432  -26.0287   14.8211 N.am      11 UNK        -0.4493 
     33 C         -53.7136  -25.3900   14.2495 C.2       11 UNK         0.4932 
     34 O         -53.3068  -25.6479   13.1164 O.2       11 UNK        -0.5029 
     35 CA        -52.9878  -24.3149   15.0772 C.3       10 UNK         0.0280 
     36 CB        -53.8112  -23.7625   16.2642 C.3       10 UNK        -0.1976 
     37 N         -51.6649  -24.7840   15.5182 N.am      10 UNK        -0.4242 
     38 C         -51.4206  -25.8401   16.3119 C.2       10 UNK         0.5072 
     39 O         -52.3108  -26.5433   16.7933 O.2       10 UNK        -0.5224 
     40 CA        -49.9643  -26.1741   16.6783 C.3       9 UNK         0.0343 
     41 CB        -49.6418  -27.6642   16.4527 C.3       9 UNK        -0.2003 
     42 N         -48.9511  -25.3698   15.9860 N.am      9 UNK        -0.4272 
     43 C         -47.9393  -24.7571   16.6182 C.2       9 UNK         0.4988 
     44 O         -47.8819  -24.6052   17.8397 O.2       9 UNK        -0.5108 
     45 CA        -46.7528  -24.2842   15.7636 C.3       8 UNK         0.0248 
     46 CB        -45.8768  -25.4819   15.3603 C.3       8 UNK        -0.2001 
     47 N         -47.1437  -23.5327   14.5721 N.am      8 UNK        -0.4140 
     48 C         -47.6198  -22.2801   14.5955 C.2       8 UNK         0.5028 
     49 O         -47.7908  -21.6289   15.6271 O.2       8 UNK        -0.5428 
     50 CA        -47.9612  -21.6376   13.2394 C.3       7 UNK         0.0264 
     51 CB        -46.6982  -21.0612   12.5794 C.3       7 UNK        -0.1988 
     52 N         -48.6229  -22.5596   12.3136 N.am      7 UNK        -0.4454 
     53 C         -49.8246  -23.1129   12.5318 C.2       7 UNK         0.5027 
     54 O         -50.5121  -22.8656   13.5214 O.2       7 UNK        -0.5083 
     55 CA        -50.3231  -24.1472   11.5030 C.3       6 UNK         0.0844 
     56 C56       -50.9429  -23.4451   10.2699 C.3       14 UNK        -0.0967 
     57 S57       -51.5825  -24.6343    9.0464 S.3       14 UNK        -0.2604 
     58 C58       -53.3216  -24.7792    9.5584 C.3       14 UNK         0.0134 
     59 N         -49.2752  -25.1103   11.1529 N.am      6 UNK        -0.4116 
     60 C         -48.6770  -25.9386   12.0213 C.2       5 UNK         0.5034 
     61 O         -48.9656  -26.0186   13.2160 O.2       5 UNK        -0.5045 
     62 CA        -47.5074  -26.7688   11.4766 C.3       5 UNK         0.0224 
     63 CB        -48.0115  -28.0138   10.7273 C.3       5 UNK        -0.1978 
     64 N         -46.6450  -25.9645   10.6064 N.am      5 UNK        -0.4737 
     65 C         -45.8460  -24.9822   11.0499 C.2       4 UNK         0.5027 
     66 O         -45.7262  -24.6873   12.2378 O.2       4 UNK        -0.5211 
     67 CA        -45.0804  -24.1639    9.9963 C.3       4 UNK         0.0297 
     68 CB        -43.7668  -24.8663    9.6192 C.3       4 UNK        -0.1993 
     69 N         -45.8658  -23.9094    8.7877 N.am      4 UNK        -0.4486 
     70 C         -46.9905  -23.1810    8.7494 C.2       3 UNK         0.4961 
     71 O         -47.4595  -22.5918    9.7221 O.2       3 UNK        -0.5105 
     72 CA        -47.7482  -23.1415    7.4108 C.3       3 UNK         0.0299 
     73 CB        -47.2774  -21.9499    6.5625 C.3       3 UNK        -0.1972 
     74 N         -47.6455  -24.3780    6.6248 N.am      3 UNK        -0.4305 
     75 C         -48.0286  -25.5884    7.0541 C.2       2 UNK         0.5006 
     76 O         -48.4379  -25.8141    8.1938 O.2       2 UNK        -0.5106 
     77 CA        -47.8844  -26.7496    6.0694 C.3       2 UNK         0.0296 
     78 CB        -46.6821  -27.6368    6.4376 C.3       2 UNK        -0.2002 
     79 N         -49.1142  -27.5311    6.1136 N.am      2 UNK        -0.4032 
     80 C         -49.6592  -28.1974    5.0916 C.2       1 UNK         0.5000 
     81 O         -49.1238  -28.2869    3.9844 O.2       1 UNK        -0.5238 
     82 H82       -50.6080  -30.0949    9.6185 H         1 UNK         0.0889 
     83 H83       -51.7883  -30.9928    8.6547 H         1 UNK         0.0889 
     84 H84       -52.3007  -29.6008    9.6055 H         1 UNK         0.0889 
     85 H85       -51.3098  -30.5792    6.5128 H         1 UNK         0.3028 
     86 H86       -51.0692  -29.6786    4.5666 H         1 UNK         0.0864 
     87 H87       -52.2264  -27.1026    5.7265 H         1 UNK         0.0720 
     88 H88       -52.0305  -27.4226    4.0233 H         1 UNK         0.0720 
     89 H89       -55.9617  -27.8033    5.3918 H         1 UNK         0.0814 
     90 H90       -54.7854  -26.5537    5.0809 H         1 UNK         0.0814 
     91 H91       -53.7788  -25.4238    6.9534 H         1 UNK         0.1469 
     92 H92       -54.3126  -26.9155   10.9306 H         1 UNK         0.1381 
     93 H93       -55.7340  -29.1897    7.5814 H         1 UNK         0.1206 
     94 H94       -56.7298  -29.2090   10.2435 H         1 UNK         0.0813 
     95 H95       -55.3940  -28.9701   11.3459 H         1 UNK         0.0813 
     96 H96       -56.4134  -32.6311   10.9185 H         1 UNK         0.0638 
     97 H97       -56.5559  -31.1676   11.8253 H         1 UNK         0.0638 
     98 H98       -55.4882  -32.6858   13.2506 H         1 UNK         0.0568 
     99 H99       -52.4000  -34.6955   11.8338 H         1 UNK         0.3450 
    100 H100      -52.2760  -32.9836   12.2143 H         1 UNK         0.3450 
    101 H101      -54.5357  -30.8266   13.8544 H         1 UNK         0.2987 
    102 H102      -52.2468  -29.8093   14.5622 H         1 UNK         0.0766 
    103 H103      -50.9065  -27.9374   13.5153 H         1 UNK         0.0798 
    104 H104      -51.2907  -28.5697   11.9226 H         1 UNK         0.0798 
    105 H105      -50.3276  -29.5282   13.0419 H         1 UNK         0.0798 
    106 H106      -53.2567  -27.5663   13.1344 H         1 UNK         0.3198 
    107 H107      -55.6660  -26.9517   13.1896 H         1 UNK         0.0843 
    108 H108      -56.6996  -27.5187   16.0193 H         1 UNK         0.0831 
    109 H109      -57.3993  -28.1341   14.5286 H         1 UNK         0.0831 
    110 H110      -57.4244  -26.4095   14.8546 H         1 UNK         0.0831 
    111 H111      -54.9587  -25.8016   15.7813 H         1 UNK         0.3133 
    112 H112      -52.8201  -23.4813   14.3960 H         1 UNK         0.0566 
    113 H113      -53.2947  -22.9269   16.7366 H         1 UNK         0.0814 
    114 H114      -54.7794  -23.3880   15.9288 H         1 UNK         0.0814 
    115 H115      -53.9951  -24.5094   17.0367 H         1 UNK         0.0814 
    116 H116      -50.8819  -24.2700   15.1312 H         1 UNK         0.3091 
    117 H117      -49.9131  -25.9955   17.7540 H         1 UNK         0.0702 
    118 H118      -48.6792  -27.9260   16.8921 H         1 UNK         0.0785 
    119 H119      -49.5962  -27.9094   15.3927 H         1 UNK         0.0785 
    120 H120      -50.3889  -28.3140   16.9104 H         1 UNK         0.0785 
    121 H121      -48.9146  -25.4729   14.9722 H         1 UNK         0.2998 
    122 H122      -46.1424  -23.6264   16.3863 H         1 UNK         0.0697 
    123 H123      -46.4035  -26.1601   14.6880 H         1 UNK         0.0825 
    124 H124      -45.5734  -26.0586   16.2352 H         1 UNK         0.0825 
    125 H125      -44.9663  -25.1546   14.8580 H         1 UNK         0.0825 
    126 H126      -46.9662  -23.9749   13.6753 H         1 UNK         0.3029 
    127 H127      -48.6504  -20.8125   13.4318 H         1 UNK         0.0897 
    128 H128      -46.9400  -20.5279   11.6597 H         1 UNK         0.0792 
    129 H129      -46.1980  -20.3542   13.2427 H         1 UNK         0.0792 
    130 H130      -45.9796  -21.8433   12.3323 H         1 UNK         0.0792 
    131 H131      -48.1377  -22.7585   11.4401 H         1 UNK         0.3086 
    132 H132      -51.1151  -24.7193   11.9888 H         1 UNK         0.0583 
    133 H133      -51.7501  -22.7750   10.5725 H         1 UNK         0.1020 
    134 H134      -50.2016  -22.8182    9.7716 H         1 UNK         0.1020 
    135 H135      -53.3752  -24.7748   10.6470 H         1 UNK         0.0694 
    136 H136      -53.8715  -23.9010    9.2176 H         1 UNK         0.0694 
    137 H137      -49.0044  -25.1527   10.1762 H         1 UNK         0.2989 
    138 H138      -46.9118  -27.1043   12.3286 H         1 UNK         0.1055 
    139 H139      -48.5688  -28.6680   11.3982 H         1 UNK         0.0806 
    140 H140      -47.1849  -28.5964   10.3208 H         1 UNK         0.0806 
    141 H141      -48.6787  -27.7570    9.9038 H         1 UNK         0.0806 
    142 H142      -46.7747  -26.0793    9.6092 H         1 UNK         0.3061 
    143 H143      -44.8350  -23.1981   10.4433 H         1 UNK         0.0734 
    144 H144      -43.1720  -24.2581    8.9375 H         1 UNK         0.0832 
    145 H145      -43.1558  -25.0483   10.5046 H         1 UNK         0.0832 
    146 H146      -43.9445  -25.8314    9.1429 H         1 UNK         0.0832 
    147 H147      -45.5580  -24.3551    7.9361 H         1 UNK         0.3156 
    148 H148      -48.8052  -22.9960    7.6433 H         1 UNK         0.0589 
    149 H149      -46.2338  -22.0531    6.2627 H         1 UNK         0.0808 
    150 H150      -47.8788  -21.8420    5.6596 H         1 UNK         0.0808 
    151 H151      -47.3652  -21.0161    7.1201 H         1 UNK         0.0808 
    152 H152      -47.3028  -24.2838    5.6791 H         1 UNK         0.3098 
    153 H153      -47.7430  -26.3470    5.0641 H         1 UNK         0.0720 
    154 H154      -46.5663  -28.4586    5.7307 H         1 UNK         0.0791 
    155 H155      -46.7906  -28.0668    7.4344 H         1 UNK         0.0791 
    156 H156      -45.7536  -27.0648    6.4253 H         1 UNK         0.0791 
    157 H157      -49.6513  -27.4648    6.9812 H         1 UNK         0.3028 
@<TRIPOS>BOND
     1    1    2 1    
     2    1   82 1    
     3    1   83 1    
     4    1   84 1    
     5    2    3 2    
     6    2    4 am   BACKBONE|DICT|INTERRES
     7    4    5 1    
     8    4   85 1    
     9    5    6 1    
    10    5   80 1    
    11    5   86 1    
    12    6    7 1    
    13    6   87 1    
    14    6   88 1    
    15    7    8 1    
    16    8    9 1    
    17    8   89 1    
    18    8   90 1    
    19    9   10 ar   
    20    9   14 ar   
    21   10   11 ar   
    22   10   91 1    
    23   11   12 ar   
    24   11   58 1    
    25   12   13 ar   
    26   12   92 1    
    27   13   14 ar   
    28   13   15 1    
    29   14   93 1    
    30   15   16 1    
    31   15   94 1    
    32   15   95 1    
    33   16   17 1    
    34   17   18 1    
    35   17   96 1    
    36   17   97 1    
    37   18   19 1    
    38   18   22 1    
    39   18   98 1    
    40   19   20 am   BACKBONE|DICT|INTERRES
    41   19   21 2    
    42   20   99 1    
    43   20  100 1    
    44   22   23 am   BACKBONE|DICT|INTERRES
    45   22  101 1    
    46   23   24 2    
    47   23   25 1    
    48   25   26 1    
    49   25   27 1    
    50   25  102 1    
    51   26  103 1    
    52   26  104 1    
    53   26  105 1    
    54   27   28 am   BACKBONE|DICT|INTERRES
    55   27  106 1    
    56   28   29 2    
    57   28   30 1    
    58   30   31 1    
    59   30   32 1    
    60   30  107 1    
    61   31  108 1    
    62   31  109 1    
    63   31  110 1    
    64   32   33 am   BACKBONE|DICT|INTERRES
    65   32  111 1    
    66   33   34 2    
    67   33   35 1    
    68   35   36 1    
    69   35   37 1    
    70   35  112 1    
    71   36  113 1    
    72   36  114 1    
    73   36  115 1    
    74   37   38 am   BACKBONE|DICT|INTERRES
    75   37  116 1    
    76   38   39 2    
    77   38   40 1    
    78   40   41 1    
    79   40   42 1    
    80   40  117 1    
    81   41  118 1    
    82   41  119 1    
    83   41  120 1    
    84   42   43 am   BACKBONE|DICT|INTERRES
    85   42  121 1    
    86   43   44 2    
    87   43   45 1    
    88   45   46 1    
    89   45   47 1    
    90   45  122 1    
    91   46  123 1    
    92   46  124 1    
    93   46  125 1    
    94   47   48 am   BACKBONE|DICT|INTERRES
    95   47  126 1    
    96   48   49 2    
    97   48   50 1    
    98   50   51 1    
    99   50   52 1    
   100   50  127 1    
   101   51  128 1    
   102   51  129 1    
   103   51  130 1    
   104   52   53 am   BACKBONE|DICT|INTERRES
   105   52  131 1    
   106   53   54 2    
   107   53   55 1    
   108   55   56 1    
   109   55   59 1    
   110   55  132 1    
   111   56   57 1    
   112   56  133 1    
   113   56  134 1    
   114   57   58 1    
   115   58  135 1    
   116   58  136 1    
   117   59   60 am   BACKBONE|DICT|INTERRES
   118   59  137 1    
   119   60   61 2    
   120   60   62 1    
   121   62   63 1    
   122   62   64 1    
   123   62  138 1    
   124   63  139 1    
   125   63  140 1    
   126   63  141 1    
   127   64   65 am   BACKBONE|DICT|INTERRES
   128   64  142 1    
   129   65   66 2    
   130   65   67 1    
   131   67   68 1    
   132   67   69 1    
   133   67  143 1    
   134   68  144 1    
   135   68  145 1    
   136   68  146 1    
   137   69   70 am   BACKBONE|DICT|INTERRES
   138   69  147 1    
   139   70   71 2    
   140   70   72 1    
   141   72   73 1    
   142   72   74 1    
   143   72  148 1    
   144   73  149 1    
   145   73  150 1    
   146   73  151 1    
   147   74   75 am   BACKBONE|DICT|INTERRES
   148   74  152 1    
   149   75   76 2    
   150   75   77 1    
   151   77   78 1    
   152   77   79 1    
   153   77  153 1    
   154   78  154 1    
   155   78  155 1    
   156   78  156 1    
   157   79   80 am   BACKBONE|DICT|INTERRES
   158   79  157 1    
   159   80   81 2    
@<TRIPOS>SUBSTRUCTURE
     1 UNK         1 GROUP             0       ****    0 ROOT    
