@<TRIPOS>MOLECULE
3R207
157   159    1
SMALL
USER_CHARGES


@<TRIPOS>ATOM
      1 CA        -45.9936  -28.7231    9.8657 C.3       0 UNK        -0.1975 
      2 C         -46.8722  -28.3030    8.6980 C.2       0 UNK         0.4852 
      3 O         -46.9128  -27.1192    8.3631 O.2       0 UNK        -0.5216 
      4 N         -47.5619  -29.2679    8.0725 N.am      1 UNK        -0.4461 
      5 CA        -48.5022  -29.0921    6.9538 C.3       1 UNK         0.0864 
      6 C6        -49.7912  -28.3192    7.3459 C.3       14 UNK        -0.0898 
      7 S7        -50.6812  -29.1230    8.7226 S.3       14 UNK        -0.2598 
      8 C8        -50.7149  -27.7938    9.9645 C.3       14 UNK         0.0286 
      9 C9        -51.9025  -26.8668    9.7521 C.ar      14 UNK        -0.0844 
     10 C10       -51.7943  -25.7487    8.9194 C.ar      14 UNK        -0.0881 
     11 C11       -52.8738  -24.8714    8.7623 C.ar      14 UNK        -0.0643 
     12 C12       -54.0718  -25.1311    9.4338 C.ar      14 UNK        -0.0930 
     13 C13       -54.1970  -26.2540   10.2552 C.ar      14 UNK        -0.0827 
     14 C14       -53.1110  -27.1201   10.4079 C.ar      14 UNK        -0.1249 
     15 C15       -55.5016  -26.5231   10.9860 C.3       14 UNK         0.0141 
     16 S16       -56.5907  -27.6013   10.0055 S.3       14 UNK        -0.2313 
     17 C17       -58.1277  -27.5827   10.9946 C.3       14 UNK        -0.0915 
     18 CA        -57.9573  -28.0579   12.4645 C.3       13 UNK         0.0968 
     19 C         -59.3054  -28.0295   13.2412 C.2       13 UNK         0.5732 
     20 N         -59.7106  -29.0991   13.9160 N.am      13 UNK        -0.7310 
     21 O         -59.9927  -27.0108   13.2449 O.2       13 UNK        -0.5035 
     22 N         -57.2519  -29.3481   12.5404 N.am      13 UNK        -0.4233 
     23 C         -56.3165  -29.6471   13.4460 C.2       13 UNK         0.4989 
     24 O         -55.9265  -28.8690   14.3209 O.2       13 UNK        -0.4996 
     25 CA        -55.6765  -31.0393   13.3151 C.3       12 UNK         0.0216 
     26 CB        -54.5426  -31.0058   12.2759 C.3       12 UNK        -0.1964 
     27 N         -55.1295  -31.4839   14.5949 N.am      12 UNK        -0.4276 
     28 C         -55.8457  -31.8619   15.6589 C.2       12 UNK         0.5020 
     29 O         -57.0610  -32.0624   15.6288 O.2       12 UNK        -0.5489 
     30 CA        -55.0858  -32.0043   16.9924 C.3       11 UNK         0.0294 
     31 CB        -54.2586  -33.3048   17.0357 C.3       11 UNK        -0.2019 
     32 N         -54.2757  -30.8234   17.3423 N.am      11 UNK        -0.4493 
     33 C         -53.1941  -30.3379   16.7168 C.2       11 UNK         0.4932 
     34 O         -52.6552  -30.8749   15.7436 O.2       11 UNK        -0.5029 
     35 CA        -52.6283  -29.0188   17.2512 C.3       10 UNK         0.0280 
     36 CB        -51.6633  -29.2583   18.4258 C.3       10 UNK        -0.1976 
     37 N         -51.9281  -28.3666   16.1508 N.am      10 UNK        -0.4242 
     38 C         -51.7392  -27.0538   16.0006 C.2       10 UNK         0.5072 
     39 O         -52.1010  -26.2028   16.8176 O.2       10 UNK        -0.5224 
     40 CA        -51.0645  -26.6231   14.6865 C.3       9 UNK         0.0343 
     41 CB        -52.1223  -26.2638   13.6317 C.3       9 UNK        -0.2003 
     42 N         -50.1654  -25.4836   14.8681 N.am      9 UNK        -0.4272 
     43 C         -49.0286  -25.5109   15.5797 C.2       9 UNK         0.4988 
     44 O         -48.6131  -26.5192   16.1541 O.2       9 UNK        -0.5108 
     45 CA        -48.1940  -24.2186   15.6555 C.3       8 UNK         0.0248 
     46 CB        -46.7348  -24.4848   15.2432 C.3       8 UNK        -0.2001 
     47 N         -48.7316  -23.1568   14.8013 N.am      8 UNK        -0.4140 
     48 C         -49.3951  -22.0760   15.2354 C.2       8 UNK         0.5028 
     49 O         -49.6322  -21.8515   16.4230 O.2       8 UNK        -0.5428 
     50 CA        -49.8713  -21.0579   14.1800 C.3       7 UNK         0.0264 
     51 CB        -48.9584  -19.8204   14.1807 C.3       7 UNK        -0.1988 
     52 N         -49.9371  -21.5975   12.8189 N.am      7 UNK        -0.4454 
     53 C         -50.8495  -22.4820   12.3911 C.2       7 UNK         0.5027 
     54 O         -51.7588  -22.9146   13.0987 O.2       7 UNK        -0.5083 
     55 CA        -50.6937  -23.0007   10.9469 C.3       6 UNK         0.0844 
     56 C56       -51.5447  -22.1545    9.9630 C.3       14 UNK        -0.0967 
     57 S57       -51.3006  -22.6221    8.2111 S.3       14 UNK        -0.2604 
     58 C58       -52.7642  -23.6479    7.8604 C.3       14 UNK         0.0134 
     59 N         -49.2943  -23.1124   10.5162 N.am      6 UNK        -0.4116 
     60 C         -48.3428  -23.8647   11.0825 C.2       5 UNK         0.5034 
     61 O         -48.4982  -24.4707   12.1435 O.2       5 UNK        -0.5045 
     62 CA        -47.0001  -23.9514   10.3302 C.3       5 UNK         0.0224 
     63 CB        -46.0198  -24.9450   10.9794 C.3       5 UNK        -0.1978 
     64 N         -47.1834  -24.3243    8.9243 N.am      5 UNK        -0.4737 
     65 C         -47.5423  -23.4893    7.9401 C.2       4 UNK         0.5027 
     66 O         -47.7854  -22.2957    8.1275 O.2       4 UNK        -0.5211 
     67 CA        -47.6475  -24.0981    6.5286 C.3       4 UNK         0.0297 
     68 CB        -47.8315  -23.0406    5.4205 C.3       4 UNK        -0.1993 
     69 N         -46.5219  -24.9906    6.2330 N.am      4 UNK        -0.4486 
     70 C         -45.2152  -24.6796    6.2119 C.2       3 UNK         0.4961 
     71 O         -44.7765  -23.5335    6.3141 O.2       3 UNK        -0.5105 
     72 CA        -44.2125  -25.8428    6.0901 C.3       3 UNK         0.0299 
     73 CB        -43.5131  -26.0814    7.4393 C.3       3 UNK        -0.1972 
     74 N         -44.8335  -27.0947    5.6535 N.am      3 UNK        -0.4305 
     75 C         -45.1370  -27.3955    4.3833 C.2       2 UNK         0.5006 
     76 O         -44.8606  -26.6760    3.4228 O.2       2 UNK        -0.5106 
     77 CA        -45.8873  -28.7189    4.1416 C.3       2 UNK         0.0296 
     78 CB        -44.8972  -29.8403    3.7866 C.3       2 UNK        -0.2002 
     79 N         -46.7176  -29.1448    5.2751 N.am      2 UNK        -0.4032 
     80 C         -47.8009  -28.4884    5.7178 C.2       1 UNK         0.5000 
     81 O         -48.2068  -27.4357    5.2207 O.2       1 UNK        -0.5238 
     82 H82       -45.0147  -28.2505    9.7912 H         1 UNK         0.0889 
     83 H83       -45.8460  -29.8024    9.8953 H         1 UNK         0.0889 
     84 H84       -46.4506  -28.4157   10.8056 H         1 UNK         0.0889 
     85 H85       -47.4780  -30.2173    8.4090 H         1 UNK         0.3028 
     86 H86       -48.8096  -30.0957    6.6547 H         1 UNK         0.0864 
     87 H87       -50.4777  -28.2657    6.4990 H         1 UNK         0.0720 
     88 H88       -49.5499  -27.2875    7.6039 H         1 UNK         0.0720 
     89 H89       -49.7787  -27.2325    9.9493 H         1 UNK         0.0814 
     90 H90       -50.7747  -28.2451   10.9561 H         1 UNK         0.0814 
     91 H91       -50.8646  -25.5454    8.4074 H         1 UNK         0.1469 
     92 H92       -54.9129  -24.4619    9.3144 H         1 UNK         0.1381 
     93 H93       -53.2052  -27.9893   11.0445 H         1 UNK         0.1206 
     94 H94       -55.2870  -26.9909   11.9477 H         1 UNK         0.0813 
     95 H95       -56.0142  -25.5847   11.2030 H         1 UNK         0.0813 
     96 H96       -58.5293  -26.5681   10.9664 H         1 UNK         0.0638 
     97 H97       -58.8565  -28.2108   10.4792 H         1 UNK         0.0638 
     98 H98       -57.3529  -27.3029   12.9685 H         1 UNK         0.0568 
     99 H99       -60.5834  -29.0627   14.4186 H         1 UNK         0.3450 
    100 H100      -59.1478  -29.9342   13.9413 H         1 UNK         0.3450 
    101 H101      -57.5123  -30.0343   11.8473 H         1 UNK         0.2987 
    102 H102      -56.4376  -31.7536   12.9939 H         1 UNK         0.0766 
    103 H103      -54.9124  -30.6935   11.2980 H         1 UNK         0.0798 
    104 H104      -54.0899  -31.9896   12.1509 H         1 UNK         0.0798 
    105 H105      -53.7540  -30.3083   12.5623 H         1 UNK         0.0798 
    106 H106      -54.1429  -31.2982   14.7621 H         1 UNK         0.3198 
    107 H107      -55.8443  -32.0802   17.7736 H         1 UNK         0.0843 
    108 H108      -53.4843  -33.3290   16.2686 H         1 UNK         0.0831 
    109 H109      -54.8972  -34.1743   16.8747 H         1 UNK         0.0831 
    110 H110      -53.7744  -33.4338   18.0037 H         1 UNK         0.0831 
    111 H111      -54.6405  -30.2817   18.1147 H         1 UNK         0.3133 
    112 H112      -53.4589  -28.3884   17.5763 H         1 UNK         0.0566 
    113 H113      -50.8227  -29.8889   18.1329 H         1 UNK         0.0814 
    114 H114      -52.1696  -29.7520   19.2561 H         1 UNK         0.0814 
    115 H115      -51.2597  -28.3193   18.8051 H         1 UNK         0.0814 
    116 H116      -51.6541  -29.0053   15.4134 H         1 UNK         0.3091 
    117 H117      -50.4679  -27.4554   14.3067 H         1 UNK         0.0702 
    118 H118      -51.6586  -25.9836   12.6856 H         1 UNK         0.0785 
    119 H119      -52.7471  -25.4302   13.9554 H         1 UNK         0.0785 
    120 H120      -52.7838  -27.1085   13.4352 H         1 UNK         0.0785 
    121 H121      -50.4533  -24.6107   14.4494 H         1 UNK         0.2998 
    122 H122      -48.1954  -23.9009   16.7000 H         1 UNK         0.0697 
    123 H123      -46.6717  -24.8860   14.2315 H         1 UNK         0.0825 
    124 H124      -46.2640  -25.2087   15.9097 H         1 UNK         0.0825 
    125 H125      -46.1370  -23.5742   15.2830 H         1 UNK         0.0825 
    126 H126      -48.6223  -23.3057   13.8033 H         1 UNK         0.3029 
    127 H127      -50.8762  -20.7412   14.4687 H         1 UNK         0.0897 
    128 H128      -47.9372  -20.0708   13.8903 H         1 UNK         0.0792 
    129 H129      -48.9128  -19.3694   15.1732 H         1 UNK         0.0792 
    130 H130      -49.3256  -19.0546   13.4971 H         1 UNK         0.0792 
    131 H131      -49.2228  -21.2945   12.1722 H         1 UNK         0.3086 
    132 H132      -51.0930  -24.0158   10.9482 H         1 UNK         0.0583 
    133 H133      -52.6046  -22.2321   10.2138 H         1 UNK         0.1020 
    134 H134      -51.2919  -21.0962   10.0535 H         1 UNK         0.1020 
    135 H135      -53.6541  -23.0217    7.9416 H         1 UNK         0.0694 
    136 H136      -52.7165  -23.9819    6.8233 H         1 UNK         0.0694 
    137 H137      -49.0636  -22.6580    9.6377 H         1 UNK         0.2989 
    138 H138      -46.5440  -22.9598   10.3731 H         1 UNK         0.1055 
    139 H139      -45.0851  -25.0045   10.4216 H         1 UNK         0.0806 
    140 H140      -46.4431  -25.9481   11.0327 H         1 UNK         0.0806 
    141 H141      -45.7697  -24.6400   11.9958 H         1 UNK         0.0806 
    142 H142      -47.0420  -25.3080    8.6946 H         1 UNK         0.3061 
    143 H143      -48.5394  -24.7269    6.5353 H         1 UNK         0.0734 
    144 H144      -47.0002  -22.3360    5.3882 H         1 UNK         0.0832 
    145 H145      -47.9172  -23.5064    4.4389 H         1 UNK         0.0832 
    146 H146      -48.7410  -22.4614    5.5856 H         1 UNK         0.0832 
    147 H147      -46.7722  -25.9692    6.1533 H         1 UNK         0.3156 
    148 H148      -43.4542  -25.5513    5.3603 H         1 UNK         0.0589 
    149 H149      -42.7730  -26.8787    7.3699 H         1 UNK         0.0808 
    150 H150      -42.9897  -25.1835    7.7709 H         1 UNK         0.0808 
    151 H151      -44.2246  -26.3473    8.2218 H         1 UNK         0.0808 
    152 H152      -45.1064  -27.7410    6.3792 H         1 UNK         0.3098 
    153 H153      -46.5483  -28.5645    3.2859 H         1 UNK         0.0720 
    154 H154      -44.2840  -29.5619    2.9282 H         1 UNK         0.0791 
    155 H155      -45.4176  -30.7617    3.5239 H         1 UNK         0.0791 
    156 H156      -44.2198  -30.0594    4.6130 H         1 UNK         0.0791 
    157 H157      -46.4413  -29.9936    5.7481 H         1 UNK         0.3028 
@<TRIPOS>BOND
     1    1    2 1    
     2    1   82 1    
     3    1   83 1    
     4    1   84 1    
     5    2    3 2    
     6    2    4 am   BACKBONE|DICT|INTERRES
     7    4    5 1    
     8    4   85 1    
     9    5    6 1    
    10    5   80 1    
    11    5   86 1    
    12    6    7 1    
    13    6   87 1    
    14    6   88 1    
    15    7    8 1    
    16    8    9 1    
    17    8   89 1    
    18    8   90 1    
    19    9   10 ar   
    20    9   14 ar   
    21   10   11 ar   
    22   10   91 1    
    23   11   12 ar   
    24   11   58 1    
    25   12   13 ar   
    26   12   92 1    
    27   13   14 ar   
    28   13   15 1    
    29   14   93 1    
    30   15   16 1    
    31   15   94 1    
    32   15   95 1    
    33   16   17 1    
    34   17   18 1    
    35   17   96 1    
    36   17   97 1    
    37   18   19 1    
    38   18   22 1    
    39   18   98 1    
    40   19   20 am   BACKBONE|DICT|INTERRES
    41   19   21 2    
    42   20   99 1    
    43   20  100 1    
    44   22   23 am   BACKBONE|DICT|INTERRES
    45   22  101 1    
    46   23   24 2    
    47   23   25 1    
    48   25   26 1    
    49   25   27 1    
    50   25  102 1    
    51   26  103 1    
    52   26  104 1    
    53   26  105 1    
    54   27   28 am   BACKBONE|DICT|INTERRES
    55   27  106 1    
    56   28   29 2    
    57   28   30 1    
    58   30   31 1    
    59   30   32 1    
    60   30  107 1    
    61   31  108 1    
    62   31  109 1    
    63   31  110 1    
    64   32   33 am   BACKBONE|DICT|INTERRES
    65   32  111 1    
    66   33   34 2    
    67   33   35 1    
    68   35   36 1    
    69   35   37 1    
    70   35  112 1    
    71   36  113 1    
    72   36  114 1    
    73   36  115 1    
    74   37   38 am   BACKBONE|DICT|INTERRES
    75   37  116 1    
    76   38   39 2    
    77   38   40 1    
    78   40   41 1    
    79   40   42 1    
    80   40  117 1    
    81   41  118 1    
    82   41  119 1    
    83   41  120 1    
    84   42   43 am   BACKBONE|DICT|INTERRES
    85   42  121 1    
    86   43   44 2    
    87   43   45 1    
    88   45   46 1    
    89   45   47 1    
    90   45  122 1    
    91   46  123 1    
    92   46  124 1    
    93   46  125 1    
    94   47   48 am   BACKBONE|DICT|INTERRES
    95   47  126 1    
    96   48   49 2    
    97   48   50 1    
    98   50   51 1    
    99   50   52 1    
   100   50  127 1    
   101   51  128 1    
   102   51  129 1    
   103   51  130 1    
   104   52   53 am   BACKBONE|DICT|INTERRES
   105   52  131 1    
   106   53   54 2    
   107   53   55 1    
   108   55   56 1    
   109   55   59 1    
   110   55  132 1    
   111   56   57 1    
   112   56  133 1    
   113   56  134 1    
   114   57   58 1    
   115   58  135 1    
   116   58  136 1    
   117   59   60 am   BACKBONE|DICT|INTERRES
   118   59  137 1    
   119   60   61 2    
   120   60   62 1    
   121   62   63 1    
   122   62   64 1    
   123   62  138 1    
   124   63  139 1    
   125   63  140 1    
   126   63  141 1    
   127   64   65 am   BACKBONE|DICT|INTERRES
   128   64  142 1    
   129   65   66 2    
   130   65   67 1    
   131   67   68 1    
   132   67   69 1    
   133   67  143 1    
   134   68  144 1    
   135   68  145 1    
   136   68  146 1    
   137   69   70 am   BACKBONE|DICT|INTERRES
   138   69  147 1    
   139   70   71 2    
   140   70   72 1    
   141   72   73 1    
   142   72   74 1    
   143   72  148 1    
   144   73  149 1    
   145   73  150 1    
   146   73  151 1    
   147   74   75 am   BACKBONE|DICT|INTERRES
   148   74  152 1    
   149   75   76 2    
   150   75   77 1    
   151   77   78 1    
   152   77   79 1    
   153   77  153 1    
   154   78  154 1    
   155   78  155 1    
   156   78  156 1    
   157   79   80 am   BACKBONE|DICT|INTERRES
   158   79  157 1    
   159   80   81 2    
@<TRIPOS>SUBSTRUCTURE
     1 UNK         1 GROUP             0       ****    0 ROOT    
