@<TRIPOS>MOLECULE
3R207
157   159    1
SMALL
USER_CHARGES


@<TRIPOS>ATOM
      1 CA        -47.5066  -27.9848    3.9070 C.3       0 UNK        -0.1975 
      2 C         -48.3582  -26.8370    4.4269 C.2       0 UNK         0.4852 
      3 O         -48.2089  -25.7064    3.9602 O.2       0 UNK        -0.5216 
      4 N         -49.2393  -27.1152    5.3985 N.am      1 UNK        -0.4461 
      5 CA        -50.1334  -26.1516    6.0519 C.3       1 UNK         0.0864 
      6 C6        -51.0196  -26.8238    7.1256 C.3       14 UNK        -0.0898 
      7 S7        -52.2152  -28.0177    6.4401 S.3       14 UNK        -0.2598 
      8 C8        -51.5217  -29.6332    6.9331 C.3       14 UNK         0.0286 
      9 C9        -51.3526  -29.8006    8.4406 C.ar      14 UNK        -0.0844 
     10 C10       -50.1085  -30.1682    8.9632 C.ar      14 UNK        -0.0881 
     11 C11       -49.9389  -30.3578   10.3380 C.ar      14 UNK        -0.0643 
     12 C12       -51.0220  -30.1643   11.1978 C.ar      14 UNK        -0.0930 
     13 C13       -52.2716  -29.7967   10.6899 C.ar      14 UNK        -0.0827 
     14 C14       -52.4342  -29.6248    9.3110 C.ar      14 UNK        -0.1249 
     15 C15       -53.4357  -29.5651   11.6388 C.3       14 UNK         0.0141 
     16 S16       -54.6052  -30.9556   11.6253 S.3       14 UNK        -0.2313 
     17 C17       -55.4125  -30.7578   13.2487 C.3       14 UNK        -0.0915 
     18 CA        -56.6547  -29.8321   13.2070 C.3       13 UNK         0.0968 
     19 C         -57.4799  -29.9513   14.5138 C.2       13 UNK         0.5732 
     20 N         -58.7101  -30.4402   14.4356 N.am      13 UNK        -0.7310 
     21 O         -56.9966  -29.6449   15.6020 O.2       13 UNK        -0.5035 
     22 N         -56.2795  -28.4319   12.9817 N.am      13 UNK        -0.4233 
     23 C         -57.0874  -27.5119   12.4405 C.2       13 UNK         0.4989 
     24 O         -58.1998  -27.7741   11.9778 O.2       13 UNK        -0.4996 
     25 CA        -56.5632  -26.0602   12.3928 C.3       12 UNK         0.0216 
     26 CB        -57.6847  -25.0241   12.1658 C.3       12 UNK        -0.1964 
     27 N         -55.7486  -25.6873   13.5548 N.am      12 UNK        -0.4276 
     28 C         -56.1008  -25.7139   14.8480 C.2       12 UNK         0.5020 
     29 O         -57.2160  -26.0357   15.2638 O.2       12 UNK        -0.5489 
     30 CA        -54.9975  -25.3102   15.8442 C.3       11 UNK         0.0294 
     31 CB        -55.5795  -24.5634   17.0580 C.3       11 UNK        -0.2019 
     32 N         -54.1587  -26.4121   16.3333 N.am      11 UNK        -0.4493 
     33 C         -53.6552  -27.4617   15.6649 C.2       11 UNK         0.4932 
     34 O         -53.9250  -27.7669   14.5030 O.2       11 UNK        -0.5029 
     35 CA        -52.5774  -28.2496   16.4233 C.3       10 UNK         0.0280 
     36 CB        -52.2453  -29.6030   15.7690 C.3       10 UNK        -0.1976 
     37 N         -51.3716  -27.4264   16.4464 N.am      10 UNK        -0.4242 
     38 C         -51.0564  -26.5485   17.4065 C.2       10 UNK         0.5072 
     39 O         -51.6844  -26.4274   18.4594 O.2       10 UNK        -0.5224 
     40 CA        -49.8782  -25.6088   17.1098 C.3       9 UNK         0.0343 
     41 CB        -48.5432  -26.3727   17.0782 C.3       9 UNK        -0.2003 
     42 N         -50.0722  -24.8933   15.8467 N.am      9 UNK        -0.4272 
     43 C         -50.9554  -23.9003   15.6565 C.2       9 UNK         0.4988 
     44 O         -51.6741  -23.4398   16.5434 O.2       9 UNK        -0.5108 
     45 CA        -51.0556  -23.3211   14.2357 C.3       8 UNK         0.0248 
     46 CB        -50.0132  -22.2104   14.0279 C.3       8 UNK        -0.2001 
     47 N         -50.8838  -24.3632   13.2212 N.am      8 UNK        -0.4140 
     48 C         -51.8763  -25.1696   12.8150 C.2       8 UNK         0.5028 
     49 O         -53.0551  -25.0047   13.1291 O.2       8 UNK        -0.5428 
     50 CA        -51.5247  -26.3581   11.9029 C.3       7 UNK         0.0264 
     51 CB        -51.9856  -26.0798   10.4670 C.3       7 UNK        -0.1988 
     52 N         -50.1062  -26.7241   11.8944 N.am      7 UNK        -0.4454 
     53 C         -49.4478  -27.2482   12.9379 C.2       7 UNK         0.5027 
     54 O         -49.9933  -27.5459   14.0003 O.2       7 UNK        -0.5083 
     55 CA        -47.9141  -27.3889   12.8290 C.3       6 UNK         0.0844 
     56 C56       -47.4673  -28.8637   12.6560 C.3       14 UNK        -0.0967 
     57 S57       -47.3929  -29.4416   10.9227 S.3       14 UNK        -0.2604 
     58 C58       -48.5916  -30.8076   10.8794 C.3       14 UNK         0.0134 
     59 N         -47.2925  -26.4899   11.8483 N.am      6 UNK        -0.4116 
     60 C         -47.3599  -25.1533   11.8438 C.2       5 UNK         0.5034 
     61 O         -47.9706  -24.5113   12.6992 O.2       5 UNK        -0.5045 
     62 CA        -46.7048  -24.3953   10.6747 C.3       5 UNK         0.0224 
     63 CB        -45.4545  -23.6237   11.1393 C.3       5 UNK        -0.1978 
     64 N         -46.4275  -25.2005    9.4741 N.am      5 UNK        -0.4737 
     65 C         -45.5103  -26.1615    9.2846 C.2       4 UNK         0.5027 
     66 O         -44.7691  -26.5870   10.1690 O.2       4 UNK        -0.5211 
     67 CA        -45.4122  -26.7553    7.8694 C.3       4 UNK         0.0297 
     68 CB        -46.3707  -27.9459    7.7063 C.3       4 UNK        -0.1993 
     69 N         -45.7051  -25.7522    6.8436 N.am      4 UNK        -0.4486 
     70 C         -44.7944  -24.9277    6.3063 C.2       3 UNK         0.4961 
     71 O         -43.5938  -24.9660    6.5773 O.2       3 UNK        -0.5105 
     72 CA        -45.2932  -23.8865    5.2872 C.3       3 UNK         0.0299 
     73 CB        -45.0443  -24.3768    3.8515 C.3       3 UNK        -0.1972 
     74 N         -46.7126  -23.5628    5.4551 N.am      3 UNK        -0.4305 
     75 C         -47.1825  -22.7305    6.3980 C.2       2 UNK         0.5006 
     76 O         -46.4613  -22.0952    7.1675 O.2       2 UNK        -0.5106 
     77 CA        -48.7122  -22.5947    6.5340 C.3       2 UNK         0.0296 
     78 CB        -49.2161  -21.3805    5.7373 C.3       2 UNK        -0.2002 
     79 N         -49.4616  -23.7877    6.1262 N.am      2 UNK        -0.4032 
     80 C         -49.3289  -24.9990    6.6832 C.2       1 UNK         0.5000 
     81 O         -48.5666  -25.2385    7.6222 O.2       1 UNK        -0.5238 
     82 H82       -47.7600  -28.9310    4.3848 H         1 UNK         0.0889 
     83 H83       -46.4521  -27.7819    4.0921 H         1 UNK         0.0889 
     84 H84       -47.6484  -28.0987    2.8327 H         1 UNK         0.0889 
     85 H85       -49.3106  -28.0613    5.7399 H         1 UNK         0.3028 
     86 H86       -50.7857  -25.7369    5.2805 H         1 UNK         0.0864 
     87 H87       -51.6117  -26.0649    7.6393 H         1 UNK         0.0720 
     88 H88       -50.4046  -27.3008    7.8909 H         1 UNK         0.0720 
     89 H89       -50.5722  -29.7788    6.4168 H         1 UNK         0.0814 
     90 H90       -52.1853  -30.4193    6.5708 H         1 UNK         0.0814 
     91 H91       -49.2667  -30.3203    8.3015 H         1 UNK         0.1469 
     92 H92       -50.8927  -30.3027   12.2626 H         1 UNK         0.1381 
     93 H93       -53.4014  -29.3451    8.9162 H         1 UNK         0.1206 
     94 H94       -53.9583  -28.6480   11.3645 H         1 UNK         0.0813 
     95 H95       -53.0595  -29.4157   12.6502 H         1 UNK         0.0813 
     96 H96       -54.6887  -30.4072   13.9846 H         1 UNK         0.0638 
     97 H97       -55.7026  -31.7594   13.5719 H         1 UNK         0.0638 
     98 H98       -57.2799  -30.1629   12.3749 H         1 UNK         0.0568 
     99 H99       -59.2525  -30.5378   15.2795 H         1 UNK         0.3450 
    100 H100      -59.1140  -30.6938   13.5474 H         1 UNK         0.3450 
    101 H101      -55.4155  -28.1288   13.4261 H         1 UNK         0.2987 
    102 H102      -55.8934  -26.0143   11.5328 H         1 UNK         0.0766 
    103 H103      -57.2839  -24.0121   12.1082 H         1 UNK         0.0798 
    104 H104      -58.4232  -25.0475   12.9680 H         1 UNK         0.0798 
    105 H105      -58.2130  -25.2148   11.2309 H         1 UNK         0.0798 
    106 H106      -54.7728  -25.4563   13.3521 H         1 UNK         0.3198 
    107 H107      -54.3317  -24.6113   15.3359 H         1 UNK         0.0843 
    108 H108      -56.1876  -25.2199   17.6817 H         1 UNK         0.0831 
    109 H109      -56.2147  -23.7356   16.7396 H         1 UNK         0.0831 
    110 H110      -54.7902  -24.1416   17.6809 H         1 UNK         0.0831 
    111 H111      -53.8118  -26.2889   17.2752 H         1 UNK         0.3133 
    112 H112      -52.9332  -28.4418   17.4377 H         1 UNK         0.0566 
    113 H113      -51.8831  -29.4840   14.7475 H         1 UNK         0.0814 
    114 H114      -51.4777  -30.1340   16.3319 H         1 UNK         0.0814 
    115 H115      -53.1253  -30.2452   15.7376 H         1 UNK         0.0814 
    116 H116      -50.8242  -27.4285   15.5858 H         1 UNK         0.3091 
    117 H117      -49.8254  -24.8726   17.9149 H         1 UNK         0.0702 
    118 H118      -47.7031  -25.6940   16.9297 H         1 UNK         0.0785 
    119 H119      -48.5142  -27.1188   16.2837 H         1 UNK         0.0785 
    120 H120      -48.3734  -26.8952   18.0206 H         1 UNK         0.0785 
    121 H121      -49.5346  -25.2149   15.0557 H         1 UNK         0.2998 
    122 H122      -52.0455  -22.8727   14.1246 H         1 UNK         0.0697 
    123 H123      -48.9957  -22.5701   14.1840 H         1 UNK         0.0825 
    124 H124      -50.1769  -21.3904   14.7284 H         1 UNK         0.0825 
    125 H125      -50.0711  -21.7942   13.0221 H         1 UNK         0.0825 
    126 H126      -49.9360  -24.5304   12.8973 H         1 UNK         0.3029 
    127 H127      -52.0838  -27.2118   12.2872 H         1 UNK         0.0897 
    128 H128      -53.0454  -25.8228   10.4357 H         1 UNK         0.0792 
    129 H129      -51.8528  -26.9610    9.8430 H         1 UNK         0.0792 
    130 H130      -51.4325  -25.2546   10.0169 H         1 UNK         0.0792 
    131 H131      -49.5862  -26.5235   11.0527 H         1 UNK         0.3086 
    132 H132      -47.5368  -27.0638   13.8010 H         1 UNK         0.0583 
    133 H133      -46.4584  -28.9687   13.0581 H         1 UNK         0.1020 
    134 H134      -48.0788  -29.5352   13.2620 H         1 UNK         0.1020 
    135 H135      -48.1950  -31.5913   10.2322 H         1 UNK         0.0694 
    136 H136      -48.6949  -31.2622   11.8656 H         1 UNK         0.0694 
    137 H137      -46.7411  -26.9364   11.1268 H         1 UNK         0.2989 
    138 H138      -47.4414  -23.6551   10.3570 H         1 UNK         0.1055 
    139 H139      -45.7011  -22.9356   11.9491 H         1 UNK         0.0806 
    140 H140      -45.0326  -23.0304   10.3278 H         1 UNK         0.0806 
    141 H141      -44.6756  -24.2907   11.5095 H         1 UNK         0.0806 
    142 H142      -47.0727  -25.0351    8.7036 H         1 UNK         0.3061 
    143 H143      -44.3937  -27.1251    7.7311 H         1 UNK         0.0734 
    144 H144      -46.3300  -28.3543    6.6972 H         1 UNK         0.0832 
    145 H145      -46.0961  -28.7530    8.3855 H         1 UNK         0.0832 
    146 H146      -47.4051  -27.6750    7.9214 H         1 UNK         0.0832 
    147 H147      -46.6812  -25.6063    6.6223 H         1 UNK         0.3156 
    148 H148      -44.7081  -22.9758    5.4333 H         1 UNK         0.0589 
    149 H149      -45.5682  -25.3096    3.6428 H         1 UNK         0.0808 
    150 H150      -45.3678  -23.6386    3.1175 H         1 UNK         0.0808 
    151 H151      -43.9820  -24.5576    3.6817 H         1 UNK         0.0808 
    152 H152      -47.3672  -24.0679    4.8644 H         1 UNK         0.3098 
    153 H153      -48.9266  -22.4218    7.5908 H         1 UNK         0.0720 
    154 H154      -50.2801  -21.2099    5.9024 H         1 UNK         0.0791 
    155 H155      -49.0568  -21.5062    4.6655 H         1 UNK         0.0791 
    156 H156      -48.6942  -20.4713    6.0396 H         1 UNK         0.0791 
    157 H157      -50.0793  -23.6822    5.3339 H         1 UNK         0.3028 
@<TRIPOS>BOND
     1    1    2 1    
     2    1   82 1    
     3    1   83 1    
     4    1   84 1    
     5    2    3 2    
     6    2    4 am   BACKBONE|DICT|INTERRES
     7    4    5 1    
     8    4   85 1    
     9    5    6 1    
    10    5   80 1    
    11    5   86 1    
    12    6    7 1    
    13    6   87 1    
    14    6   88 1    
    15    7    8 1    
    16    8    9 1    
    17    8   89 1    
    18    8   90 1    
    19    9   10 ar   
    20    9   14 ar   
    21   10   11 ar   
    22   10   91 1    
    23   11   12 ar   
    24   11   58 1    
    25   12   13 ar   
    26   12   92 1    
    27   13   14 ar   
    28   13   15 1    
    29   14   93 1    
    30   15   16 1    
    31   15   94 1    
    32   15   95 1    
    33   16   17 1    
    34   17   18 1    
    35   17   96 1    
    36   17   97 1    
    37   18   19 1    
    38   18   22 1    
    39   18   98 1    
    40   19   20 am   BACKBONE|DICT|INTERRES
    41   19   21 2    
    42   20   99 1    
    43   20  100 1    
    44   22   23 am   BACKBONE|DICT|INTERRES
    45   22  101 1    
    46   23   24 2    
    47   23   25 1    
    48   25   26 1    
    49   25   27 1    
    50   25  102 1    
    51   26  103 1    
    52   26  104 1    
    53   26  105 1    
    54   27   28 am   BACKBONE|DICT|INTERRES
    55   27  106 1    
    56   28   29 2    
    57   28   30 1    
    58   30   31 1    
    59   30   32 1    
    60   30  107 1    
    61   31  108 1    
    62   31  109 1    
    63   31  110 1    
    64   32   33 am   BACKBONE|DICT|INTERRES
    65   32  111 1    
    66   33   34 2    
    67   33   35 1    
    68   35   36 1    
    69   35   37 1    
    70   35  112 1    
    71   36  113 1    
    72   36  114 1    
    73   36  115 1    
    74   37   38 am   BACKBONE|DICT|INTERRES
    75   37  116 1    
    76   38   39 2    
    77   38   40 1    
    78   40   41 1    
    79   40   42 1    
    80   40  117 1    
    81   41  118 1    
    82   41  119 1    
    83   41  120 1    
    84   42   43 am   BACKBONE|DICT|INTERRES
    85   42  121 1    
    86   43   44 2    
    87   43   45 1    
    88   45   46 1    
    89   45   47 1    
    90   45  122 1    
    91   46  123 1    
    92   46  124 1    
    93   46  125 1    
    94   47   48 am   BACKBONE|DICT|INTERRES
    95   47  126 1    
    96   48   49 2    
    97   48   50 1    
    98   50   51 1    
    99   50   52 1    
   100   50  127 1    
   101   51  128 1    
   102   51  129 1    
   103   51  130 1    
   104   52   53 am   BACKBONE|DICT|INTERRES
   105   52  131 1    
   106   53   54 2    
   107   53   55 1    
   108   55   56 1    
   109   55   59 1    
   110   55  132 1    
   111   56   57 1    
   112   56  133 1    
   113   56  134 1    
   114   57   58 1    
   115   58  135 1    
   116   58  136 1    
   117   59   60 am   BACKBONE|DICT|INTERRES
   118   59  137 1    
   119   60   61 2    
   120   60   62 1    
   121   62   63 1    
   122   62   64 1    
   123   62  138 1    
   124   63  139 1    
   125   63  140 1    
   126   63  141 1    
   127   64   65 am   BACKBONE|DICT|INTERRES
   128   64  142 1    
   129   65   66 2    
   130   65   67 1    
   131   67   68 1    
   132   67   69 1    
   133   67  143 1    
   134   68  144 1    
   135   68  145 1    
   136   68  146 1    
   137   69   70 am   BACKBONE|DICT|INTERRES
   138   69  147 1    
   139   70   71 2    
   140   70   72 1    
   141   72   73 1    
   142   72   74 1    
   143   72  148 1    
   144   73  149 1    
   145   73  150 1    
   146   73  151 1    
   147   74   75 am   BACKBONE|DICT|INTERRES
   148   74  152 1    
   149   75   76 2    
   150   75   77 1    
   151   77   78 1    
   152   77   79 1    
   153   77  153 1    
   154   78  154 1    
   155   78  155 1    
   156   78  156 1    
   157   79   80 am   BACKBONE|DICT|INTERRES
   158   79  157 1    
   159   80   81 2    
@<TRIPOS>SUBSTRUCTURE
     1 UNK         1 GROUP             0       ****    0 ROOT    
