@<TRIPOS>MOLECULE
3R207
157   159    1
SMALL
USER_CHARGES


@<TRIPOS>ATOM
      1 CA        -44.8613  -30.9138    8.8705 C.3       0 UNK        -0.1975 
      2 C         -46.1160  -30.7239    8.0310 C.2       0 UNK         0.4852 
      3 O         -46.1374  -31.1210    6.8658 O.2       0 UNK        -0.5216 
      4 N         -47.1594  -30.1220    8.6189 N.am      1 UNK        -0.4461 
      5 CA        -48.4500  -29.8363    7.9770 C.3       1 UNK         0.0864 
      6 C6        -49.5060  -29.3536    9.0122 C.3       14 UNK        -0.0898 
      7 S7        -50.6735  -30.6703    9.4964 S.3       14 UNK        -0.2598 
      8 C8        -51.9313  -30.6003    8.1722 C.3       14 UNK         0.0286 
      9 C9        -52.6629  -29.2659    8.1422 C.ar      14 UNK        -0.0844 
     10 C10       -52.2369  -28.2589    7.2743 C.ar      14 UNK        -0.0881 
     11 C11       -52.8222  -26.9935    7.3073 C.ar      14 UNK        -0.0643 
     12 C12       -53.8884  -26.7517    8.1784 C.ar      14 UNK        -0.0930 
     13 C13       -54.3590  -27.7674    9.0181 C.ar      14 UNK        -0.0827 
     14 C14       -53.7438  -29.0234    8.9939 C.ar      14 UNK        -0.1249 
     15 C15       -55.5237  -27.4996    9.9575 C.3       14 UNK         0.0141 
     16 S16       -54.9403  -26.9198   11.5779 S.3       14 UNK        -0.2313 
     17 C17       -56.4856  -26.2162   12.2422 C.3       14 UNK        -0.0915 
     18 CA        -56.4752  -26.1026   13.7939 C.3       13 UNK         0.0968 
     19 C         -57.6582  -25.2507   14.3498 C.2       13 UNK         0.5732 
     20 N         -58.1460  -25.5095   15.5576 N.am      13 UNK        -0.7310 
     21 O         -58.1232  -24.3181   13.6981 O.2       13 UNK        -0.5035 
     22 N         -56.2852  -27.4033   14.4604 N.am      13 UNK        -0.4233 
     23 C         -57.1293  -28.4420   14.4618 C.2       13 UNK         0.4989 
     24 O         -58.2203  -28.4472   13.8885 O.2       13 UNK        -0.4996 
     25 CA        -56.6562  -29.6921   15.2342 C.3       12 UNK         0.0216 
     26 CB        -57.7725  -30.7406   15.4025 C.3       12 UNK        -0.1964 
     27 N         -55.4979  -30.3303   14.6007 N.am      12 UNK        -0.4276 
     28 C         -54.2520  -29.8404   14.5903 C.2       12 UNK         0.5020 
     29 O         -53.9284  -28.7907   15.1557 O.2       12 UNK        -0.5489 
     30 CA        -53.2040  -30.6431   13.8073 C.3       11 UNK         0.0294 
     31 CB        -53.5713  -30.7497   12.3175 C.3       11 UNK        -0.2019 
     32 N         -51.9243  -29.9563   13.9239 N.am      11 UNK        -0.4493 
     33 C         -50.7193  -30.5200   14.0416 C.2       11 UNK         0.4932 
     34 O         -50.5366  -31.7381   14.0422 O.2       11 UNK        -0.5029 
     35 CA        -49.5065  -29.5750   14.1751 C.3       10 UNK         0.0280 
     36 CB        -48.4522  -29.8796   13.0990 C.3       10 UNK        -0.1976 
     37 N         -49.8627  -28.1521   14.1008 N.am      10 UNK        -0.4242 
     38 C         -50.3189  -27.4245   15.1265 C.2       10 UNK         0.5072 
     39 O         -50.4714  -27.8673   16.2680 O.2       10 UNK        -0.5224 
     40 CA        -50.6953  -25.9706   14.8085 C.3       9 UNK         0.0343 
     41 CB        -52.0783  -25.9106   14.1358 C.3       9 UNK        -0.2003 
     42 N         -50.7468  -25.2153   16.0595 N.am      9 UNK        -0.4272 
     43 C         -50.0104  -24.1692   16.4626 C.2       9 UNK         0.4988 
     44 O         -50.0740  -23.7716   17.6251 O.2       9 UNK        -0.5108 
     45 CA        -49.0656  -23.4151   15.4983 C.3       8 UNK         0.0248 
     46 CB        -47.7260  -24.1543   15.3238 C.3       8 UNK        -0.2001 
     47 N         -49.6217  -23.0544   14.1905 N.am      8 UNK        -0.4140 
     48 C         -50.7530  -22.3673   13.9762 C.2       8 UNK         0.5028 
     49 O         -51.4968  -21.9648   14.8713 O.2       8 UNK        -0.5428 
     50 CA        -51.1148  -22.0484   12.5181 C.3       7 UNK         0.0264 
     51 CB        -50.4595  -20.7243   12.0903 C.3       7 UNK        -0.1988 
     52 N         -50.7020  -23.1008   11.5849 N.am      7 UNK        -0.4454 
     53 C         -51.5423  -23.9422   10.9614 C.2       7 UNK         0.5027 
     54 O         -52.7530  -23.9745   11.1800 O.2       7 UNK        -0.5083 
     55 CA        -50.9581  -24.8633    9.8651 C.3       6 UNK         0.0844 
     56 C56       -51.2619  -24.2429    8.4766 C.3       14 UNK        -0.0967 
     57 S57       -50.6900  -25.2561    7.0711 S.3       14 UNK        -0.2604 
     58 C58       -52.2671  -25.8937    6.4177 C.3       14 UNK         0.0134 
     59 N         -49.5259  -25.1061   10.0629 N.am      6 UNK        -0.4116 
     60 C         -49.0143  -25.9264   10.9928 C.2       5 UNK         0.5034 
     61 O         -49.6921  -26.6776   11.6934 O.2       5 UNK        -0.5045 
     62 CA        -47.4915  -25.8864   11.2247 C.3       5 UNK         0.0224 
     63 CB        -46.8142  -27.1486   10.6744 C.3       5 UNK        -0.1978 
     64 N         -46.8368  -24.6961   10.6723 N.am      5 UNK        -0.4737 
     65 C         -47.0253  -23.4541   11.1414 C.2       4 UNK         0.5027 
     66 O         -47.7835  -23.1980   12.0757 O.2       4 UNK        -0.5211 
     67 CA        -46.3084  -22.2976   10.4252 C.3       4 UNK         0.0297 
     68 CB        -44.9898  -21.9661   11.1401 C.3       4 UNK        -0.1993 
     69 N         -46.0465  -22.5448    9.0043 N.am      4 UNK        -0.4486 
     70 C         -46.9828  -22.7894    8.0769 C.2       3 UNK         0.4961 
     71 O         -48.1880  -22.8401    8.3264 O.2       3 UNK        -0.5105 
     72 CA        -46.5051  -23.0479    6.6338 C.3       3 UNK         0.0299 
     73 CB        -44.9807  -22.8864    6.4279 C.3       3 UNK        -0.1972 
     74 N         -46.9474  -24.3572    6.1408 N.am      3 UNK        -0.4305 
     75 C         -46.7094  -25.5495    6.7052 C.2       2 UNK         0.5006 
     76 O         -46.0685  -25.7134    7.7481 O.2       2 UNK        -0.5106 
     77 CA        -47.2561  -26.7693    5.9573 C.3       2 UNK         0.0296 
     78 CB        -46.2936  -27.2088    4.8392 C.3       2 UNK        -0.2002 
     79 N         -47.4379  -27.8580    6.9106 N.am      2 UNK        -0.4032 
     80 C         -48.3379  -28.8418    6.7991 C.2       1 UNK         0.5000 
     81 O         -49.0701  -28.9870    5.8188 O.2       1 UNK        -0.5238 
     82 H82       -44.9766  -30.5103    9.8764 H         1 UNK         0.0889 
     83 H83       -44.0163  -30.4122    8.3996 H         1 UNK         0.0889 
     84 H84       -44.6241  -31.9739    8.9556 H         1 UNK         0.0889 
     85 H85       -47.0857  -29.8625    9.5910 H         1 UNK         0.3028 
     86 H86       -48.7901  -30.7743    7.5321 H         1 UNK         0.0864 
     87 H87       -49.0226  -28.9992    9.9210 H         1 UNK         0.0720 
     88 H88       -50.0675  -28.4833    8.6754 H         1 UNK         0.0720 
     89 H89       -52.6491  -31.4073    8.3254 H         1 UNK         0.0814 
     90 H90       -51.4542  -30.7963    7.2106 H         1 UNK         0.0814 
     91 H91       -51.4093  -28.4399    6.6043 H         1 UNK         0.1469 
     92 H92       -54.3453  -25.7722    8.2121 H         1 UNK         0.1381 
     93 H93       -54.0933  -29.8077    9.6493 H         1 UNK         0.1206 
     94 H94       -56.1208  -28.4030   10.0908 H         1 UNK         0.0813 
     95 H95       -56.1868  -26.7521    9.5190 H         1 UNK         0.0813 
     96 H96       -57.3332  -26.8165   11.9084 H         1 UNK         0.0638 
     97 H97       -56.6062  -25.2336   11.7829 H         1 UNK         0.0638 
     98 H98       -55.5913  -25.5214   14.0585 H         1 UNK         0.0568 
     99 H99       -58.9026  -24.9477   15.9145 H         1 UNK         0.3450 
    100 H100      -57.7668  -26.2593   16.1125 H         1 UNK         0.3450 
    101 H101      -55.3809  -27.5496   14.9002 H         1 UNK         0.2987 
    102 H102      -56.3627  -29.3617   16.2331 H         1 UNK         0.0766 
    103 H103      -57.4415  -31.5782   16.0169 H         1 UNK         0.0798 
    104 H104      -58.1041  -31.1384   14.4424 H         1 UNK         0.0798 
    105 H105      -58.6446  -30.3068   15.8940 H         1 UNK         0.0798 
    106 H106      -55.6834  -31.1828   14.0919 H         1 UNK         0.3198 
    107 H107      -53.1386  -31.6396   14.2494 H         1 UNK         0.0843 
    108 H108      -54.5030  -31.2951   12.1662 H         1 UNK         0.0831 
    109 H109      -52.7978  -31.2725   11.7546 H         1 UNK         0.0831 
    110 H110      -53.6914  -29.7597   11.8774 H         1 UNK         0.0831 
    111 H111      -52.0058  -28.9561   14.0501 H         1 UNK         0.3133 
    112 H112      -49.0541  -29.7734   15.1489 H         1 UNK         0.0566 
    113 H113      -47.5704  -29.2509   13.2205 H         1 UNK         0.0814 
    114 H114      -48.1179  -30.9163   13.1565 H         1 UNK         0.0814 
    115 H115      -48.8522  -29.7226   12.0982 H         1 UNK         0.0814 
    116 H116      -49.8058  -27.7122   13.1820 H         1 UNK         0.3091 
    117 H117      -49.9492  -25.5761   14.1233 H         1 UNK         0.0702 
    118 H118      -52.3725  -24.8839   13.9207 H         1 UNK         0.0785 
    119 H119      -52.8539  -26.3491   14.7642 H         1 UNK         0.0785 
    120 H120      -52.0827  -26.4486   13.1867 H         1 UNK         0.0785 
    121 H121      -51.2947  -25.6792   16.7705 H         1 UNK         0.2998 
    122 H122      -48.8361  -22.4651   15.9853 H         1 UNK         0.0697 
    123 H123      -47.8295  -25.0799   14.7593 H         1 UNK         0.0825 
    124 H124      -47.2940  -24.4116   16.2919 H         1 UNK         0.0825 
    125 H125      -46.9980  -23.5308   14.8041 H         1 UNK         0.0825 
    126 H126      -49.0266  -23.2518   13.3890 H         1 UNK         0.3029 
    127 H127      -52.1978  -21.9119   12.4772 H         1 UNK         0.0897 
    128 H128      -50.7603  -20.4424   11.0811 H         1 UNK         0.0792 
    129 H129      -50.7531  -19.9103   12.7546 H         1 UNK         0.0792 
    130 H130      -49.3704  -20.7856   12.1100 H         1 UNK         0.0792 
    131 H131      -49.7096  -23.1588   11.3871 H         1 UNK         0.3086 
    132 H132      -51.4798  -25.8212    9.9315 H         1 UNK         0.0583 
    133 H133      -52.3336  -24.0642    8.3700 H         1 UNK         0.1020 
    134 H134      -50.7941  -23.2608    8.3868 H         1 UNK         0.1020 
    135 H135      -52.9835  -25.0789    6.3029 H         1 UNK         0.0694 
    136 H136      -52.0959  -26.2922    5.4166 H         1 UNK         0.0694 
    137 H137      -48.8997  -24.5317    9.5103 H         1 UNK         0.2989 
    138 H138      -47.3384  -25.8709   12.3062 H         1 UNK         0.1055 
    139 H139      -47.1807  -28.0380   11.1843 H         1 UNK         0.0806 
    140 H140      -45.7338  -27.1182   10.8173 H         1 UNK         0.0806 
    141 H141      -47.0113  -27.2750    9.6127 H         1 UNK         0.0806 
    142 H142      -46.2510  -24.8304    9.8559 H         1 UNK         0.3061 
    143 H143      -46.9618  -21.4250   10.4903 H         1 UNK         0.0734 
    144 H144      -45.1623  -21.7551   12.1968 H         1 UNK         0.0832 
    145 H145      -44.2807  -22.7932   11.0853 H         1 UNK         0.0832 
    146 H146      -44.5141  -21.0844   10.7104 H         1 UNK         0.0832 
    147 H147      -45.0796  -22.5457    8.7133 H         1 UNK         0.3156 
    148 H148      -47.0024  -22.3004    6.0142 H         1 UNK         0.0589 
    149 H149      -44.4050  -23.6099    7.0067 H         1 UNK         0.0808 
    150 H150      -44.7147  -23.0248    5.3798 H         1 UNK         0.0808 
    151 H151      -44.6449  -21.8867    6.7070 H         1 UNK         0.0808 
    152 H152      -47.5169  -24.3332    5.3063 H         1 UNK         0.3098 
    153 H153      -48.2234  -26.5026    5.5254 H         1 UNK         0.0720 
    154 H154      -46.1365  -26.4071    4.1165 H         1 UNK         0.0791 
    155 H155      -46.6870  -28.0653    4.2914 H         1 UNK         0.0791 
    156 H156      -45.3171  -27.4874    5.2376 H         1 UNK         0.0791 
    157 H157      -46.8692  -27.7806    7.7431 H         1 UNK         0.3028 
@<TRIPOS>BOND
     1    1    2 1    
     2    1   82 1    
     3    1   83 1    
     4    1   84 1    
     5    2    3 2    
     6    2    4 am   BACKBONE|DICT|INTERRES
     7    4    5 1    
     8    4   85 1    
     9    5    6 1    
    10    5   80 1    
    11    5   86 1    
    12    6    7 1    
    13    6   87 1    
    14    6   88 1    
    15    7    8 1    
    16    8    9 1    
    17    8   89 1    
    18    8   90 1    
    19    9   10 ar   
    20    9   14 ar   
    21   10   11 ar   
    22   10   91 1    
    23   11   12 ar   
    24   11   58 1    
    25   12   13 ar   
    26   12   92 1    
    27   13   14 ar   
    28   13   15 1    
    29   14   93 1    
    30   15   16 1    
    31   15   94 1    
    32   15   95 1    
    33   16   17 1    
    34   17   18 1    
    35   17   96 1    
    36   17   97 1    
    37   18   19 1    
    38   18   22 1    
    39   18   98 1    
    40   19   20 am   BACKBONE|DICT|INTERRES
    41   19   21 2    
    42   20   99 1    
    43   20  100 1    
    44   22   23 am   BACKBONE|DICT|INTERRES
    45   22  101 1    
    46   23   24 2    
    47   23   25 1    
    48   25   26 1    
    49   25   27 1    
    50   25  102 1    
    51   26  103 1    
    52   26  104 1    
    53   26  105 1    
    54   27   28 am   BACKBONE|DICT|INTERRES
    55   27  106 1    
    56   28   29 2    
    57   28   30 1    
    58   30   31 1    
    59   30   32 1    
    60   30  107 1    
    61   31  108 1    
    62   31  109 1    
    63   31  110 1    
    64   32   33 am   BACKBONE|DICT|INTERRES
    65   32  111 1    
    66   33   34 2    
    67   33   35 1    
    68   35   36 1    
    69   35   37 1    
    70   35  112 1    
    71   36  113 1    
    72   36  114 1    
    73   36  115 1    
    74   37   38 am   BACKBONE|DICT|INTERRES
    75   37  116 1    
    76   38   39 2    
    77   38   40 1    
    78   40   41 1    
    79   40   42 1    
    80   40  117 1    
    81   41  118 1    
    82   41  119 1    
    83   41  120 1    
    84   42   43 am   BACKBONE|DICT|INTERRES
    85   42  121 1    
    86   43   44 2    
    87   43   45 1    
    88   45   46 1    
    89   45   47 1    
    90   45  122 1    
    91   46  123 1    
    92   46  124 1    
    93   46  125 1    
    94   47   48 am   BACKBONE|DICT|INTERRES
    95   47  126 1    
    96   48   49 2    
    97   48   50 1    
    98   50   51 1    
    99   50   52 1    
   100   50  127 1    
   101   51  128 1    
   102   51  129 1    
   103   51  130 1    
   104   52   53 am   BACKBONE|DICT|INTERRES
   105   52  131 1    
   106   53   54 2    
   107   53   55 1    
   108   55   56 1    
   109   55   59 1    
   110   55  132 1    
   111   56   57 1    
   112   56  133 1    
   113   56  134 1    
   114   57   58 1    
   115   58  135 1    
   116   58  136 1    
   117   59   60 am   BACKBONE|DICT|INTERRES
   118   59  137 1    
   119   60   61 2    
   120   60   62 1    
   121   62   63 1    
   122   62   64 1    
   123   62  138 1    
   124   63  139 1    
   125   63  140 1    
   126   63  141 1    
   127   64   65 am   BACKBONE|DICT|INTERRES
   128   64  142 1    
   129   65   66 2    
   130   65   67 1    
   131   67   68 1    
   132   67   69 1    
   133   67  143 1    
   134   68  144 1    
   135   68  145 1    
   136   68  146 1    
   137   69   70 am   BACKBONE|DICT|INTERRES
   138   69  147 1    
   139   70   71 2    
   140   70   72 1    
   141   72   73 1    
   142   72   74 1    
   143   72  148 1    
   144   73  149 1    
   145   73  150 1    
   146   73  151 1    
   147   74   75 am   BACKBONE|DICT|INTERRES
   148   74  152 1    
   149   75   76 2    
   150   75   77 1    
   151   77   78 1    
   152   77   79 1    
   153   77  153 1    
   154   78  154 1    
   155   78  155 1    
   156   78  156 1    
   157   79   80 am   BACKBONE|DICT|INTERRES
   158   79  157 1    
   159   80   81 2    
@<TRIPOS>SUBSTRUCTURE
     1 UNK         1 GROUP             0       ****    0 ROOT    
