@<TRIPOS>MOLECULE
3R207
157   159    1
SMALL
USER_CHARGES


@<TRIPOS>ATOM
      1 CA        -46.5811  -31.0476   11.5066 C.3       0 UNK        -0.1975 
      2 C         -46.7828  -29.7556   10.7298 C.2       0 UNK         0.4852 
      3 O         -46.8207  -28.6824   11.3285 O.2       0 UNK        -0.5216 
      4 N         -46.8869  -29.8477    9.3969 N.am      1 UNK        -0.4461 
      5 CA        -47.1315  -28.7652    8.4297 C.3       1 UNK         0.0864 
      6 C6        -48.4862  -28.0410    8.6575 C.3       14 UNK        -0.0898 
      7 S7        -49.1998  -27.4503    7.0888 S.3       14 UNK        -0.2598 
      8 C8        -50.4327  -28.7400    6.7226 C.3       14 UNK         0.0286 
      9 C9        -51.7857  -28.4004    7.3273 C.ar      14 UNK        -0.0844 
     10 C10       -52.5228  -27.3362    6.8007 C.ar      14 UNK        -0.0881 
     11 C11       -53.7527  -26.9823    7.3577 C.ar      14 UNK        -0.0643 
     12 C12       -54.2733  -27.7377    8.4095 C.ar      14 UNK        -0.0930 
     13 C13       -53.5433  -28.7973    8.9560 C.ar      14 UNK        -0.0827 
     14 C14       -52.2971  -29.1264    8.4092 C.ar      14 UNK        -0.1249 
     15 C15       -54.0949  -29.5578   10.1554 C.3       14 UNK         0.0141 
     16 S16       -54.4689  -28.4245   11.5318 S.3       14 UNK        -0.2313 
     17 C17       -54.8394  -29.5693   12.8966 C.3       14 UNK        -0.0915 
     18 CA        -56.2419  -29.3327   13.5176 C.3       13 UNK         0.0968 
     19 C         -56.5277  -30.3597   14.6531 C.2       13 UNK         0.5732 
     20 N         -56.7367  -29.9503   15.9004 N.am      13 UNK        -0.7310 
     21 O         -56.5674  -31.5598   14.3932 O.2       13 UNK        -0.5035 
     22 N         -56.4417  -27.9294   13.9140 N.am      13 UNK        -0.4233 
     23 C         -57.6410  -27.3535   14.0775 C.2       13 UNK         0.4989 
     24 O         -58.7051  -27.9187   13.8171 O.2       13 UNK        -0.4996 
     25 CA        -57.6613  -25.9092   14.6272 C.3       12 UNK         0.0216 
     26 CB        -58.9860  -25.5682   15.3434 C.3       12 UNK        -0.1964 
     27 N         -56.5162  -25.5832   15.4893 N.am      12 UNK        -0.4276 
     28 C         -56.1358  -26.2266   16.6024 C.2       12 UNK         0.5020 
     29 O         -56.7249  -27.1982   17.0828 O.2       12 UNK        -0.5489 
     30 CA        -54.8250  -25.7470   17.2475 C.3       11 UNK         0.0294 
     31 CB        -55.0459  -25.3437   18.7148 C.3       11 UNK        -0.2019 
     32 N         -53.7968  -26.7878   17.1753 N.am      11 UNK        -0.4493 
     33 C         -53.3194  -27.3106   16.0384 C.2       11 UNK         0.4932 
     34 O         -53.6615  -26.9378   14.9119 O.2       11 UNK        -0.5029 
     35 CA        -52.3153  -28.4585   16.1868 C.3       10 UNK         0.0280 
     36 CB        -53.0366  -29.7724   16.5580 C.3       10 UNK        -0.1976 
     37 N         -51.5813  -28.5703   14.9291 N.am      10 UNK        -0.4242 
     38 C         -50.5560  -29.3835   14.6534 C.2       10 UNK         0.5072 
     39 O         -50.1276  -30.2499   15.4168 O.2       10 UNK        -0.5224 
     40 CA        -49.8553  -29.1502   13.3056 C.3       9 UNK         0.0343 
     41 CB        -50.7270  -29.6045   12.1243 C.3       9 UNK        -0.2003 
     42 N         -49.4757  -27.7465   13.1363 N.am      9 UNK        -0.4272 
     43 C         -48.4954  -27.1474   13.8328 C.2       9 UNK         0.4988 
     44 O         -47.7813  -27.7282   14.6520 O.2       9 UNK        -0.5108 
     45 CA        -48.2720  -25.6429   13.6002 C.3       8 UNK         0.0248 
     46 CB        -47.1393  -25.4171   12.5870 C.3       8 UNK        -0.2001 
     47 N         -49.4852  -24.9452   13.1668 N.am      8 UNK        -0.4140 
     48 C         -50.5318  -24.7067   13.9744 C.2       8 UNK         0.5028 
     49 O         -50.5385  -24.9950   15.1721 O.2       8 UNK        -0.5428 
     50 CA        -51.7856  -24.0374   13.3764 C.3       7 UNK         0.0264 
     51 CB        -51.9213  -22.5934   13.8877 C.3       7 UNK        -0.1988 
     52 N         -51.8527  -24.0293   11.9124 N.am      7 UNK        -0.4454 
     53 C         -51.9443  -25.1209   11.1390 C.2       7 UNK         0.5027 
     54 O         -51.9102  -26.2695   11.5787 O.2       7 UNK        -0.5083 
     55 CA        -52.0104  -24.8740    9.6162 C.3       6 UNK         0.0844 
     56 C56       -53.4421  -24.4418    9.1966 C.3       14 UNK        -0.0967 
     57 S57       -53.6155  -24.2175    7.3881 S.3       14 UNK        -0.2604 
     58 C58       -54.4830  -25.7393    6.8765 C.3       14 UNK         0.0134 
     59 N         -50.9923  -23.9263    9.1381 N.am      6 UNK        -0.4116 
     60 C         -49.6781  -23.9779    9.3939 C.2       5 UNK         0.5034 
     61 O         -49.1507  -24.8013   10.1412 O.2       5 UNK        -0.5045 
     62 CA        -48.8002  -22.9172    8.7206 C.3       5 UNK         0.0224 
     63 CB        -47.9465  -22.1650    9.7561 C.3       5 UNK        -0.1978 
     64 N         -47.9206  -23.5653    7.7515 N.am      5 UNK        -0.4737 
     65 C         -48.2557  -23.8155    6.4774 C.2       4 UNK         0.5027 
     66 O         -49.3398  -23.4854    5.9936 O.2       4 UNK        -0.5211 
     67 CA        -47.2241  -24.5500    5.5908 C.3       4 UNK         0.0297 
     68 CB        -47.3037  -24.1243    4.1091 C.3       4 UNK        -0.1993 
     69 N         -45.8470  -24.4709    6.0917 N.am      4 UNK        -0.4486 
     70 C         -45.1004  -23.3662    6.2580 C.2       3 UNK         0.4961 
     71 O         -45.4465  -22.2447    5.8840 O.2       3 UNK        -0.5105 
     72 CA        -43.7438  -23.5348    6.9797 C.3       3 UNK         0.0299 
     73 CB        -43.3843  -22.2999    7.8337 C.3       3 UNK        -0.1972 
     74 N         -43.6338  -24.7612    7.7846 N.am      3 UNK        -0.4305 
     75 C         -44.4228  -25.1350    8.8031 C.2       2 UNK         0.5006 
     76 O         -45.3705  -24.4723    9.2293 O.2       2 UNK        -0.5106 
     77 CA        -44.1274  -26.5141    9.4119 C.3       2 UNK         0.0296 
     78 CB        -43.6414  -26.3808   10.8633 C.3       2 UNK        -0.2002 
     79 N         -45.2992  -27.3906    9.3649 N.am      2 UNK        -0.4032 
     80 C         -45.9528  -27.7746    8.2596 C.2       1 UNK         0.5000 
     81 O         -45.6325  -27.4078    7.1255 O.2       1 UNK        -0.5238 
     82 H82       -47.4672  -31.2716   12.0991 H         1 UNK         0.0889 
     83 H83       -45.7337  -30.9490   12.1844 H         1 UNK         0.0889 
     84 H84       -46.3899  -31.8942   10.8474 H         1 UNK         0.0889 
     85 H85       -46.8011  -30.7635    8.9773 H         1 UNK         0.3028 
     86 H86       -47.1996  -29.2965    7.4786 H         1 UNK         0.0864 
     87 H87       -49.2075  -28.7101    9.1277 H         1 UNK         0.0720 
     88 H88       -48.3773  -27.2018    9.3464 H         1 UNK         0.0720 
     89 H89       -50.0759  -29.7119    7.0670 H         1 UNK         0.0814 
     90 H90       -50.5400  -28.8229    5.6401 H         1 UNK         0.0814 
     91 H91       -52.1145  -26.7495    5.9888 H         1 UNK         0.1469 
     92 H92       -55.2257  -27.4673    8.8445 H         1 UNK         0.1381 
     93 H93       -51.7216  -29.9393    8.8304 H         1 UNK         0.1206 
     94 H94       -55.0011  -30.0905    9.8648 H         1 UNK         0.0813 
     95 H95       -53.3793  -30.3082   10.4945 H         1 UNK         0.0813 
     96 H96       -54.0595  -29.4371   13.6449 H         1 UNK         0.0638 
     97 H97       -54.7481  -30.5963   12.5387 H         1 UNK         0.0638 
     98 H98       -56.9715  -29.5534   12.7362 H         1 UNK         0.0568 
     99 H99       -56.7264  -28.9655   16.1456 H         1 UNK         0.3450 
    100 H100      -56.9263  -30.6367   16.6123 H         1 UNK         0.3450 
    101 H101      -55.6012  -27.4154   14.1524 H         1 UNK         0.2987 
    102 H102      -57.5810  -25.2590   13.7548 H         1 UNK         0.0766 
    103 H103      -59.8370  -25.6732   14.6693 H         1 UNK         0.0798 
    104 H104      -58.9886  -24.5401   15.7055 H         1 UNK         0.0798 
    105 H105      -59.1636  -26.2244   16.1963 H         1 UNK         0.0798 
    106 H106      -55.9278  -24.8312   15.1568 H         1 UNK         0.3198 
    107 H107      -54.4546  -24.8736   16.7062 H         1 UNK         0.0843 
    108 H108      -55.3861  -26.1857   19.3194 H         1 UNK         0.0831 
    109 H109      -55.8021  -24.5615   18.7933 H         1 UNK         0.0831 
    110 H110      -54.1314  -24.9550   19.1633 H         1 UNK         0.0831 
    111 H111      -53.4863  -27.1749   18.0547 H         1 UNK         0.3133 
    112 H112      -51.6054  -28.1951   16.9731 H         1 UNK         0.0566 
    113 H113      -53.6705  -30.1350   15.7513 H         1 UNK         0.0814 
    114 H114      -53.6746  -29.6407   17.4328 H         1 UNK         0.0814 
    115 H115      -52.3300  -30.5644   16.8037 H         1 UNK         0.0814 
    116 H116      -51.8743  -27.8913   14.2347 H         1 UNK         0.3091 
    117 H117      -48.9431  -29.7496   13.2986 H         1 UNK         0.0702 
    118 H118      -50.1760  -29.5511   11.1859 H         1 UNK         0.0785 
    119 H119      -51.6182  -28.9865   12.0201 H         1 UNK         0.0785 
    120 H120      -51.0551  -30.6368   12.2513 H         1 UNK         0.0785 
    121 H121      -50.0333  -27.1926   12.4973 H         1 UNK         0.2998 
    122 H122      -47.9578  -25.2064   14.5508 H         1 UNK         0.0697 
    123 H123      -46.9744  -24.3577   12.3918 H         1 UNK         0.0825 
    124 H124      -47.3407  -25.9089   11.6345 H         1 UNK         0.0825 
    125 H125      -46.2049  -25.8296   12.9676 H         1 UNK         0.0825 
    126 H126      -49.5506  -24.7232   12.1786 H         1 UNK         0.3029 
    127 H127      -52.6438  -24.6088   13.7373 H         1 UNK         0.0897 
    128 H128      -51.1001  -21.9645   13.5416 H         1 UNK         0.0792 
    129 H129      -51.9174  -22.5628   14.9783 H         1 UNK         0.0792 
    130 H130      -52.8565  -22.1402   13.5583 H         1 UNK         0.0792 
    131 H131      -51.8433  -23.1244   11.4645 H         1 UNK         0.3086 
    132 H132      -51.7859  -25.8294    9.1388 H         1 UNK         0.0583 
    133 H133      -54.1815  -25.1647    9.5459 H         1 UNK         0.1020 
    134 H134      -53.7102  -23.4969    9.6730 H         1 UNK         0.1020 
    135 H135      -55.5046  -25.7146    7.2592 H         1 UNK         0.0694 
    136 H136      -54.5606  -25.7591    5.7886 H         1 UNK         0.0694 
    137 H137      -51.3271  -23.2375    8.4798 H         1 UNK         0.2989 
    138 H138      -49.4335  -22.1860    8.2129 H         1 UNK         0.1055 
    139 H139      -47.3293  -21.4026    9.2806 H         1 UNK         0.0806 
    140 H140      -47.2819  -22.8375   10.3003 H         1 UNK         0.0806 
    141 H141      -48.5763  -21.6634   10.4919 H         1 UNK         0.0806 
    142 H142      -47.0335  -23.9063    8.1099 H         1 UNK         0.3061 
    143 H143      -47.4882  -25.6062    5.6357 H         1 UNK         0.0734 
    144 H144      -47.1323  -23.0549    3.9840 H         1 UNK         0.0832 
    145 H145      -46.5714  -24.6566    3.5023 H         1 UNK         0.0832 
    146 H146      -48.2875  -24.3441    3.6928 H         1 UNK         0.0832 
    147 H147      -45.4789  -25.3477    6.4465 H         1 UNK         0.3156 
    148 H148      -42.9944  -23.6214    6.1917 H         1 UNK         0.0589 
    149 H149      -42.4215  -22.4253    8.3288 H         1 UNK         0.0808 
    150 H150      -44.1345  -22.1086    8.6020 H         1 UNK         0.0808 
    151 H151      -43.3144  -21.4022    7.2183 H         1 UNK         0.0808 
    152 H152      -42.9030  -25.3982    7.4967 H         1 UNK         0.3098 
    153 H153      -43.3387  -26.9995    8.8336 H         1 UNK         0.0720 
    154 H154      -42.7283  -25.7864   10.9151 H         1 UNK         0.0791 
    155 H155      -43.4216  -27.3542   11.3022 H         1 UNK         0.0791 
    156 H156      -44.3840  -25.8888   11.4907 H         1 UNK         0.0791 
    157 H157      -45.6785  -27.7146   10.2521 H         1 UNK         0.3028 
@<TRIPOS>BOND
     1    1    2 1    
     2    1   82 1    
     3    1   83 1    
     4    1   84 1    
     5    2    3 2    
     6    2    4 am   BACKBONE|DICT|INTERRES
     7    4    5 1    
     8    4   85 1    
     9    5    6 1    
    10    5   80 1    
    11    5   86 1    
    12    6    7 1    
    13    6   87 1    
    14    6   88 1    
    15    7    8 1    
    16    8    9 1    
    17    8   89 1    
    18    8   90 1    
    19    9   10 ar   
    20    9   14 ar   
    21   10   11 ar   
    22   10   91 1    
    23   11   12 ar   
    24   11   58 1    
    25   12   13 ar   
    26   12   92 1    
    27   13   14 ar   
    28   13   15 1    
    29   14   93 1    
    30   15   16 1    
    31   15   94 1    
    32   15   95 1    
    33   16   17 1    
    34   17   18 1    
    35   17   96 1    
    36   17   97 1    
    37   18   19 1    
    38   18   22 1    
    39   18   98 1    
    40   19   20 am   BACKBONE|DICT|INTERRES
    41   19   21 2    
    42   20   99 1    
    43   20  100 1    
    44   22   23 am   BACKBONE|DICT|INTERRES
    45   22  101 1    
    46   23   24 2    
    47   23   25 1    
    48   25   26 1    
    49   25   27 1    
    50   25  102 1    
    51   26  103 1    
    52   26  104 1    
    53   26  105 1    
    54   27   28 am   BACKBONE|DICT|INTERRES
    55   27  106 1    
    56   28   29 2    
    57   28   30 1    
    58   30   31 1    
    59   30   32 1    
    60   30  107 1    
    61   31  108 1    
    62   31  109 1    
    63   31  110 1    
    64   32   33 am   BACKBONE|DICT|INTERRES
    65   32  111 1    
    66   33   34 2    
    67   33   35 1    
    68   35   36 1    
    69   35   37 1    
    70   35  112 1    
    71   36  113 1    
    72   36  114 1    
    73   36  115 1    
    74   37   38 am   BACKBONE|DICT|INTERRES
    75   37  116 1    
    76   38   39 2    
    77   38   40 1    
    78   40   41 1    
    79   40   42 1    
    80   40  117 1    
    81   41  118 1    
    82   41  119 1    
    83   41  120 1    
    84   42   43 am   BACKBONE|DICT|INTERRES
    85   42  121 1    
    86   43   44 2    
    87   43   45 1    
    88   45   46 1    
    89   45   47 1    
    90   45  122 1    
    91   46  123 1    
    92   46  124 1    
    93   46  125 1    
    94   47   48 am   BACKBONE|DICT|INTERRES
    95   47  126 1    
    96   48   49 2    
    97   48   50 1    
    98   50   51 1    
    99   50   52 1    
   100   50  127 1    
   101   51  128 1    
   102   51  129 1    
   103   51  130 1    
   104   52   53 am   BACKBONE|DICT|INTERRES
   105   52  131 1    
   106   53   54 2    
   107   53   55 1    
   108   55   56 1    
   109   55   59 1    
   110   55  132 1    
   111   56   57 1    
   112   56  133 1    
   113   56  134 1    
   114   57   58 1    
   115   58  135 1    
   116   58  136 1    
   117   59   60 am   BACKBONE|DICT|INTERRES
   118   59  137 1    
   119   60   61 2    
   120   60   62 1    
   121   62   63 1    
   122   62   64 1    
   123   62  138 1    
   124   63  139 1    
   125   63  140 1    
   126   63  141 1    
   127   64   65 am   BACKBONE|DICT|INTERRES
   128   64  142 1    
   129   65   66 2    
   130   65   67 1    
   131   67   68 1    
   132   67   69 1    
   133   67  143 1    
   134   68  144 1    
   135   68  145 1    
   136   68  146 1    
   137   69   70 am   BACKBONE|DICT|INTERRES
   138   69  147 1    
   139   70   71 2    
   140   70   72 1    
   141   72   73 1    
   142   72   74 1    
   143   72  148 1    
   144   73  149 1    
   145   73  150 1    
   146   73  151 1    
   147   74   75 am   BACKBONE|DICT|INTERRES
   148   74  152 1    
   149   75   76 2    
   150   75   77 1    
   151   77   78 1    
   152   77   79 1    
   153   77  153 1    
   154   78  154 1    
   155   78  155 1    
   156   78  156 1    
   157   79   80 am   BACKBONE|DICT|INTERRES
   158   79  157 1    
   159   80   81 2    
@<TRIPOS>SUBSTRUCTURE
     1 UNK         1 GROUP             0       ****    0 ROOT    
