@<TRIPOS>MOLECULE
3R207
157   159    1
SMALL
USER_CHARGES


@<TRIPOS>ATOM
      1 CA        -49.7264  -29.3397    0.5722 C.3       0 UNK        -0.1975 
      2 C         -49.6946  -28.7078    1.9563 C.2       0 UNK         0.4852 
      3 O         -50.2048  -27.6005    2.1343 O.2       0 UNK        -0.5216 
      4 N         -49.1076  -29.4063    2.9370 N.am      1 UNK        -0.4461 
      5 CA        -48.9219  -28.9250    4.3097 C.3       1 UNK         0.0864 
      6 C6        -48.7250  -30.1107    5.2913 C.3       14 UNK        -0.0898 
      7 S7        -49.2965  -29.7088    6.9741 S.3       14 UNK        -0.2598 
      8 C8        -51.0714  -30.0815    6.8228 C.3       14 UNK         0.0286 
      9 C9        -51.8870  -29.3340    7.8663 C.ar      14 UNK        -0.0844 
     10 C10       -52.0123  -27.9446    7.7867 C.ar      14 UNK        -0.0881 
     11 C11       -52.7763  -27.2373    8.7216 C.ar      14 UNK        -0.0643 
     12 C12       -53.4355  -27.9413    9.7358 C.ar      14 UNK        -0.0930 
     13 C13       -53.3425  -29.3362    9.8070 C.ar      14 UNK        -0.0827 
     14 C14       -52.5542  -30.0252    8.8803 C.ar      14 UNK        -0.1249 
     15 C15       -54.1505  -30.1123   10.8347 C.3       14 UNK         0.0141 
     16 S16       -53.1657  -30.5617   12.2952 S.3       14 UNK        -0.2313 
     17 C17       -54.3635  -31.6285   13.1751 C.3       14 UNK        -0.0915 
     18 CA        -55.1271  -30.9229   14.3322 C.3       13 UNK         0.0968 
     19 C         -54.2575  -30.6132   15.5822 C.2       13 UNK         0.5732 
     20 N         -53.5155  -31.5886   16.0894 N.am      13 UNK        -0.7310 
     21 O         -54.2689  -29.5084   16.1212 O.2       13 UNK        -0.5035 
     22 N         -55.8400  -29.7306   13.8647 N.am      13 UNK        -0.4233 
     23 C         -57.0925  -29.6729   13.4087 C.2       13 UNK         0.4989 
     24 O         -57.8327  -30.6547   13.3242 O.2       13 UNK        -0.4996 
     25 CA        -57.6011  -28.2776   12.9783 C.3       12 UNK         0.0216 
     26 CB        -59.0932  -28.2825   12.5942 C.3       12 UNK        -0.1964 
     27 N         -57.3769  -27.2491   14.0025 N.am      12 UNK        -0.4276 
     28 C         -56.1980  -26.6792   14.2812 C.2       12 UNK         0.5020 
     29 O         -55.1568  -26.9420   13.6696 O.2       12 UNK        -0.5489 
     30 CA        -56.1619  -25.6956   15.4589 C.3       11 UNK         0.0294 
     31 CB        -56.5194  -26.4083   16.7813 C.3       11 UNK        -0.2019 
     32 N         -54.8083  -25.1572   15.5232 N.am      11 UNK        -0.4493 
     33 C         -54.3478  -24.1710   16.2987 C.2       11 UNK         0.4932 
     34 O         -55.0645  -23.4983   17.0418 O.2       11 UNK        -0.5029 
     35 CA        -52.8329  -23.8796   16.2213 C.3       10 UNK         0.0280 
     36 CB        -52.2636  -23.3429   17.5513 C.3       10 UNK        -0.1976 
     37 N         -52.0320  -25.0105   15.7297 N.am      10 UNK        -0.4242 
     38 C         -51.9014  -26.2272   16.2837 C.2       10 UNK         0.5072 
     39 O         -52.4297  -26.5695   17.3422 O.2       10 UNK        -0.5224 
     40 CA        -51.0190  -27.2303   15.5214 C.3       9 UNK         0.0343 
     41 CB        -51.7118  -27.7109   14.2349 C.3       9 UNK        -0.2003 
     42 N         -49.7057  -26.6751   15.1922 N.am      9 UNK        -0.4272 
     43 C         -48.7652  -26.3554   16.0933 C.2       9 UNK         0.4988 
     44 O         -48.8655  -26.5741   17.3012 O.2       9 UNK        -0.5108 
     45 CA        -47.4973  -25.6661   15.5616 C.3       8 UNK         0.0248 
     46 CB        -46.5031  -26.7033   15.0151 C.3       8 UNK        -0.2001 
     47 N         -47.7873  -24.6609   14.5356 N.am      8 UNK        -0.4140 
     48 C         -48.4568  -23.5203   14.7612 C.2       8 UNK         0.5028 
     49 O         -48.8323  -23.1543   15.8752 O.2       8 UNK        -0.5428 
     50 CA        -48.7802  -22.6414   13.5413 C.3       7 UNK         0.0264 
     51 CB        -47.5875  -21.7381   13.1904 C.3       7 UNK        -0.1988 
     52 N         -49.1802  -23.4114   12.3608 N.am      7 UNK        -0.4454 
     53 C         -50.2846  -24.1697   12.2796 C.2       7 UNK         0.5027 
     54 O         -51.1062  -24.2811   13.1892 O.2       7 UNK        -0.5083 
     55 CA        -50.4932  -24.9610   10.9723 C.3       6 UNK         0.0844 
     56 C56       -51.0879  -24.0307    9.8876 C.3       14 UNK        -0.0967 
     57 S57       -51.3854  -24.8474    8.2884 S.3       14 UNK        -0.2604 
     58 C58       -52.9557  -25.7280    8.5865 C.3       14 UNK         0.0134 
     59 N         -49.2645  -25.6464   10.5549 N.am      6 UNK        -0.4116 
     60 C         -48.6283  -26.5713   11.2915 C.2       5 UNK         0.5034 
     61 O         -49.0410  -26.9970   12.3701 O.2       5 UNK        -0.5045 
     62 CA        -47.2603  -27.0472   10.7832 C.3       5 UNK         0.0224 
     63 CB        -47.4097  -28.1459    9.7206 C.3       5 UNK        -0.1978 
     64 N         -46.4630  -25.9355   10.2607 N.am      5 UNK        -0.4737 
     65 C         -45.9240  -24.9789   11.0312 C.2       4 UNK         0.5027 
     66 O         -46.0033  -24.9686   12.2582 O.2       4 UNK        -0.5211 
     67 CA        -45.2122  -23.8179   10.3170 C.3       4 UNK         0.0297 
     68 CB        -43.7449  -24.1778   10.0366 C.3       4 UNK        -0.1993 
     69 N         -45.8697  -23.4304    9.0680 N.am      4 UNK        -0.4486 
     70 C         -47.1078  -22.9227    8.9821 C.2       3 UNK         0.4961 
     71 O         -47.8108  -22.6604    9.9572 O.2       3 UNK        -0.5105 
     72 CA        -47.6761  -22.7291    7.5653 C.3       3 UNK         0.0299 
     73 CB        -47.3344  -21.3289    7.0331 C.3       3 UNK        -0.1972 
     74 N         -47.2139  -23.7484    6.6145 N.am      3 UNK        -0.4305 
     75 C         -47.4732  -25.0574    6.7328 C.2       2 UNK         0.5006 
     76 O         -48.1271  -25.5470    7.6560 O.2       2 UNK        -0.5106 
     77 CA        -46.8463  -25.9859    5.6921 C.3       2 UNK         0.0296 
     78 CB        -45.4966  -26.5286    6.2008 C.3       2 UNK        -0.2002 
     79 N         -47.7791  -27.0808    5.4502 N.am      2 UNK        -0.4032 
     80 C         -47.7729  -27.8941    4.3891 C.2       1 UNK         0.5000 
     81 O         -46.9103  -27.8575    3.5055 O.2       1 UNK        -0.5238 
     82 H82       -50.7564  -29.4529    0.2347 H         1 UNK         0.0889 
     83 H83       -49.2563  -30.3229    0.5614 H         1 UNK         0.0889 
     84 H84       -49.2013  -28.7051   -0.1413 H         1 UNK         0.0889 
     85 H85       -48.6716  -30.2912    2.7204 H         1 UNK         0.3028 
     86 H86       -49.8404  -28.3998    4.5820 H         1 UNK         0.0864 
     87 H87       -49.2844  -30.9861    4.9560 H         1 UNK         0.0720 
     88 H88       -47.6810  -30.4278    5.3322 H         1 UNK         0.0720 
     89 H89       -51.2178  -31.1595    6.9074 H         1 UNK         0.0814 
     90 H90       -51.4305  -29.7994    5.8321 H         1 UNK         0.0814 
     91 H91       -51.5148  -27.4117    6.9881 H         1 UNK         0.1469 
     92 H92       -54.0505  -27.4095   10.4496 H         1 UNK         0.1381 
     93 H93       -52.4836  -31.1032    8.9353 H         1 UNK         0.1206 
     94 H94       -55.0158  -29.5282   11.1486 H         1 UNK         0.0813 
     95 H95       -54.5454  -31.0174   10.3707 H         1 UNK         0.0813 
     96 H96       -53.8300  -32.5069   13.5401 H         1 UNK         0.0638 
     97 H97       -55.0863  -32.0196   12.4579 H         1 UNK         0.0638 
     98 H98       -55.8760  -31.6245   14.7037 H         1 UNK         0.0568 
     99 H99       -52.9583  -31.3993   16.9073 H         1 UNK         0.3450 
    100 H100      -53.4998  -32.5061   15.6736 H         1 UNK         0.3450 
    101 H101      -55.3159  -28.8618   13.9312 H         1 UNK         0.2987 
    102 H102      -57.0349  -28.0012   12.0861 H         1 UNK         0.0766 
    103 H103      -59.4163  -27.3024   12.2427 H         1 UNK         0.0798 
    104 H104      -59.7266  -28.5637   13.4365 H         1 UNK         0.0798 
    105 H105      -59.2882  -28.9913   11.7882 H         1 UNK         0.0798 
    106 H106      -58.1760  -27.0041   14.5698 H         1 UNK         0.3198 
    107 H107      -56.8627  -24.8819   15.2629 H         1 UNK         0.0843 
    108 H108      -55.8275  -27.2255   16.9923 H         1 UNK         0.0831 
    109 H109      -57.5244  -26.8298   16.7524 H         1 UNK         0.0831 
    110 H110      -56.4910  -25.7241   17.6290 H         1 UNK         0.0831 
    111 H111      -54.1689  -25.6378   14.8992 H         1 UNK         0.3133 
    112 H112      -52.7175  -23.0927   15.4748 H         1 UNK         0.0566 
    113 H113      -51.1968  -23.1340   17.4687 H         1 UNK         0.0814 
    114 H114      -52.7530  -22.4126   17.8415 H         1 UNK         0.0814 
    115 H115      -52.4043  -24.0526   18.3670 H         1 UNK         0.0814 
    116 H116      -51.5713  -24.8423   14.8351 H         1 UNK         0.3091 
    117 H117      -50.8670  -28.0985   16.1661 H         1 UNK         0.0702 
    118 H118      -51.1405  -28.5028   13.7503 H         1 UNK         0.0785 
    119 H119      -51.8400  -26.9060   13.5110 H         1 UNK         0.0785 
    120 H120      -52.7024  -28.1118   14.4488 H         1 UNK         0.0785 
    121 H121      -49.5076  -26.5299   14.2059 H         1 UNK         0.2998 
    122 H122      -47.0223  -25.1542   16.4011 H         1 UNK         0.0697 
    123 H123      -46.9059  -27.2335   14.1519 H         1 UNK         0.0825 
    124 H124      -46.2609  -27.4493   15.7731 H         1 UNK         0.0825 
    125 H125      -45.5671  -26.2337   14.7121 H         1 UNK         0.0825 
    126 H126      -47.4305  -24.8446   13.6019 H         1 UNK         0.3029 
    127 H127      -49.6219  -22.0011   13.8145 H         1 UNK         0.0897 
    128 H128      -47.8306  -21.0594   12.3727 H         1 UNK         0.0792 
    129 H129      -47.2966  -21.1261   14.0452 H         1 UNK         0.0792 
    130 H130      -46.7147  -22.3201   12.8934 H         1 UNK         0.0792 
    131 H131      -48.5882  -23.3214   11.5372 H         1 UNK         0.3086 
    132 H132      -51.2299  -25.7400   11.1809 H         1 UNK         0.0583 
    133 H133      -52.0246  -23.5883   10.2328 H         1 UNK         0.1020 
    134 H134      -50.4192  -23.1893    9.6983 H         1 UNK         0.1020 
    135 H135      -53.4544  -25.3167    9.4652 H         1 UNK         0.0694 
    136 H136      -53.6205  -25.5385    7.7429 H         1 UNK         0.0694 
    137 H137      -48.8816  -25.3905    9.6514 H         1 UNK         0.2989 
    138 H138      -46.7246  -27.4762   11.6330 H         1 UNK         0.1055 
    139 H139      -47.9532  -29.0022   10.1223 H         1 UNK         0.0806 
    140 H140      -46.4397  -28.5081    9.3802 H         1 UNK         0.0806 
    141 H141      -47.9629  -27.7978    8.8497 H         1 UNK         0.0806 
    142 H142      -46.4241  -25.8353    9.2563 H         1 UNK         0.3061 
    143 H143      -45.2310  -22.9551   10.9861 H         1 UNK         0.0734 
    144 H144      -43.2045  -23.3358    9.6036 H         1 UNK         0.0832 
    145 H145      -43.2293  -24.4510   10.9585 H         1 UNK         0.0832 
    146 H146      -43.6572  -25.0229    9.3525 H         1 UNK         0.0832 
    147 H147      -45.3645  -23.6018    8.2114 H         1 UNK         0.3156 
    148 H148      -48.7630  -22.8114    7.6354 H         1 UNK         0.0589 
    149 H149      -46.2590  -21.1906    6.9140 H         1 UNK         0.0808 
    150 H150      -47.8068  -21.1445    6.0681 H         1 UNK         0.0808 
    151 H151      -47.6882  -20.5560    7.7172 H         1 UNK         0.0808 
    152 H152      -46.6633  -23.4255    5.8312 H         1 UNK         0.3098 
    153 H153      -46.6973  -25.4322    4.7627 H         1 UNK         0.0720 
    154 H154      -45.0184  -27.1676    5.4583 H         1 UNK         0.0791 
    155 H155      -45.6170  -27.1135    7.1137 H         1 UNK         0.0791 
    156 H156      -44.8020  -25.7166    6.4192 H         1 UNK         0.0791 
    157 H157      -48.5008  -27.1724    6.1560 H         1 UNK         0.3028 
@<TRIPOS>BOND
     1    1    2 1    
     2    1   82 1    
     3    1   83 1    
     4    1   84 1    
     5    2    3 2    
     6    2    4 am   BACKBONE|DICT|INTERRES
     7    4    5 1    
     8    4   85 1    
     9    5    6 1    
    10    5   80 1    
    11    5   86 1    
    12    6    7 1    
    13    6   87 1    
    14    6   88 1    
    15    7    8 1    
    16    8    9 1    
    17    8   89 1    
    18    8   90 1    
    19    9   10 ar   
    20    9   14 ar   
    21   10   11 ar   
    22   10   91 1    
    23   11   12 ar   
    24   11   58 1    
    25   12   13 ar   
    26   12   92 1    
    27   13   14 ar   
    28   13   15 1    
    29   14   93 1    
    30   15   16 1    
    31   15   94 1    
    32   15   95 1    
    33   16   17 1    
    34   17   18 1    
    35   17   96 1    
    36   17   97 1    
    37   18   19 1    
    38   18   22 1    
    39   18   98 1    
    40   19   20 am   BACKBONE|DICT|INTERRES
    41   19   21 2    
    42   20   99 1    
    43   20  100 1    
    44   22   23 am   BACKBONE|DICT|INTERRES
    45   22  101 1    
    46   23   24 2    
    47   23   25 1    
    48   25   26 1    
    49   25   27 1    
    50   25  102 1    
    51   26  103 1    
    52   26  104 1    
    53   26  105 1    
    54   27   28 am   BACKBONE|DICT|INTERRES
    55   27  106 1    
    56   28   29 2    
    57   28   30 1    
    58   30   31 1    
    59   30   32 1    
    60   30  107 1    
    61   31  108 1    
    62   31  109 1    
    63   31  110 1    
    64   32   33 am   BACKBONE|DICT|INTERRES
    65   32  111 1    
    66   33   34 2    
    67   33   35 1    
    68   35   36 1    
    69   35   37 1    
    70   35  112 1    
    71   36  113 1    
    72   36  114 1    
    73   36  115 1    
    74   37   38 am   BACKBONE|DICT|INTERRES
    75   37  116 1    
    76   38   39 2    
    77   38   40 1    
    78   40   41 1    
    79   40   42 1    
    80   40  117 1    
    81   41  118 1    
    82   41  119 1    
    83   41  120 1    
    84   42   43 am   BACKBONE|DICT|INTERRES
    85   42  121 1    
    86   43   44 2    
    87   43   45 1    
    88   45   46 1    
    89   45   47 1    
    90   45  122 1    
    91   46  123 1    
    92   46  124 1    
    93   46  125 1    
    94   47   48 am   BACKBONE|DICT|INTERRES
    95   47  126 1    
    96   48   49 2    
    97   48   50 1    
    98   50   51 1    
    99   50   52 1    
   100   50  127 1    
   101   51  128 1    
   102   51  129 1    
   103   51  130 1    
   104   52   53 am   BACKBONE|DICT|INTERRES
   105   52  131 1    
   106   53   54 2    
   107   53   55 1    
   108   55   56 1    
   109   55   59 1    
   110   55  132 1    
   111   56   57 1    
   112   56  133 1    
   113   56  134 1    
   114   57   58 1    
   115   58  135 1    
   116   58  136 1    
   117   59   60 am   BACKBONE|DICT|INTERRES
   118   59  137 1    
   119   60   61 2    
   120   60   62 1    
   121   62   63 1    
   122   62   64 1    
   123   62  138 1    
   124   63  139 1    
   125   63  140 1    
   126   63  141 1    
   127   64   65 am   BACKBONE|DICT|INTERRES
   128   64  142 1    
   129   65   66 2    
   130   65   67 1    
   131   67   68 1    
   132   67   69 1    
   133   67  143 1    
   134   68  144 1    
   135   68  145 1    
   136   68  146 1    
   137   69   70 am   BACKBONE|DICT|INTERRES
   138   69  147 1    
   139   70   71 2    
   140   70   72 1    
   141   72   73 1    
   142   72   74 1    
   143   72  148 1    
   144   73  149 1    
   145   73  150 1    
   146   73  151 1    
   147   74   75 am   BACKBONE|DICT|INTERRES
   148   74  152 1    
   149   75   76 2    
   150   75   77 1    
   151   77   78 1    
   152   77   79 1    
   153   77  153 1    
   154   78  154 1    
   155   78  155 1    
   156   78  156 1    
   157   79   80 am   BACKBONE|DICT|INTERRES
   158   79  157 1    
   159   80   81 2    
@<TRIPOS>SUBSTRUCTURE
     1 UNK         1 GROUP             0       ****    0 ROOT    
