@<TRIPOS>MOLECULE
3R207
157   159    1
SMALL
USER_CHARGES


@<TRIPOS>ATOM
      1 CA        -48.2464  -30.2384    2.0334 C.3       0 UNK        -0.1975 
      2 C         -48.9196  -29.3290    3.0512 C.2       0 UNK         0.4852 
      3 O         -49.8172  -28.5687    2.6876 O.2       0 UNK        -0.5216 
      4 N         -48.4964  -29.4128    4.3196 N.am      1 UNK        -0.4461 
      5 CA        -48.9937  -28.6115    5.4428 C.3       1 UNK         0.0864 
      6 C6        -48.4523  -29.1375    6.7961 C.3       14 UNK        -0.0898 
      7 S7        -49.2785  -30.6712    7.3244 S.3       14 UNK        -0.2598 
      8 C8        -49.7620  -30.2423    9.0287 C.3       14 UNK         0.0286 
      9 C9        -51.1428  -29.6025    9.1182 C.ar      14 UNK        -0.0844 
     10 C10       -51.3993  -28.3417    8.5686 C.ar      14 UNK        -0.0881 
     11 C11       -52.6503  -27.7374    8.7232 C.ar      14 UNK        -0.0643 
     12 C12       -53.6499  -28.3979    9.4450 C.ar      14 UNK        -0.0930 
     13 C13       -53.4103  -29.6608    9.9961 C.ar      14 UNK        -0.0827 
     14 C14       -52.1613  -30.2620    9.8099 C.ar      14 UNK        -0.1249 
     15 C15       -54.4950  -30.3759   10.7937 C.3       14 UNK         0.0141 
     16 S16       -53.8800  -30.9180   12.4202 S.3       14 UNK        -0.2313 
     17 C17       -55.3807  -31.5885   13.2059 C.3       14 UNK        -0.0915 
     18 CA        -55.7653  -30.8545   14.5173 C.3       13 UNK         0.0968 
     19 C         -54.7666  -31.1316   15.6808 C.2       13 UNK         0.5732 
     20 N         -54.0755  -30.1383   16.2282 N.am      13 UNK        -0.7310 
     21 O         -54.6332  -32.2754   16.1101 O.2       13 UNK        -0.5035 
     22 N         -56.0722  -29.4361   14.2772 N.am      13 UNK        -0.4233 
     23 C         -56.8734  -28.7002   15.0562 C.2       13 UNK         0.4989 
     24 O         -57.4313  -29.1390   16.0638 O.2       13 UNK        -0.4996 
     25 CA        -57.1182  -27.2455   14.6289 C.3       12 UNK         0.0216 
     26 CB        -57.4995  -26.3364   15.8144 C.3       12 UNK        -0.1964 
     27 N         -55.9628  -26.6699   13.9374 N.am      12 UNK        -0.4276 
     28 C         -56.0430  -25.8433   12.8834 C.2       12 UNK         0.5020 
     29 O         -57.0854  -25.6457   12.2555 O.2       12 UNK        -0.5489 
     30 CA        -54.7578  -25.0845   12.4784 C.3       11 UNK         0.0294 
     31 CB        -55.0560  -23.7476   11.7690 C.3       11 UNK        -0.2019 
     32 N         -53.8295  -24.8714   13.5950 N.am      11 UNK        -0.4493 
     33 C         -54.0872  -24.2991   14.7826 C.2       11 UNK         0.4932 
     34 O         -55.1257  -23.6870   15.0360 O.2       11 UNK        -0.5029 
     35 CA        -53.0299  -24.4780   15.8927 C.3       10 UNK         0.0280 
     36 CB        -53.6766  -24.6466   17.2836 C.3       10 UNK        -0.1976 
     37 N         -52.0690  -25.5639   15.6490 N.am      10 UNK        -0.4242 
     38 C         -52.3203  -26.8711   15.4569 C.2       10 UNK         0.5072 
     39 O         -53.4581  -27.3530   15.4626 O.2       10 UNK        -0.5224 
     40 CA        -51.1186  -27.7914   15.1523 C.3       9 UNK         0.0343 
     41 CB        -51.3932  -28.6570   13.9127 C.3       9 UNK        -0.2003 
     42 N         -49.8784  -27.0467   14.9237 N.am      9 UNK        -0.4272 
     43 C         -48.9495  -26.7754   15.8504 C.2       9 UNK         0.4988 
     44 O         -48.9905  -27.1981   17.0060 O.2       9 UNK        -0.5108 
     45 CA        -47.7966  -25.8397   15.4330 C.3       8 UNK         0.0248 
     46 CB        -46.5791  -26.6538   14.9676 C.3       8 UNK        -0.2001 
     47 N         -48.1705  -24.8698   14.3953 N.am      8 UNK        -0.4140 
     48 C         -49.1158  -23.9298   14.5457 C.2       8 UNK         0.5028 
     49 O         -49.7271  -23.7444   15.5977 O.2       8 UNK        -0.5428 
     50 CA        -49.4981  -23.1008   13.3096 C.3       7 UNK         0.0264 
     51 CB        -48.5484  -21.9042   13.1454 C.3       7 UNK        -0.1988 
     52 N         -49.5354  -23.8847   12.0713 N.am      7 UNK        -0.4454 
     53 C         -50.3541  -24.9237   11.8425 C.2       7 UNK         0.5027 
     54 O         -51.1808  -25.3299   12.6595 O.2       7 UNK        -0.5083 
     55 CA        -50.1781  -25.6796   10.5087 C.3       6 UNK         0.0844 
     56 C56       -50.7998  -24.9265    9.3074 C.3       14 UNK        -0.0967 
     57 S57       -52.6215  -25.0171    9.2820 S.3       14 UNK        -0.2604 
     58 C58       -52.9245  -26.3733    8.1058 C.3       14 UNK         0.0134 
     59 N         -48.7755  -26.0151   10.2639 N.am      6 UNK        -0.4116 
     60 C         -48.0322  -26.8180   11.0372 C.2       5 UNK         0.5034 
     61 O         -48.4711  -27.4529   11.9955 O.2       5 UNK        -0.5045 
     62 CA        -46.5305  -26.8794   10.7163 C.3       5 UNK         0.0224 
     63 CB        -46.2296  -27.9322    9.6384 C.3       5 UNK        -0.1978 
     64 N         -46.0044  -25.5792   10.2928 N.am      5 UNK        -0.4737 
     65 C         -45.8493  -24.5283   11.1091 C.2       4 UNK         0.5027 
     66 O         -46.1009  -24.5567   12.3135 O.2       4 UNK        -0.5211 
     67 CA        -45.3695  -23.2177   10.4624 C.3       4 UNK         0.0297 
     68 CB        -43.8460  -23.2381   10.2620 C.3       4 UNK        -0.1993 
     69 N         -46.0330  -22.9352    9.1854 N.am      4 UNK        -0.4486 
     70 C         -47.3404  -22.6671    9.0608 C.2       3 UNK         0.4961 
     71 O         -48.1218  -22.6191   10.0082 O.2       3 UNK        -0.5105 
     72 CA        -47.8869  -22.4558    7.6393 C.3       3 UNK         0.0299 
     73 CB        -47.6843  -20.9975    7.1986 C.3       3 UNK        -0.1972 
     74 N         -47.3358  -23.3591    6.6228 N.am      3 UNK        -0.4305 
     75 C         -47.3295  -24.6974    6.6903 C.2       2 UNK         0.5006 
     76 O         -47.6702  -25.3405    7.6874 O.2       2 UNK        -0.5106 
     77 CA        -46.8245  -25.4357    5.4364 C.3       2 UNK         0.0296 
     78 CB        -45.2883  -25.5020    5.4442 C.3       2 UNK        -0.2002 
     79 N         -47.3550  -26.7984    5.3441 N.am      2 UNK        -0.4032 
     80 C         -48.6566  -27.1177    5.2739 C.2       1 UNK         0.5000 
     81 O         -49.5640  -26.2979    5.1169 O.2       1 UNK        -0.5238 
     82 H82       -47.4783  -30.8635    2.4885 H         1 UNK         0.0889 
     83 H83       -47.7783  -29.6427    1.2502 H         1 UNK         0.0889 
     84 H84       -48.9841  -30.8925    1.5693 H         1 UNK         0.0889 
     85 H85       -47.7737  -30.0799    4.5495 H         1 UNK         0.3028 
     86 H86       -50.0835  -28.6886    5.4525 H         1 UNK         0.0864 
     87 H87       -47.3798  -29.3326    6.7402 H         1 UNK         0.0720 
     88 H88       -48.5669  -28.3863    7.5779 H         1 UNK         0.0720 
     89 H89       -49.0239  -29.5817    9.4847 H         1 UNK         0.0814 
     90 H90       -49.7346  -31.1589    9.6199 H         1 UNK         0.0814 
     91 H91       -50.6269  -27.8142    8.0315 H         1 UNK         0.1469 
     92 H92       -54.6134  -27.9245    9.5760 H         1 UNK         0.1381 
     93 H93       -51.9732  -31.2369   10.2386 H         1 UNK         0.1206 
     94 H94       -54.8415  -31.2431   10.2302 H         1 UNK         0.0813 
     95 H95       -55.3592  -29.7258   10.9383 H         1 UNK         0.0813 
     96 H96       -55.2231  -32.6521   13.3934 H         1 UNK         0.0638 
     97 H97       -56.2119  -31.5371   12.5011 H         1 UNK         0.0638 
     98 H98       -56.6968  -31.3190   14.8471 H         1 UNK         0.0568 
     99 H99       -53.4498  -30.3457   16.9887 H         1 UNK         0.3450 
    100 H100      -54.1399  -29.1902   15.8759 H         1 UNK         0.3450 
    101 H101      -55.6242  -29.0083   13.4812 H         1 UNK         0.2987 
    102 H102      -57.9711  -27.2857   13.9484 H         1 UNK         0.0766 
    103 H103      -57.6989  -25.3168   15.4837 H         1 UNK         0.0798 
    104 H104      -56.7020  -26.2947   16.5571 H         1 UNK         0.0798 
    105 H105      -58.3999  -26.6932   16.3161 H         1 UNK         0.0798 
    106 H106      -55.0626  -26.7958   14.3961 H         1 UNK         0.3198 
    107 H107      -54.2358  -25.7307   11.7711 H         1 UNK         0.0843 
    108 H108      -55.6401  -23.0771   12.4000 H         1 UNK         0.0831 
    109 H109      -55.6219  -23.9097   10.8509 H         1 UNK         0.0831 
    110 H110      -54.1356  -23.2335   11.4921 H         1 UNK         0.0831 
    111 H111      -52.8985  -25.2604   13.4560 H         1 UNK         0.3133 
    112 H112      -52.4490  -23.5552   15.9052 H         1 UNK         0.0566 
    113 H113      -52.9206  -24.7484   18.0621 H         1 UNK         0.0814 
    114 H114      -54.2890  -23.7819   17.5419 H         1 UNK         0.0814 
    115 H115      -54.3211  -25.5253   17.3248 H         1 UNK         0.0814 
    116 H116      -51.1042  -25.2547   15.5908 H         1 UNK         0.3091 
    117 H117      -50.9966  -28.4569   16.0090 H         1 UNK         0.0702 
    118 H118      -52.2413  -29.3158   14.0906 H         1 UNK         0.0785 
    119 H119      -50.5400  -29.2900   13.6686 H         1 UNK         0.0785 
    120 H120      -51.6231  -28.0529   13.0337 H         1 UNK         0.0785 
    121 H121      -49.7595  -26.6639   13.9933 H         1 UNK         0.2998 
    122 H122      -47.5039  -25.2708   16.3180 H         1 UNK         0.0697 
    123 H123      -46.8055  -27.2491   14.0833 H         1 UNK         0.0825 
    124 H124      -46.2496  -27.3420   15.7471 H         1 UNK         0.0825 
    125 H125      -45.7351  -26.0063   14.7291 H         1 UNK         0.0825 
    126 H126      -47.6548  -24.9092   13.5204 H         1 UNK         0.3029 
    127 H127      -50.5055  -22.7136   13.4775 H         1 UNK         0.0897 
    128 H128      -48.8721  -21.2504   12.3353 H         1 UNK         0.0792 
    129 H129      -48.5165  -21.3019   14.0543 H         1 UNK         0.0792 
    130 H130      -47.5290  -22.2249   12.9286 H         1 UNK         0.0792 
    131 H131      -48.9119  -23.5747   11.3268 H         1 UNK         0.3086 
    132 H132      -50.7002  -26.6315   10.6215 H         1 UNK         0.0583 
    133 H133      -50.5020  -23.8766    9.3056 H         1 UNK         0.1020 
    134 H134      -50.4215  -25.3336    8.3681 H         1 UNK         0.1020 
    135 H135      -53.9650  -26.3243    7.7813 H         1 UNK         0.0694 
    136 H136      -52.3230  -26.2281    7.2068 H         1 UNK         0.0694 
    137 H137      -48.3306  -25.5784    9.4609 H         1 UNK         0.2989 
    138 H138      -46.0149  -27.1752   11.6328 H         1 UNK         0.1055 
    139 H139      -46.6522  -28.9016    9.9054 H         1 UNK         0.0806 
    140 H140      -45.1556  -28.0724    9.5156 H         1 UNK         0.0806 
    141 H141      -46.6383  -27.6468    8.6700 H         1 UNK         0.0806 
    142 H142      -45.8422  -25.4512    9.3038 H         1 UNK         0.3061 
    143 H143      -45.6098  -22.4045   11.1508 H         1 UNK         0.0734 
    144 H144      -43.4818  -22.2807    9.8889 H         1 UNK         0.0832 
    145 H145      -43.3327  -23.4320   11.2050 H         1 UNK         0.0832 
    146 H146      -43.5379  -24.0128    9.5588 H         1 UNK         0.0832 
    147 H147      -45.4653  -22.9606    8.3510 H         1 UNK         0.3156 
    148 H148      -48.9611  -22.6466    7.6786 H         1 UNK         0.0589 
    149 H149      -46.6278  -20.7511    7.0854 H         1 UNK         0.0808 
    150 H150      -48.1806  -20.7958    6.2492 H         1 UNK         0.0808 
    151 H151      -48.1029  -20.3064    7.9320 H         1 UNK         0.0808 
    152 H152      -47.0133  -22.9237    5.7702 H         1 UNK         0.3098 
    153 H153      -47.1557  -24.8878    4.5519 H         1 UNK         0.0720 
    154 H154      -44.9076  -25.9924    4.5479 H         1 UNK         0.0791 
    155 H155      -44.9122  -26.0477    6.3108 H         1 UNK         0.0791 
    156 H156      -44.8497  -24.5036    5.4728 H         1 UNK         0.0791 
    157 H157      -46.6874  -27.5444    5.4669 H         1 UNK         0.3028 
@<TRIPOS>BOND
     1    1    2 1    
     2    1   82 1    
     3    1   83 1    
     4    1   84 1    
     5    2    3 2    
     6    2    4 am   BACKBONE|DICT|INTERRES
     7    4    5 1    
     8    4   85 1    
     9    5    6 1    
    10    5   80 1    
    11    5   86 1    
    12    6    7 1    
    13    6   87 1    
    14    6   88 1    
    15    7    8 1    
    16    8    9 1    
    17    8   89 1    
    18    8   90 1    
    19    9   10 ar   
    20    9   14 ar   
    21   10   11 ar   
    22   10   91 1    
    23   11   12 ar   
    24   11   58 1    
    25   12   13 ar   
    26   12   92 1    
    27   13   14 ar   
    28   13   15 1    
    29   14   93 1    
    30   15   16 1    
    31   15   94 1    
    32   15   95 1    
    33   16   17 1    
    34   17   18 1    
    35   17   96 1    
    36   17   97 1    
    37   18   19 1    
    38   18   22 1    
    39   18   98 1    
    40   19   20 am   BACKBONE|DICT|INTERRES
    41   19   21 2    
    42   20   99 1    
    43   20  100 1    
    44   22   23 am   BACKBONE|DICT|INTERRES
    45   22  101 1    
    46   23   24 2    
    47   23   25 1    
    48   25   26 1    
    49   25   27 1    
    50   25  102 1    
    51   26  103 1    
    52   26  104 1    
    53   26  105 1    
    54   27   28 am   BACKBONE|DICT|INTERRES
    55   27  106 1    
    56   28   29 2    
    57   28   30 1    
    58   30   31 1    
    59   30   32 1    
    60   30  107 1    
    61   31  108 1    
    62   31  109 1    
    63   31  110 1    
    64   32   33 am   BACKBONE|DICT|INTERRES
    65   32  111 1    
    66   33   34 2    
    67   33   35 1    
    68   35   36 1    
    69   35   37 1    
    70   35  112 1    
    71   36  113 1    
    72   36  114 1    
    73   36  115 1    
    74   37   38 am   BACKBONE|DICT|INTERRES
    75   37  116 1    
    76   38   39 2    
    77   38   40 1    
    78   40   41 1    
    79   40   42 1    
    80   40  117 1    
    81   41  118 1    
    82   41  119 1    
    83   41  120 1    
    84   42   43 am   BACKBONE|DICT|INTERRES
    85   42  121 1    
    86   43   44 2    
    87   43   45 1    
    88   45   46 1    
    89   45   47 1    
    90   45  122 1    
    91   46  123 1    
    92   46  124 1    
    93   46  125 1    
    94   47   48 am   BACKBONE|DICT|INTERRES
    95   47  126 1    
    96   48   49 2    
    97   48   50 1    
    98   50   51 1    
    99   50   52 1    
   100   50  127 1    
   101   51  128 1    
   102   51  129 1    
   103   51  130 1    
   104   52   53 am   BACKBONE|DICT|INTERRES
   105   52  131 1    
   106   53   54 2    
   107   53   55 1    
   108   55   56 1    
   109   55   59 1    
   110   55  132 1    
   111   56   57 1    
   112   56  133 1    
   113   56  134 1    
   114   57   58 1    
   115   58  135 1    
   116   58  136 1    
   117   59   60 am   BACKBONE|DICT|INTERRES
   118   59  137 1    
   119   60   61 2    
   120   60   62 1    
   121   62   63 1    
   122   62   64 1    
   123   62  138 1    
   124   63  139 1    
   125   63  140 1    
   126   63  141 1    
   127   64   65 am   BACKBONE|DICT|INTERRES
   128   64  142 1    
   129   65   66 2    
   130   65   67 1    
   131   67   68 1    
   132   67   69 1    
   133   67  143 1    
   134   68  144 1    
   135   68  145 1    
   136   68  146 1    
   137   69   70 am   BACKBONE|DICT|INTERRES
   138   69  147 1    
   139   70   71 2    
   140   70   72 1    
   141   72   73 1    
   142   72   74 1    
   143   72  148 1    
   144   73  149 1    
   145   73  150 1    
   146   73  151 1    
   147   74   75 am   BACKBONE|DICT|INTERRES
   148   74  152 1    
   149   75   76 2    
   150   75   77 1    
   151   77   78 1    
   152   77   79 1    
   153   77  153 1    
   154   78  154 1    
   155   78  155 1    
   156   78  156 1    
   157   79   80 am   BACKBONE|DICT|INTERRES
   158   79  157 1    
   159   80   81 2    
@<TRIPOS>SUBSTRUCTURE
     1 UNK         1 GROUP             0       ****    0 ROOT    
