@<TRIPOS>MOLECULE
3R207
157   159    1
SMALL
USER_CHARGES


@<TRIPOS>ATOM
      1 CA        -53.3447  -26.1478    2.3057 C.3       0 UNK        -0.1975 
      2 C         -53.7989  -26.7138    3.6429 C.2       0 UNK         0.4852 
      3 O         -54.6867  -26.1439    4.2778 O.2       0 UNK        -0.5216 
      4 N         -53.1975  -27.8313    4.0721 N.am      1 UNK        -0.4461 
      5 CA        -53.4744  -28.5036    5.3485 C.3       1 UNK         0.0864 
      6 C6        -52.9105  -29.9481    5.3537 C.3       14 UNK        -0.0898 
      7 S7        -51.0876  -30.0251    5.1705 S.3       14 UNK        -0.2598 
      8 C8        -50.6063  -31.4084    6.2601 C.3       14 UNK         0.0286 
      9 C9        -51.1847  -31.3064    7.6663 C.ar      14 UNK        -0.0844 
     10 C10       -50.9074  -30.2011    8.4788 C.ar      14 UNK        -0.0881 
     11 C11       -51.4682  -30.1013    9.7581 C.ar      14 UNK        -0.0643 
     12 C12       -52.2893  -31.1305   10.2251 C.ar      14 UNK        -0.0930 
     13 C13       -52.6082  -32.2157    9.4085 C.ar      14 UNK        -0.0827 
     14 C14       -52.0361  -32.3101    8.1382 C.ar      14 UNK        -0.1249 
     15 C15       -53.6188  -33.2520    9.8743 C.3       14 UNK         0.0141 
     16 S16       -55.2378  -33.0007    9.0716 S.3       14 UNK        -0.2313 
     17 C17       -55.9067  -31.5234    9.9219 C.3       14 UNK        -0.0915 
     18 CA        -55.5483  -30.1550    9.2537 C.3       13 UNK         0.0968 
     19 C         -56.2919  -29.9142    7.9081 C.2       13 UNK         0.5732 
     20 N         -56.0669  -30.7496    6.9044 N.am      13 UNK        -0.7310 
     21 O         -57.0781  -28.9776    7.7618 O.2       13 UNK        -0.5035 
     22 N         -55.7703  -28.9968   10.1334 N.am      13 UNK        -0.4233 
     23 C         -55.2481  -28.7558   11.3400 C.2       13 UNK         0.4989 
     24 O         -54.5159  -29.5375   11.9490 O.2       13 UNK        -0.4996 
     25 CA        -55.6248  -27.4118   11.9903 C.3       12 UNK         0.0216 
     26 CB        -57.1463  -27.3026   12.2053 C.3       12 UNK        -0.1964 
     27 N         -54.9626  -27.3005   13.2917 N.am      12 UNK        -0.4276 
     28 C         -53.9192  -26.5154   13.5755 C.2       12 UNK         0.5020 
     29 O         -53.4502  -25.6728   12.8061 O.2       12 UNK        -0.5489 
     30 CA        -53.2609  -26.7691   14.9392 C.3       11 UNK         0.0294 
     31 CB        -52.2344  -27.9093   14.8224 C.3       11 UNK        -0.2019 
     32 N         -52.5718  -25.5747   15.4206 N.am      11 UNK        -0.4493 
     33 C         -53.0428  -24.7157   16.3324 C.2       11 UNK         0.4932 
     34 O         -54.1496  -24.8183   16.8651 O.2       11 UNK        -0.5029 
     35 CA        -52.0922  -23.5650   16.7251 C.3       10 UNK         0.0280 
     36 CB        -52.5713  -22.7615   17.9527 C.3       10 UNK        -0.1976 
     37 N         -50.7118  -24.0354   16.8961 N.am      10 UNK        -0.4242 
     38 C         -50.2511  -24.9297   17.7846 C.2       10 UNK         0.5072 
     39 O         -50.9147  -25.3804   18.7194 O.2       10 UNK        -0.5224 
     40 CA        -48.8145  -25.4503   17.5802 C.3       9 UNK         0.0343 
     41 CB        -48.8499  -26.8687   16.9866 C.3       9 UNK        -0.2003 
     42 N         -47.9878  -24.5994   16.7187 N.am      9 UNK        -0.4272 
     43 C         -47.4654  -23.4212   17.0877 C.2       9 UNK         0.4988 
     44 O         -47.5856  -22.9418   18.2157 O.2       9 UNK        -0.5108 
     45 CA        -46.6944  -22.6340   16.0127 C.3       8 UNK         0.0248 
     46 CB        -45.2521  -23.1511   15.8900 C.3       8 UNK        -0.2001 
     47 N         -47.3450  -22.6674   14.6993 N.am      8 UNK        -0.4140 
     48 C         -48.5492  -22.1395   14.4324 C.2       8 UNK         0.5028 
     49 O         -49.2231  -21.5155   15.2521 O.2       8 UNK        -0.5428 
     50 CA        -49.1272  -22.3932   13.0303 C.3       7 UNK         0.0264 
     51 CB        -48.5306  -21.4205   12.0010 C.3       7 UNK        -0.1988 
     52 N         -48.9332  -23.7722   12.5785 N.am      7 UNK        -0.4454 
     53 C         -49.4469  -24.8535   13.1837 C.2       7 UNK         0.5027 
     54 O         -50.1685  -24.8061   14.1771 O.2       7 UNK        -0.5083 
     55 CA        -49.0674  -26.2248   12.6003 C.3       6 UNK         0.0844 
     56 C56       -49.9661  -26.5358   11.3818 C.3       14 UNK        -0.0967 
     57 S57       -49.6238  -28.1543   10.6152 S.3       14 UNK        -0.2604 
     58 C58       -51.3088  -28.8446   10.6048 C.3       14 UNK         0.0134 
     59 N         -47.6343  -26.2910   12.3037 N.am      6 UNK        -0.4116 
     60 C         -46.6618  -26.2267   13.2251 C.2       5 UNK         0.5034 
     61 O         -46.8648  -26.1481   14.4366 O.2       5 UNK        -0.5045 
     62 CA        -45.2175  -26.1919   12.6997 C.3       5 UNK         0.0224 
     63 CB        -44.7251  -27.6096   12.3681 C.3       5 UNK        -0.1978 
     64 N         -45.0697  -25.3302   11.5234 N.am      5 UNK        -0.4737 
     65 C         -45.2537  -24.0018   11.5305 C.2       4 UNK         0.5027 
     66 O         -45.5084  -23.3524   12.5441 O.2       4 UNK        -0.5211 
     67 CA        -45.2045  -23.2900   10.1661 C.3       4 UNK         0.0297 
     68 CB        -43.7582  -22.9189    9.8035 C.3       4 UNK        -0.1993 
     69 N         -45.8042  -24.0739    9.0778 N.am      4 UNK        -0.4486 
     70 C         -47.0779  -24.4883    9.0584 C.2       3 UNK         0.4961 
     71 O         -47.8905  -24.2394    9.9544 O.2       3 UNK        -0.5105 
     72 CA        -47.5061  -25.3635    7.8738 C.3       3 UNK         0.0299 
     73 CB        -46.8010  -26.7347    7.9150 C.3       3 UNK        -0.1972 
     74 N         -48.9505  -25.5431    7.9627 N.am      3 UNK        -0.4305 
     75 C         -49.7687  -25.9873    7.0076 C.2       2 UNK         0.5006 
     76 O         -49.4066  -26.2802    5.8644 O.2       2 UNK        -0.5106 
     77 CA        -51.2455  -26.1144    7.4022 C.3       2 UNK         0.0296 
     78 CB        -51.9252  -24.7379    7.5190 C.3       2 UNK        -0.2002 
     79 N         -51.9198  -26.9170    6.3919 N.am      2 UNK        -0.4032 
     80 C         -52.9982  -27.6879    6.5739 C.2       1 UNK         0.5000 
     81 O         -53.6130  -27.7669    7.6385 O.2       1 UNK        -0.5238 
     82 H82       -52.9605  -25.1366    2.4378 H         1 UNK         0.0889 
     83 H83       -52.5594  -26.7522    1.8519 H         1 UNK         0.0889 
     84 H84       -54.1837  -26.1059    1.6116 H         1 UNK         0.0889 
     85 H85       -52.4770  -28.2597    3.5074 H         1 UNK         0.3028 
     86 H86       -54.5602  -28.5806    5.4390 H         1 UNK         0.0864 
     87 H87       -53.2263  -30.4563    6.2645 H         1 UNK         0.0720 
     88 H88       -53.3551  -30.5197    4.5377 H         1 UNK         0.0720 
     89 H89       -49.5182  -31.4416    6.3267 H         1 UNK         0.0814 
     90 H90       -50.9104  -32.3422    5.7846 H         1 UNK         0.0814 
     91 H91       -50.2866  -29.4021    8.0976 H         1 UNK         0.1469 
     92 H92       -52.7383  -31.0573   11.2046 H         1 UNK         0.1381 
     93 H93       -52.2853  -33.1507    7.5048 H         1 UNK         0.1206 
     94 H94       -53.2525  -34.2492    9.6265 H         1 UNK         0.0813 
     95 H95       -53.7358  -33.2299   10.9590 H         1 UNK         0.0813 
     96 H96       -56.9903  -31.6311    9.9906 H         1 UNK         0.0638 
     97 H97       -55.5510  -31.5694   10.9496 H         1 UNK         0.0638 
     98 H98       -54.4871  -30.1385    9.0103 H         1 UNK         0.0568 
     99 H99       -55.4744  -31.5546    7.0411 H         1 UNK         0.3450 
    100 H100      -56.5543  -30.6180    6.0329 H         1 UNK         0.3450 
    101 H101      -56.3620  -28.2978    9.7017 H         1 UNK         0.2987 
    102 H102      -55.2986  -26.6099   11.3244 H         1 UNK         0.0766 
    103 H103      -57.6854  -27.3040   11.2573 H         1 UNK         0.0798 
    104 H104      -57.4058  -26.3754   12.7167 H         1 UNK         0.0798 
    105 H105      -57.5313  -28.1308   12.8018 H         1 UNK         0.0798 
    106 H106      -55.2083  -28.0202   13.9573 H         1 UNK         0.3198 
    107 H107      -54.0310  -27.0656   15.6550 H         1 UNK         0.0843 
    108 H108      -51.7557  -28.1118   15.7807 H         1 UNK         0.0831 
    109 H109      -51.4527  -27.6746   14.1001 H         1 UNK         0.0831 
    110 H110      -52.7097  -28.8352   14.4948 H         1 UNK         0.0831 
    111 H111      -51.6873  -25.3508   14.9656 H         1 UNK         0.3133 
    112 H112      -52.0719  -22.8831   15.8736 H         1 UNK         0.0566 
    113 H113      -53.5431  -22.3046   17.7628 H         1 UNK         0.0814 
    114 H114      -52.6774  -23.3911   18.8365 H         1 UNK         0.0814 
    115 H115      -51.8765  -21.9571   18.1943 H         1 UNK         0.0814 
    116 H116      -50.0854  -23.7860   16.1403 H         1 UNK         0.3091 
    117 H117      -48.3431  -25.5039   18.5638 H         1 UNK         0.0702 
    118 H118      -49.3016  -26.8769   15.9939 H         1 UNK         0.0785 
    119 H119      -49.4314  -27.5440   17.6157 H         1 UNK         0.0785 
    120 H120      -47.8473  -27.2881   16.9008 H         1 UNK         0.0785 
    121 H121      -47.7819  -24.9575   15.7909 H         1 UNK         0.2998 
    122 H122      -46.6540  -21.5909   16.3331 H         1 UNK         0.0697 
    123 H123      -44.6733  -22.5475   15.1906 H         1 UNK         0.0825 
    124 H124      -44.7399  -23.1136   16.8523 H         1 UNK         0.0825 
    125 H125      -45.2210  -24.1843   15.5427 H         1 UNK         0.0825 
    126 H126      -46.8263  -23.1071   13.9427 H         1 UNK         0.3029 
    127 H127      -50.2037  -22.2155   13.0812 H         1 UNK         0.0897 
    128 H128      -48.9701  -21.5680   11.0142 H         1 UNK         0.0792 
    129 H129      -48.7182  -20.3855   12.2896 H         1 UNK         0.0792 
    130 H130      -47.4515  -21.5416   11.9072 H         1 UNK         0.0792 
    131 H131      -48.3862  -23.9044   11.7303 H         1 UNK         0.3086 
    132 H132      -49.2692  -26.9749   13.3675 H         1 UNK         0.0583 
    133 H133      -51.0138  -26.4982   11.6889 H         1 UNK         0.1020 
    134 H134      -49.8665  -25.7689   10.6159 H         1 UNK         0.1020 
    135 H135      -51.6071  -29.0361   11.6371 H         1 UNK         0.0694 
    136 H136      -52.0044  -28.0990   10.2167 H         1 UNK         0.0694 
    137 H137      -47.3798  -26.3234   11.3287 H         1 UNK         0.2989 
    138 H138      -44.5887  -25.7864   13.4958 H         1 UNK         0.1055 
    139 H139      -44.8129  -28.2646   13.2363 H         1 UNK         0.0806 
    140 H140      -45.3003  -28.0623   11.5593 H         1 UNK         0.0806 
    141 H141      -43.6756  -27.6059   12.0731 H         1 UNK         0.0806 
    142 H142      -44.8551  -25.7792   10.6450 H         1 UNK         0.3061 
    143 H143      -45.7789  -22.3661   10.2593 H         1 UNK         0.0734 
    144 H144      -43.7166  -22.3287    8.8879 H         1 UNK         0.0832 
    145 H145      -43.3011  -22.3200   10.5927 H         1 UNK         0.0832 
    146 H146      -43.1346  -23.8028    9.6636 H         1 UNK         0.0832 
    147 H147      -45.2010  -24.3158    8.3042 H         1 UNK         0.3156 
    148 H148      -47.2633  -24.8409    6.9465 H         1 UNK         0.0589 
    149 H149      -47.1054  -27.3642    7.0787 H         1 UNK         0.0808 
    150 H150      -45.7175  -26.6296    7.8530 H         1 UNK         0.0808 
    151 H151      -47.0270  -27.2763    8.8345 H         1 UNK         0.0808 
    152 H152      -49.3271  -25.2364    8.8505 H         1 UNK         0.3098 
    153 H153      -51.2970  -26.6326    8.3615 H         1 UNK         0.0720 
    154 H154      -51.4444  -24.1206    8.2788 H         1 UNK         0.0791 
    155 H155      -51.8858  -24.1900    6.5766 H         1 UNK         0.0791 
    156 H156      -52.9732  -24.8380    7.8025 H         1 UNK         0.0791 
    157 H157      -51.4289  -26.9617    5.5072 H         1 UNK         0.3028 
@<TRIPOS>BOND
     1    1    2 1    
     2    1   82 1    
     3    1   83 1    
     4    1   84 1    
     5    2    3 2    
     6    2    4 am   BACKBONE|DICT|INTERRES
     7    4    5 1    
     8    4   85 1    
     9    5    6 1    
    10    5   80 1    
    11    5   86 1    
    12    6    7 1    
    13    6   87 1    
    14    6   88 1    
    15    7    8 1    
    16    8    9 1    
    17    8   89 1    
    18    8   90 1    
    19    9   10 ar   
    20    9   14 ar   
    21   10   11 ar   
    22   10   91 1    
    23   11   12 ar   
    24   11   58 1    
    25   12   13 ar   
    26   12   92 1    
    27   13   14 ar   
    28   13   15 1    
    29   14   93 1    
    30   15   16 1    
    31   15   94 1    
    32   15   95 1    
    33   16   17 1    
    34   17   18 1    
    35   17   96 1    
    36   17   97 1    
    37   18   19 1    
    38   18   22 1    
    39   18   98 1    
    40   19   20 am   BACKBONE|DICT|INTERRES
    41   19   21 2    
    42   20   99 1    
    43   20  100 1    
    44   22   23 am   BACKBONE|DICT|INTERRES
    45   22  101 1    
    46   23   24 2    
    47   23   25 1    
    48   25   26 1    
    49   25   27 1    
    50   25  102 1    
    51   26  103 1    
    52   26  104 1    
    53   26  105 1    
    54   27   28 am   BACKBONE|DICT|INTERRES
    55   27  106 1    
    56   28   29 2    
    57   28   30 1    
    58   30   31 1    
    59   30   32 1    
    60   30  107 1    
    61   31  108 1    
    62   31  109 1    
    63   31  110 1    
    64   32   33 am   BACKBONE|DICT|INTERRES
    65   32  111 1    
    66   33   34 2    
    67   33   35 1    
    68   35   36 1    
    69   35   37 1    
    70   35  112 1    
    71   36  113 1    
    72   36  114 1    
    73   36  115 1    
    74   37   38 am   BACKBONE|DICT|INTERRES
    75   37  116 1    
    76   38   39 2    
    77   38   40 1    
    78   40   41 1    
    79   40   42 1    
    80   40  117 1    
    81   41  118 1    
    82   41  119 1    
    83   41  120 1    
    84   42   43 am   BACKBONE|DICT|INTERRES
    85   42  121 1    
    86   43   44 2    
    87   43   45 1    
    88   45   46 1    
    89   45   47 1    
    90   45  122 1    
    91   46  123 1    
    92   46  124 1    
    93   46  125 1    
    94   47   48 am   BACKBONE|DICT|INTERRES
    95   47  126 1    
    96   48   49 2    
    97   48   50 1    
    98   50   51 1    
    99   50   52 1    
   100   50  127 1    
   101   51  128 1    
   102   51  129 1    
   103   51  130 1    
   104   52   53 am   BACKBONE|DICT|INTERRES
   105   52  131 1    
   106   53   54 2    
   107   53   55 1    
   108   55   56 1    
   109   55   59 1    
   110   55  132 1    
   111   56   57 1    
   112   56  133 1    
   113   56  134 1    
   114   57   58 1    
   115   58  135 1    
   116   58  136 1    
   117   59   60 am   BACKBONE|DICT|INTERRES
   118   59  137 1    
   119   60   61 2    
   120   60   62 1    
   121   62   63 1    
   122   62   64 1    
   123   62  138 1    
   124   63  139 1    
   125   63  140 1    
   126   63  141 1    
   127   64   65 am   BACKBONE|DICT|INTERRES
   128   64  142 1    
   129   65   66 2    
   130   65   67 1    
   131   67   68 1    
   132   67   69 1    
   133   67  143 1    
   134   68  144 1    
   135   68  145 1    
   136   68  146 1    
   137   69   70 am   BACKBONE|DICT|INTERRES
   138   69  147 1    
   139   70   71 2    
   140   70   72 1    
   141   72   73 1    
   142   72   74 1    
   143   72  148 1    
   144   73  149 1    
   145   73  150 1    
   146   73  151 1    
   147   74   75 am   BACKBONE|DICT|INTERRES
   148   74  152 1    
   149   75   76 2    
   150   75   77 1    
   151   77   78 1    
   152   77   79 1    
   153   77  153 1    
   154   78  154 1    
   155   78  155 1    
   156   78  156 1    
   157   79   80 am   BACKBONE|DICT|INTERRES
   158   79  157 1    
   159   80   81 2    
@<TRIPOS>SUBSTRUCTURE
     1 UNK         1 GROUP             0       ****    0 ROOT    
