@<TRIPOS>MOLECULE
3R207
157   159    1
SMALL
USER_CHARGES


@<TRIPOS>ATOM
      1 CA        -53.1363  -23.4146    2.9974 C.3       0 UNK        -0.1975 
      2 C         -52.5373  -24.5820    3.7679 C.2       0 UNK         0.4852 
      3 O         -52.3931  -25.6693    3.2085 O.2       0 UNK        -0.5216 
      4 N         -52.1867  -24.3590    5.0441 N.am      1 UNK        -0.4461 
      5 CA        -51.5971  -25.3412    5.9677 C.3       1 UNK         0.0864 
      6 C6        -52.5706  -26.5148    6.2862 C.3       14 UNK        -0.0898 
      7 S7        -52.4482  -27.0780    8.0157 S.3       14 UNK        -0.2598 
      8 C8        -51.8443  -28.7787    7.7934 C.3       14 UNK         0.0286 
      9 C9        -51.3425  -29.3791    9.0985 C.ar      14 UNK        -0.0844 
     10 C10       -49.9957  -29.7238    9.2458 C.ar      14 UNK        -0.0881 
     11 C11       -49.5385  -30.3268   10.4217 C.ar      14 UNK        -0.0643 
     12 C12       -50.4399  -30.5748   11.4620 C.ar      14 UNK        -0.0930 
     13 C13       -51.7891  -30.2304   11.3287 C.ar      14 UNK        -0.0827 
     14 C14       -52.2314  -29.6291   10.1463 C.ar      14 UNK        -0.1249 
     15 C15       -52.7652  -30.4831   12.4676 C.3       14 UNK         0.0141 
     16 S16       -54.1880  -31.4979   11.9568 S.3       14 UNK        -0.2313 
     17 C17       -55.4122  -31.0296   13.2267 C.3       14 UNK        -0.0915 
     18 CA        -56.3656  -29.9059   12.7340 C.3       13 UNK         0.0968 
     19 C         -57.5646  -29.6883   13.7026 C.2       13 UNK         0.5732 
     20 N         -57.8973  -28.4666   14.1059 N.am      13 UNK        -0.7310 
     21 O         -58.2313  -30.6496   14.0796 O.2       13 UNK        -0.5035 
     22 N         -55.6268  -28.6658   12.4595 N.am      13 UNK        -0.4233 
     23 C         -55.6937  -27.9490   11.3313 C.2       13 UNK         0.4989 
     24 O         -56.3562  -28.2868   10.3486 O.2       13 UNK        -0.4996 
     25 CA        -54.8780  -26.6367   11.2802 C.3       12 UNK         0.0216 
     26 CB        -55.5223  -25.5779   10.3623 C.3       12 UNK        -0.1964 
     27 N         -54.5719  -26.0494   12.5918 N.am      12 UNK        -0.4276 
     28 C         -55.4267  -25.7213   13.5693 C.2       12 UNK         0.5020 
     29 O         -56.6485  -25.8703   13.4908 O.2       12 UNK        -0.5489 
     30 CA        -54.7905  -25.2033   14.8763 C.3       11 UNK         0.0294 
     31 CB        -55.8258  -25.0413   16.0083 C.3       11 UNK        -0.2019 
     32 N         -53.6586  -26.0118   15.3590 N.am      11 UNK        -0.4493 
     33 C         -53.6116  -27.3440   15.5304 C.2       11 UNK         0.4932 
     34 O         -54.5080  -28.1107   15.1754 O.2       11 UNK        -0.5029 
     35 CA        -52.3681  -27.9261   16.2299 C.3       10 UNK         0.0280 
     36 CB        -51.9400  -29.2828   15.6478 C.3       10 UNK        -0.1976 
     37 N         -51.2218  -27.0160   16.1912 N.am      10 UNK        -0.4242 
     38 C         -50.7669  -26.3158   17.2380 C.2       10 UNK         0.5072 
     39 O         -51.2713  -26.3485   18.3615 O.2       10 UNK        -0.5224 
     40 CA        -49.5468  -25.4115   16.9958 C.3       9 UNK         0.0343 
     41 CB        -48.2466  -26.2176   17.1386 C.3       9 UNK        -0.2003 
     42 N         -49.5607  -24.7132   15.7057 N.am      9 UNK        -0.4272 
     43 C         -50.4998  -23.8297   15.3321 C.2       9 UNK         0.4988 
     44 O         -51.5010  -23.5659   15.9993 O.2       9 UNK        -0.5108 
     45 CA        -50.2948  -23.1237   13.9835 C.3       8 UNK         0.0248 
     46 CB        -49.1835  -22.0666   14.0859 C.3       8 UNK        -0.2001 
     47 N         -49.9990  -24.0631   12.9018 N.am      8 UNK        -0.4140 
     48 C         -50.8847  -24.9482   12.4215 C.2       8 UNK         0.5028 
     49 O         -52.0508  -25.0223   12.8039 O.2       8 UNK        -0.5428 
     50 CA        -50.3835  -25.9504   11.3708 C.3       7 UNK         0.0264 
     51 CB        -50.2460  -25.2680   10.0027 C.3       7 UNK        -0.1988 
     52 N         -49.1168  -26.5780   11.7507 N.am      7 UNK        -0.4454 
     53 C         -48.9259  -27.2777   12.8814 C.2       7 UNK         0.5027 
     54 O         -49.8118  -27.5050   13.7065 O.2       7 UNK        -0.5083 
     55 CA        -47.4920  -27.7391   13.1987 C.3       6 UNK         0.0844 
     56 C56       -47.2015  -29.1862   12.7331 C.3       14 UNK        -0.0967 
     57 S57       -46.9703  -29.3727   10.9341 S.3       14 UNK        -0.2604 
     58 C58       -48.0827  -30.7575   10.5381 C.3       14 UNK         0.0134 
     59 N         -46.4898  -26.7655   12.7568 N.am      6 UNK        -0.4116 
     60 C         -46.3037  -25.5742   13.3428 C.2       5 UNK         0.5034 
     61 O         -46.9506  -25.1770   14.3135 O.2       5 UNK        -0.5045 
     62 CA        -45.2370  -24.6579   12.7224 C.3       5 UNK         0.0224 
     63 CB        -43.8307  -25.2693   12.8437 C.3       5 UNK        -0.1978 
     64 N         -45.5151  -24.3235   11.3235 N.am      5 UNK        -0.4737 
     65 C         -46.6013  -23.6615   10.9018 C.2       4 UNK         0.5027 
     66 O         -47.5012  -23.2740   11.6445 O.2       4 UNK        -0.5211 
     67 CA        -46.7178  -23.3890    9.3936 C.3       4 UNK         0.0297 
     68 CB        -45.9644  -22.1005    9.0271 C.3       4 UNK        -0.1993 
     69 N         -46.2785  -24.4733    8.5090 N.am      4 UNK        -0.4486 
     70 C         -46.6159  -25.7683    8.5829 C.2       3 UNK         0.4961 
     71 O         -47.2356  -26.2739    9.5193 O.2       3 UNK        -0.5105 
     72 CA        -46.2367  -26.6135    7.3549 C.3       3 UNK         0.0299 
     73 CB        -46.3301  -28.1254    7.6151 C.3       3 UNK        -0.1972 
     74 N         -47.1124  -26.2709    6.2343 N.am      3 UNK        -0.4305 
     75 C         -46.9698  -25.2108    5.4311 C.2       2 UNK         0.5006 
     76 O         -46.0305  -24.4176    5.5154 O.2       2 UNK        -0.5106 
     77 CA        -48.0636  -24.9737    4.3752 C.3       2 UNK         0.0296 
     78 CB        -47.9948  -26.0200    3.2446 C.3       2 UNK        -0.2002 
     79 N         -49.4225  -24.8551    4.9264 N.am      2 UNK        -0.4032 
     80 C         -50.1780  -25.7888    5.5297 C.2       1 UNK         0.5000 
     81 O         -49.7915  -26.9406    5.7392 O.2       1 UNK        -0.5238 
     82 H82       -53.2090  -22.5150    3.6084 H         1 UNK         0.0889 
     83 H83       -54.1372  -23.6695    2.6500 H         1 UNK         0.0889 
     84 H84       -52.5219  -23.1849    2.1273 H         1 UNK         0.0889 
     85 H85       -52.3442  -23.4408    5.4378 H         1 UNK         0.3028 
     86 H86       -51.4408  -24.7807    6.8909 H         1 UNK         0.0864 
     87 H87       -52.4405  -27.3466    5.5913 H         1 UNK         0.0720 
     88 H88       -53.6035  -26.1893    6.1531 H         1 UNK         0.0720 
     89 H89       -51.0522  -28.7904    7.0444 H         1 UNK         0.0814 
     90 H90       -52.6514  -29.3963    7.3972 H         1 UNK         0.0814 
     91 H91       -49.3032  -29.5416    8.4365 H         1 UNK         0.1469 
     92 H92       -50.0922  -31.0437   12.3719 H         1 UNK         0.1381 
     93 H93       -53.2742  -29.3650   10.0352 H         1 UNK         0.1206 
     94 H94       -53.1056  -29.5182   12.8420 H         1 UNK         0.0813 
     95 H95       -52.2716  -30.9894   13.2976 H         1 UNK         0.0813 
     96 H96       -54.9024  -30.7336   14.1454 H         1 UNK         0.0638 
     97 H97       -55.9756  -31.9320   13.4701 H         1 UNK         0.0638 
     98 H98       -56.8243  -30.2612   11.8100 H         1 UNK         0.0568 
     99 H99       -58.6828  -28.3549   14.7258 H         1 UNK         0.3450 
    100 H100      -57.3780  -27.6478   13.8020 H         1 UNK         0.3450 
    101 H101      -55.1162  -28.2936   13.2536 H         1 UNK         0.2987 
    102 H102      -53.9141  -26.9052   10.8453 H         1 UNK         0.0766 
    103 H103      -54.9125  -24.6759   10.3112 H         1 UNK         0.0798 
    104 H104      -56.5157  -25.2944   10.7115 H         1 UNK         0.0798 
    105 H105      -55.6261  -25.9518    9.3428 H         1 UNK         0.0798 
    106 H106      -53.5870  -25.8211   12.7508 H         1 UNK         0.3198 
    107 H107      -54.3867  -24.2155   14.6476 H         1 UNK         0.0843 
    108 H108      -56.2785  -25.9967   16.2770 H         1 UNK         0.0831 
    109 H109      -56.6323  -24.3700   15.7103 H         1 UNK         0.0831 
    110 H110      -55.3711  -24.6209   16.9053 H         1 UNK         0.0831 
    111 H111      -52.8435  -25.4794   15.6376 H         1 UNK         0.3133 
    112 H112      -52.6712  -28.1057   17.2630 H         1 UNK         0.0566 
    113 H113      -51.1412  -29.7284   16.2404 H         1 UNK         0.0814 
    114 H114      -52.7659  -29.9951   15.6356 H         1 UNK         0.0814 
    115 H115      -51.5717  -29.1757   14.6295 H         1 UNK         0.0814 
    116 H116      -50.7286  -26.9580   15.3018 H         1 UNK         0.3091 
    117 H117      -49.5522  -24.6452   17.7738 H         1 UNK         0.0702 
    118 H118      -47.3693  -25.5759   17.0545 H         1 UNK         0.0785 
    119 H119      -48.1702  -26.9935   16.3773 H         1 UNK         0.0785 
    120 H120      -48.1962  -26.7089   18.1113 H         1 UNK         0.0785 
    121 H121      -48.7588  -24.8640   15.0998 H         1 UNK         0.2998 
    122 H122      -51.2248  -22.6084   13.7338 H         1 UNK         0.0697 
    123 H123      -48.2114  -22.5188   14.2879 H         1 UNK         0.0825 
    124 H124      -49.3893  -21.3577   14.8889 H         1 UNK         0.0825 
    125 H125      -49.0975  -21.4942   13.1622 H         1 UNK         0.0825 
    126 H126      -49.0613  -24.0272   12.5088 H         1 UNK         0.3029 
    127 H127      -51.1258  -26.7472   11.2826 H         1 UNK         0.0897 
    128 H128      -49.5148  -24.4625   10.0268 H         1 UNK         0.0792 
    129 H129      -51.1963  -24.8363    9.6866 H         1 UNK         0.0792 
    130 H130      -49.9379  -25.9788    9.2356 H         1 UNK         0.0792 
    131 H131      -48.3432  -26.4735   11.0976 H         1 UNK         0.3086 
    132 H132      -47.4296  -27.7682   14.2882 H         1 UNK         0.0583 
    133 H133      -46.2882  -29.5388   13.2147 H         1 UNK         0.1020 
    134 H134      -47.9866  -29.8582   13.0837 H         1 UNK         0.1020 
    135 H135      -47.7641  -31.1925    9.5897 H         1 UNK         0.0694 
    136 H136      -47.9678  -31.5471   11.2823 H         1 UNK         0.0694 
    137 H137      -45.9757  -26.9963   11.9185 H         1 UNK         0.2989 
    138 H138      -45.2481  -23.7249   13.2907 H         1 UNK         0.1055 
    139 H139      -43.6097  -25.5369   13.8781 H         1 UNK         0.0806 
    140 H140      -43.0643  -24.5625   12.5248 H         1 UNK         0.0806 
    141 H141      -43.7222  -26.1727   12.2425 H         1 UNK         0.0806 
    142 H142      -44.8406  -24.6186   10.6326 H         1 UNK         0.3061 
    143 H143      -47.7740  -23.2229    9.1780 H         1 UNK         0.0734 
    144 H144      -46.1463  -21.8136    7.9911 H         1 UNK         0.0832 
    145 H145      -46.2879  -21.2671    9.6527 H         1 UNK         0.0832 
    146 H146      -44.8876  -22.2102    9.1617 H         1 UNK         0.0832 
    147 H147      -45.8133  -24.1844    7.6558 H         1 UNK         0.3156 
    148 H148      -45.2021  -26.3851    7.0899 H         1 UNK         0.0589 
    149 H149      -47.3372  -28.4226    7.9065 H         1 UNK         0.0808 
    150 H150      -46.0531  -28.6998    6.7312 H         1 UNK         0.0808 
    151 H151      -45.6547  -28.4211    8.4182 H         1 UNK         0.0808 
    152 H152      -47.9716  -26.8084    6.1356 H         1 UNK         0.3098 
    153 H153      -47.8498  -24.0034    3.9238 H         1 UNK         0.0720 
    154 H154      -48.7176  -25.7996    2.4589 H         1 UNK         0.0791 
    155 H155      -48.1918  -27.0303    3.6041 H         1 UNK         0.0791 
    156 H156      -47.0064  -26.0286    2.7831 H         1 UNK         0.0791 
    157 H157      -49.8364  -23.9387    4.8272 H         1 UNK         0.3028 
@<TRIPOS>BOND
     1    1    2 1    
     2    1   82 1    
     3    1   83 1    
     4    1   84 1    
     5    2    3 2    
     6    2    4 am   BACKBONE|DICT|INTERRES
     7    4    5 1    
     8    4   85 1    
     9    5    6 1    
    10    5   80 1    
    11    5   86 1    
    12    6    7 1    
    13    6   87 1    
    14    6   88 1    
    15    7    8 1    
    16    8    9 1    
    17    8   89 1    
    18    8   90 1    
    19    9   10 ar   
    20    9   14 ar   
    21   10   11 ar   
    22   10   91 1    
    23   11   12 ar   
    24   11   58 1    
    25   12   13 ar   
    26   12   92 1    
    27   13   14 ar   
    28   13   15 1    
    29   14   93 1    
    30   15   16 1    
    31   15   94 1    
    32   15   95 1    
    33   16   17 1    
    34   17   18 1    
    35   17   96 1    
    36   17   97 1    
    37   18   19 1    
    38   18   22 1    
    39   18   98 1    
    40   19   20 am   BACKBONE|DICT|INTERRES
    41   19   21 2    
    42   20   99 1    
    43   20  100 1    
    44   22   23 am   BACKBONE|DICT|INTERRES
    45   22  101 1    
    46   23   24 2    
    47   23   25 1    
    48   25   26 1    
    49   25   27 1    
    50   25  102 1    
    51   26  103 1    
    52   26  104 1    
    53   26  105 1    
    54   27   28 am   BACKBONE|DICT|INTERRES
    55   27  106 1    
    56   28   29 2    
    57   28   30 1    
    58   30   31 1    
    59   30   32 1    
    60   30  107 1    
    61   31  108 1    
    62   31  109 1    
    63   31  110 1    
    64   32   33 am   BACKBONE|DICT|INTERRES
    65   32  111 1    
    66   33   34 2    
    67   33   35 1    
    68   35   36 1    
    69   35   37 1    
    70   35  112 1    
    71   36  113 1    
    72   36  114 1    
    73   36  115 1    
    74   37   38 am   BACKBONE|DICT|INTERRES
    75   37  116 1    
    76   38   39 2    
    77   38   40 1    
    78   40   41 1    
    79   40   42 1    
    80   40  117 1    
    81   41  118 1    
    82   41  119 1    
    83   41  120 1    
    84   42   43 am   BACKBONE|DICT|INTERRES
    85   42  121 1    
    86   43   44 2    
    87   43   45 1    
    88   45   46 1    
    89   45   47 1    
    90   45  122 1    
    91   46  123 1    
    92   46  124 1    
    93   46  125 1    
    94   47   48 am   BACKBONE|DICT|INTERRES
    95   47  126 1    
    96   48   49 2    
    97   48   50 1    
    98   50   51 1    
    99   50   52 1    
   100   50  127 1    
   101   51  128 1    
   102   51  129 1    
   103   51  130 1    
   104   52   53 am   BACKBONE|DICT|INTERRES
   105   52  131 1    
   106   53   54 2    
   107   53   55 1    
   108   55   56 1    
   109   55   59 1    
   110   55  132 1    
   111   56   57 1    
   112   56  133 1    
   113   56  134 1    
   114   57   58 1    
   115   58  135 1    
   116   58  136 1    
   117   59   60 am   BACKBONE|DICT|INTERRES
   118   59  137 1    
   119   60   61 2    
   120   60   62 1    
   121   62   63 1    
   122   62   64 1    
   123   62  138 1    
   124   63  139 1    
   125   63  140 1    
   126   63  141 1    
   127   64   65 am   BACKBONE|DICT|INTERRES
   128   64  142 1    
   129   65   66 2    
   130   65   67 1    
   131   67   68 1    
   132   67   69 1    
   133   67  143 1    
   134   68  144 1    
   135   68  145 1    
   136   68  146 1    
   137   69   70 am   BACKBONE|DICT|INTERRES
   138   69  147 1    
   139   70   71 2    
   140   70   72 1    
   141   72   73 1    
   142   72   74 1    
   143   72  148 1    
   144   73  149 1    
   145   73  150 1    
   146   73  151 1    
   147   74   75 am   BACKBONE|DICT|INTERRES
   148   74  152 1    
   149   75   76 2    
   150   75   77 1    
   151   77   78 1    
   152   77   79 1    
   153   77  153 1    
   154   78  154 1    
   155   78  155 1    
   156   78  156 1    
   157   79   80 am   BACKBONE|DICT|INTERRES
   158   79  157 1    
   159   80   81 2    
@<TRIPOS>SUBSTRUCTURE
     1 UNK         1 GROUP             0       ****    0 ROOT    
