@<TRIPOS>MOLECULE
3R207
157   159    1
SMALL
USER_CHARGES


@<TRIPOS>ATOM
      1 CA        -47.2049  -29.4689    5.0000 C.3       0 UNK        -0.1975 
      2 C         -48.2464  -28.4338    5.3960 C.2       0 UNK         0.4852 
      3 O         -48.0921  -27.7937    6.4373 O.2       0 UNK        -0.5216 
      4 N         -49.2875  -28.2601    4.5652 N.am      1 UNK        -0.4461 
      5 CA        -50.4153  -27.3298    4.7328 C.3       1 UNK         0.0864 
      6 C6        -51.4300  -27.7935    5.8113 C.3       14 UNK        -0.0898 
      7 S7        -52.2552  -29.3683    5.3961 S.3       14 UNK        -0.2598 
      8 C8        -53.7809  -29.2568    6.3949 C.3       14 UNK         0.0286 
      9 C9        -53.4701  -29.2350    7.8849 C.ar      14 UNK        -0.0844 
     10 C10       -53.2036  -28.0222    8.5233 C.ar      14 UNK        -0.0881 
     11 C11       -52.7925  -27.9955    9.8560 C.ar      14 UNK        -0.0643 
     12 C12       -52.7202  -29.1894   10.5797 C.ar      14 UNK        -0.0930 
     13 C13       -53.0311  -30.4063    9.9659 C.ar      14 UNK        -0.0827 
     14 C14       -53.3989  -30.4241    8.6161 C.ar      14 UNK        -0.1249 
     15 C15       -52.9147  -31.7115   10.7371 C.3       14 UNK         0.0141 
     16 S16       -54.5236  -32.2628   11.3828 S.3       14 UNK        -0.2313 
     17 C17       -54.5903  -31.4764   13.0280 C.3       14 UNK        -0.0915 
     18 CA        -55.8484  -30.5815   13.1956 C.3       13 UNK         0.0968 
     19 C         -56.2404  -30.3882   14.6915 C.2       13 UNK         0.5732 
     20 N         -56.4772  -29.1791   15.1872 N.am      13 UNK        -0.7310 
     21 O         -56.3551  -31.3673   15.4249 O.2       13 UNK        -0.5035 
     22 N         -55.7007  -29.3183   12.4597 N.am      13 UNK        -0.4233 
     23 C         -56.6890  -28.6878   11.8131 C.2       13 UNK         0.4989 
     24 O         -57.8208  -29.1559   11.6743 O.2       13 UNK        -0.4996 
     25 CA        -56.3626  -27.2912   11.2370 C.3       12 UNK         0.0216 
     26 CB        -57.6265  -26.4456   10.9715 C.3       12 UNK        -0.1964 
     27 N         -55.3983  -26.5282   12.0435 N.am      12 UNK        -0.4276 
     28 C         -55.4993  -26.2137   13.3430 C.2       12 UNK         0.5020 
     29 O         -56.4663  -26.4974   14.0529 O.2       12 UNK        -0.5489 
     30 CA        -54.2782  -25.5240   13.9764 C.3       11 UNK         0.0294 
     31 CB        -54.6683  -24.1676   14.5870 C.3       11 UNK        -0.2019 
     32 N         -53.6679  -26.3604   15.0125 N.am      11 UNK        -0.4493 
     33 C         -53.2214  -27.6131   14.8538 C.2       11 UNK         0.4932 
     34 O         -53.2228  -28.2071   13.7736 O.2       11 UNK        -0.5029 
     35 CA        -52.6894  -28.3122   16.1199 C.3       10 UNK         0.0280 
     36 CB        -52.4567  -29.8194   15.9052 C.3       10 UNK        -0.1976 
     37 N         -51.4446  -27.7115   16.6019 N.am      10 UNK        -0.4242 
     38 C         -51.3291  -26.5409   17.2427 C.2       10 UNK         0.5072 
     39 O         -52.2875  -25.8111   17.5062 O.2       10 UNK        -0.5224 
     40 CA        -49.9189  -26.1077   17.6728 C.3       9 UNK         0.0343 
     41 CB        -48.8395  -27.2029   17.5351 C.3       9 UNK        -0.2003 
     42 N         -49.5279  -24.9476   16.8795 N.am      9 UNK        -0.4272 
     43 C         -48.9371  -23.8425   17.3545 C.2       9 UNK         0.4988 
     44 O         -48.6586  -23.6782   18.5434 O.2       9 UNK        -0.5108 
     45 CA        -48.5639  -22.7317   16.3504 C.3       8 UNK         0.0248 
     46 CB        -47.0367  -22.6437   16.1907 C.3       8 UNK        -0.2001 
     47 N         -49.1693  -22.9101   15.0286 N.am      8 UNK        -0.4140 
     48 C         -50.4584  -22.6692   14.7457 C.2       8 UNK         0.5028 
     49 O         -51.2478  -22.1660   15.5453 O.2       8 UNK        -0.5428 
     50 CA        -50.9713  -23.0763   13.3503 C.3       7 UNK         0.0264 
     51 CB        -51.0952  -21.8452   12.4388 C.3       7 UNK        -0.1988 
     52 N         -50.1597  -24.0914   12.6728 N.am      7 UNK        -0.4454 
     53 C         -49.9079  -25.3292   13.1258 C.2       7 UNK         0.5027 
     54 O         -50.3518  -25.7687   14.1851 O.2       7 UNK        -0.5083 
     55 CA        -48.9614  -26.2085   12.2809 C.3       6 UNK         0.0844 
     56 C56       -49.7453  -27.1734   11.3597 C.3       14 UNK        -0.0967 
     57 S57       -50.6418  -26.3079   10.0187 S.3       14 UNK        -0.2604 
     58 C58       -52.3631  -26.6759   10.4704 C.3       14 UNK         0.0134 
     59 N         -47.9632  -25.4544   11.5180 N.am      6 UNK        -0.4116 
     60 C         -47.0533  -24.5950   11.9962 C.2       5 UNK         0.5034 
     61 O         -46.9947  -24.2439   13.1761 O.2       5 UNK        -0.5045 
     62 CA        -46.0638  -24.0247   10.9606 C.3       5 UNK         0.0224 
     63 CB        -44.7494  -23.5238   11.5962 C.3       5 UNK        -0.1978 
     64 N         -45.8089  -24.9550    9.8478 N.am      5 UNK        -0.4737 
     65 C         -45.2179  -26.1613    9.9111 C.2       4 UNK         0.5027 
     66 O         -44.7286  -26.6252   10.9411 O.2       4 UNK        -0.5211 
     67 CA        -45.1981  -27.0290    8.6346 C.3       4 UNK         0.0297 
     68 CB        -46.0115  -28.3167    8.8515 C.3       4 UNK        -0.1993 
     69 N         -45.7026  -26.3488    7.4378 N.am      4 UNK        -0.4486 
     70 C         -45.0359  -25.4015    6.7628 C.2       3 UNK         0.4961 
     71 O         -43.8880  -25.0501    7.0364 O.2       3 UNK        -0.5105 
     72 CA        -45.7736  -24.7024    5.6062 C.3       3 UNK         0.0299 
     73 CB        -45.4530  -25.3971    4.2732 C.3       3 UNK        -0.1972 
     74 N         -47.2292  -24.6228    5.7628 N.am      3 UNK        -0.4305 
     75 C         -47.9052  -24.0742    6.7813 C.2       2 UNK         0.5006 
     76 O         -47.3630  -23.5677    7.7640 O.2       2 UNK        -0.5106 
     77 CA        -49.4451  -24.1222    6.7215 C.3       2 UNK         0.0296 
     78 CB        -50.0136  -22.8928    5.9872 C.3       2 UNK        -0.2002 
     79 N         -49.9924  -25.3804    6.1904 N.am      2 UNK        -0.4032 
     80 C         -49.9032  -25.8878    4.9492 C.2       1 UNK         0.5000 
     81 O         -49.3741  -25.2983    4.0043 O.2       1 UNK        -0.5238 
     82 H82       -47.1652  -30.2612    5.7469 H         1 UNK         0.0889 
     83 H83       -46.2202  -29.0058    4.9426 H         1 UNK         0.0889 
     84 H84       -47.4250  -29.9221    4.0337 H         1 UNK         0.0889 
     85 H85       -49.3249  -28.8119    3.7198 H         1 UNK         0.3028 
     86 H86       -50.9406  -27.3110    3.7764 H         1 UNK         0.0864 
     87 H87       -50.9433  -27.9116    6.7816 H         1 UNK         0.0720 
     88 H88       -52.2074  -27.0368    5.9281 H         1 UNK         0.0720 
     89 H89       -54.4207  -30.1089    6.1606 H         1 UNK         0.0814 
     90 H90       -54.3438  -28.3666    6.1096 H         1 UNK         0.0814 
     91 H91       -53.2537  -27.0972    7.9668 H         1 UNK         0.1469 
     92 H92       -52.3941  -29.1785   11.6095 H         1 UNK         0.1381 
     93 H93       -53.6054  -31.3673    8.1286 H         1 UNK         0.1206 
     94 H94       -52.1899  -31.6238   11.5479 H         1 UNK         0.0813 
     95 H95       -52.5256  -32.4862   10.0746 H         1 UNK         0.0813 
     96 H96       -53.6826  -30.9012   13.2143 H         1 UNK         0.0638 
     97 H97       -54.5825  -32.2915   13.7537 H         1 UNK         0.0638 
     98 H98       -56.6902  -31.1327   12.7730 H         1 UNK         0.0568 
     99 H99       -56.7448  -29.0990   16.1545 H         1 UNK         0.3450 
    100 H100      -56.4369  -28.3433   14.6118 H         1 UNK         0.3450 
    101 H101      -54.8116  -28.8483   12.5860 H         1 UNK         0.2987 
    102 H102      -55.8803  -27.4744   10.2754 H         1 UNK         0.0766 
    103 H103      -57.3731  -25.4774   10.5400 H         1 UNK         0.0798 
    104 H104      -58.1915  -26.2673   11.8871 H         1 UNK         0.0798 
    105 H105      -58.2942  -26.9458   10.2688 H         1 UNK         0.0798 
    106 H106      -54.5495  -26.2736   11.5623 H         1 UNK         0.3198 
    107 H107      -53.5214  -25.3492   13.2107 H         1 UNK         0.0843 
    108 H108      -55.4330  -24.2783   15.3572 H         1 UNK         0.0831 
    109 H109      -55.0681  -23.4975   13.8250 H         1 UNK         0.0831 
    110 H110      -53.8114  -23.6699   15.0417 H         1 UNK         0.0831 
    111 H111      -53.5615  -25.9499   15.9346 H         1 UNK         0.3133 
    112 H112      -53.4499  -28.2035   16.8961 H         1 UNK         0.0566 
    113 H113      -51.7193  -30.0100   15.1242 H         1 UNK         0.0814 
    114 H114      -52.1116  -30.3030   16.8191 H         1 UNK         0.0814 
    115 H115      -53.3806  -30.3167   15.6113 H         1 UNK         0.0814 
    116 H116      -50.5960  -28.2141   16.3878 H         1 UNK         0.3091 
    117 H117      -49.9953  -25.8353   18.7275 H         1 UNK         0.0702 
    118 H118      -47.8861  -26.8578   17.9360 H         1 UNK         0.0785 
    119 H119      -48.6710  -27.4853   16.4948 H         1 UNK         0.0785 
    120 H120      -49.1100  -28.1009   18.0926 H         1 UNK         0.0785 
    121 H121      -49.7726  -24.9995   15.8944 H         1 UNK         0.2998 
    122 H122      -48.9162  -21.7854   16.7663 H         1 UNK         0.0697 
    123 H123      -46.6174  -23.5751   15.8079 H         1 UNK         0.0825 
    124 H124      -46.5543  -22.4393   17.1475 H         1 UNK         0.0825 
    125 H125      -46.7525  -21.8428   15.5078 H         1 UNK         0.0825 
    126 H126      -48.5792  -23.3263   14.3161 H         1 UNK         0.3029 
    127 H127      -51.9666  -23.4989   13.4892 H         1 UNK         0.0897 
    128 H128      -51.7227  -21.0803   12.8989 H         1 UNK         0.0792 
    129 H129      -51.5518  -22.1022   11.4826 H         1 UNK         0.0792 
    130 H130      -50.1235  -21.3921   12.2383 H         1 UNK         0.0792 
    131 H131      -49.7547  -23.8276   11.7865 H         1 UNK         0.3086 
    132 H132      -48.4005  -26.8184   12.9921 H         1 UNK         0.0583 
    133 H133      -49.0564  -27.8824   10.8977 H         1 UNK         0.1020 
    134 H134      -50.4291  -27.7863   11.9499 H         1 UNK         0.1020 
    135 H135      -52.4695  -26.6954   11.5551 H         1 UNK         0.0694 
    136 H136      -53.0004  -25.8694   10.1048 H         1 UNK         0.0694 
    137 H137      -47.9398  -25.6486   10.5280 H         1 UNK         0.2989 
    138 H138      -46.5622  -23.1595   10.5200 H         1 UNK         0.1055 
    139 H139      -44.9423  -22.7198   12.3076 H         1 UNK         0.0806 
    140 H140      -44.0684  -23.1308   10.8414 H         1 UNK         0.0806 
    141 H141      -44.2310  -24.3150   12.1383 H         1 UNK         0.0806 
    142 H142      -46.1857  -24.6550    8.9524 H         1 UNK         0.3061 
    143 H143      -44.1585  -27.3116    8.4557 H         1 UNK         0.0734 
    144 H144      -45.9496  -28.9753    7.9851 H         1 UNK         0.0832 
    145 H145      -45.6402  -28.8789    9.7094 H         1 UNK         0.0832 
    146 H146      -47.0654  -28.1019    9.0331 H         1 UNK         0.0832 
    147 H147      -46.6284  -26.6225    7.1168 H         1 UNK         0.3156 
    148 H148      -45.4007  -23.6775    5.5570 H         1 UNK         0.0589 
    149 H149      -45.8402  -26.4165    4.2475 H         1 UNK         0.0808 
    150 H150      -45.8805  -24.8549    3.4295 H         1 UNK         0.0808 
    151 H151      -44.3758  -25.4522    4.1090 H         1 UNK         0.0808 
    152 H152      -47.7907  -24.9862    4.9973 H         1 UNK         0.3098 
    153 H153      -49.7926  -24.0713    7.7548 H         1 UNK         0.0720 
    154 H154      -51.1035  -22.8949    5.9966 H         1 UNK         0.0791 
    155 H155      -49.6867  -22.8465    4.9481 H         1 UNK         0.0791 
    156 H156      -49.6872  -21.9699    6.4684 H         1 UNK         0.0791 
    157 H157      -50.3716  -25.9943    6.8982 H         1 UNK         0.3028 
@<TRIPOS>BOND
     1    1    2 1    
     2    1   82 1    
     3    1   83 1    
     4    1   84 1    
     5    2    3 2    
     6    2    4 am   BACKBONE|DICT|INTERRES
     7    4    5 1    
     8    4   85 1    
     9    5    6 1    
    10    5   80 1    
    11    5   86 1    
    12    6    7 1    
    13    6   87 1    
    14    6   88 1    
    15    7    8 1    
    16    8    9 1    
    17    8   89 1    
    18    8   90 1    
    19    9   10 ar   
    20    9   14 ar   
    21   10   11 ar   
    22   10   91 1    
    23   11   12 ar   
    24   11   58 1    
    25   12   13 ar   
    26   12   92 1    
    27   13   14 ar   
    28   13   15 1    
    29   14   93 1    
    30   15   16 1    
    31   15   94 1    
    32   15   95 1    
    33   16   17 1    
    34   17   18 1    
    35   17   96 1    
    36   17   97 1    
    37   18   19 1    
    38   18   22 1    
    39   18   98 1    
    40   19   20 am   BACKBONE|DICT|INTERRES
    41   19   21 2    
    42   20   99 1    
    43   20  100 1    
    44   22   23 am   BACKBONE|DICT|INTERRES
    45   22  101 1    
    46   23   24 2    
    47   23   25 1    
    48   25   26 1    
    49   25   27 1    
    50   25  102 1    
    51   26  103 1    
    52   26  104 1    
    53   26  105 1    
    54   27   28 am   BACKBONE|DICT|INTERRES
    55   27  106 1    
    56   28   29 2    
    57   28   30 1    
    58   30   31 1    
    59   30   32 1    
    60   30  107 1    
    61   31  108 1    
    62   31  109 1    
    63   31  110 1    
    64   32   33 am   BACKBONE|DICT|INTERRES
    65   32  111 1    
    66   33   34 2    
    67   33   35 1    
    68   35   36 1    
    69   35   37 1    
    70   35  112 1    
    71   36  113 1    
    72   36  114 1    
    73   36  115 1    
    74   37   38 am   BACKBONE|DICT|INTERRES
    75   37  116 1    
    76   38   39 2    
    77   38   40 1    
    78   40   41 1    
    79   40   42 1    
    80   40  117 1    
    81   41  118 1    
    82   41  119 1    
    83   41  120 1    
    84   42   43 am   BACKBONE|DICT|INTERRES
    85   42  121 1    
    86   43   44 2    
    87   43   45 1    
    88   45   46 1    
    89   45   47 1    
    90   45  122 1    
    91   46  123 1    
    92   46  124 1    
    93   46  125 1    
    94   47   48 am   BACKBONE|DICT|INTERRES
    95   47  126 1    
    96   48   49 2    
    97   48   50 1    
    98   50   51 1    
    99   50   52 1    
   100   50  127 1    
   101   51  128 1    
   102   51  129 1    
   103   51  130 1    
   104   52   53 am   BACKBONE|DICT|INTERRES
   105   52  131 1    
   106   53   54 2    
   107   53   55 1    
   108   55   56 1    
   109   55   59 1    
   110   55  132 1    
   111   56   57 1    
   112   56  133 1    
   113   56  134 1    
   114   57   58 1    
   115   58  135 1    
   116   58  136 1    
   117   59   60 am   BACKBONE|DICT|INTERRES
   118   59  137 1    
   119   60   61 2    
   120   60   62 1    
   121   62   63 1    
   122   62   64 1    
   123   62  138 1    
   124   63  139 1    
   125   63  140 1    
   126   63  141 1    
   127   64   65 am   BACKBONE|DICT|INTERRES
   128   64  142 1    
   129   65   66 2    
   130   65   67 1    
   131   67   68 1    
   132   67   69 1    
   133   67  143 1    
   134   68  144 1    
   135   68  145 1    
   136   68  146 1    
   137   69   70 am   BACKBONE|DICT|INTERRES
   138   69  147 1    
   139   70   71 2    
   140   70   72 1    
   141   72   73 1    
   142   72   74 1    
   143   72  148 1    
   144   73  149 1    
   145   73  150 1    
   146   73  151 1    
   147   74   75 am   BACKBONE|DICT|INTERRES
   148   74  152 1    
   149   75   76 2    
   150   75   77 1    
   151   77   78 1    
   152   77   79 1    
   153   77  153 1    
   154   78  154 1    
   155   78  155 1    
   156   78  156 1    
   157   79   80 am   BACKBONE|DICT|INTERRES
   158   79  157 1    
   159   80   81 2    
@<TRIPOS>SUBSTRUCTURE
     1 UNK         1 GROUP             0       ****    0 ROOT    
