@<TRIPOS>MOLECULE
3R207
157   159    1
SMALL
USER_CHARGES


@<TRIPOS>ATOM
      1 CA        -50.4349  -29.7230    9.7763 C.3       0 UNK        -0.1975 
      2 C         -49.7860  -29.9113    8.4124 C.2       0 UNK         0.4852 
      3 O         -49.3877  -31.0292    8.0820 O.2       0 UNK        -0.5216 
      4 N         -49.6474  -28.8293    7.6367 N.am      1 UNK        -0.4461 
      5 CA        -48.9085  -28.8065    6.3739 C.3       1 UNK         0.0864 
      6 C6        -49.7579  -29.2283    5.1345 C.3       14 UNK        -0.0898 
      7 S7        -50.9951  -28.0239    4.5273 S.3       14 UNK        -0.2598 
      8 C8        -52.5789  -28.9007    4.7741 C.3       14 UNK         0.0286 
      9 C9        -52.9931  -28.9656    6.2380 C.ar      14 UNK        -0.0844 
     10 C10       -52.9436  -27.8168    7.0324 C.ar      14 UNK        -0.0881 
     11 C11       -53.2468  -27.8757    8.3937 C.ar      14 UNK        -0.0643 
     12 C12       -53.6774  -29.0843    8.9442 C.ar      14 UNK        -0.0930 
     13 C13       -53.7828  -30.2314    8.1527 C.ar      14 UNK        -0.0827 
     14 C14       -53.4280  -30.1702    6.8011 C.ar      14 UNK        -0.1249 
     15 C15       -54.2546  -31.5364    8.7738 C.3       14 UNK         0.0141 
     16 S16       -56.0751  -31.6198    8.8157 S.3       14 UNK        -0.2313 
     17 C17       -56.3771  -32.4272   10.4275 C.3       14 UNK        -0.0915 
     18 CA        -57.0122  -31.4775   11.4813 C.3       13 UNK         0.0968 
     19 C         -57.2103  -32.2293   12.8268 C.2       13 UNK         0.5732 
     20 N         -58.3762  -32.8232   13.0420 N.am      13 UNK        -0.7310 
     21 O         -56.3013  -32.3169   13.6506 O.2       13 UNK        -0.5035 
     22 N         -56.2441  -30.2296   11.6111 N.am      13 UNK        -0.4233 
     23 C         -56.5379  -29.1932   12.4045 C.2       13 UNK         0.4989 
     24 O         -57.5138  -29.1372   13.1574 O.2       13 UNK        -0.4996 
     25 CA        -55.5991  -27.9868   12.3015 C.3       12 UNK         0.0216 
     26 CB        -56.0781  -27.0103   11.2118 C.3       12 UNK        -0.1964 
     27 N         -55.5601  -27.3047   13.5906 N.am      12 UNK        -0.4276 
     28 C         -54.4852  -26.6960   14.0997 C.2       12 UNK         0.5020 
     29 O         -53.4084  -26.5872   13.5052 O.2       12 UNK        -0.5489 
     30 CA        -54.6295  -26.1362   15.5206 C.3       11 UNK         0.0294 
     31 CB        -54.7412  -27.2787   16.5518 C.3       11 UNK        -0.2019 
     32 N         -53.4579  -25.3159   15.8087 N.am      11 UNK        -0.4493 
     33 C         -53.3086  -24.4605   16.8268 C.2       11 UNK         0.4932 
     34 O         -54.2016  -24.1947   17.6334 O.2       11 UNK        -0.5029 
     35 CA        -51.9173  -23.8095   16.9654 C.3       10 UNK         0.0280 
     36 CB        -51.6782  -23.1565   18.3431 C.3       10 UNK        -0.1976 
     37 N         -50.8399  -24.7450   16.6223 N.am      10 UNK        -0.4242 
     38 C         -50.5289  -25.8983   17.2345 C.2       10 UNK         0.5072 
     39 O         -51.0438  -26.2926   18.2818 O.2       10 UNK        -0.5224 
     40 CA        -49.4823  -26.7859   16.5393 C.3       9 UNK         0.0343 
     41 CB        -50.1779  -27.7539   15.5674 C.3       9 UNK        -0.2003 
     42 N         -48.4610  -26.0223   15.8174 N.am      9 UNK        -0.4272 
     43 C         -47.5052  -25.2901   16.4085 C.2       9 UNK         0.4988 
     44 O         -47.3490  -25.2226   17.6284 O.2       9 UNK        -0.5108 
     45 CA        -46.5682  -24.4896   15.4872 C.3       8 UNK         0.0248 
     46 CB        -45.4815  -25.3993   14.8922 C.3       8 UNK        -0.2001 
     47 N         -47.2816  -23.7939   14.4124 N.am      8 UNK        -0.4140 
     48 C         -48.1562  -22.7947   14.6061 C.2       8 UNK         0.5028 
     49 O         -48.4142  -22.3107   15.7084 O.2       8 UNK        -0.5428 
     50 CA        -48.8919  -22.2581   13.3668 C.3       7 UNK         0.0264 
     51 CB        -48.0221  -21.2420   12.6096 C.3       7 UNK        -0.1988 
     52 N         -49.3148  -23.3176   12.4504 N.am      7 UNK        -0.4454 
     53 C         -50.1932  -24.2879   12.7459 C.2       7 UNK         0.5027 
     54 O         -50.7839  -24.3763   13.8217 O.2       7 UNK        -0.5083 
     55 CA        -50.4039  -25.3637   11.6660 C.3       6 UNK         0.0844 
     56 C56       -51.3403  -24.8337   10.5492 C.3       14 UNK        -0.0967 
     57 S57       -51.4078  -25.9407    9.1034 S.3       14 UNK        -0.2604 
     58 C58       -53.0757  -26.6466    9.2736 C.3       14 UNK         0.0134 
     59 N         -49.1139  -25.8385   11.1574 N.am      6 UNK        -0.4116 
     60 C         -48.1977  -26.5109   11.8665 C.2       5 UNK         0.5034 
     61 O         -48.3429  -26.8444   13.0412 O.2       5 UNK        -0.5045 
     62 CA        -46.8720  -26.8227   11.1550 C.3       5 UNK         0.0224 
     63 CB        -46.9507  -28.1693   10.4229 C.3       5 UNK        -0.1978 
     64 N         -46.4799  -25.7637   10.2192 N.am      5 UNK        -0.4737 
     65 C         -46.0908  -24.5429   10.6169 C.2       4 UNK         0.5027 
     66 O         -46.0006  -24.2090   11.7983 O.2       4 UNK        -0.5211 
     67 CA        -45.8013  -23.5074    9.5203 C.3       4 UNK         0.0297 
     68 CB        -44.3994  -23.7220    8.9290 C.3       4 UNK        -0.1993 
     69 N         -46.7916  -23.5090    8.4422 N.am      4 UNK        -0.4486 
     70 C         -48.1031  -23.2802    8.5768 C.2       3 UNK         0.4961 
     71 O         -48.6386  -23.0543    9.6616 O.2       3 UNK        -0.5105 
     72 CA        -48.9777  -23.3199    7.3061 C.3       3 UNK         0.0299 
     73 CB        -49.0819  -21.9203    6.6713 C.3       3 UNK        -0.1972 
     74 N         -48.5972  -24.3368    6.3104 N.am      3 UNK        -0.4305 
     75 C         -47.4666  -24.4393    5.5938 C.2       2 UNK         0.5006 
     76 O         -46.5570  -23.6094    5.6439 O.2       2 UNK        -0.5106 
     77 CA        -47.2977  -25.6866    4.6979 C.3       2 UNK         0.0296 
     78 CB        -45.8148  -26.0897    4.5492 C.3       2 UNK        -0.2002 
     79 N         -48.0918  -26.8609    5.0914 N.am      2 UNK        -0.4032 
     80 C         -48.1049  -27.4920    6.2756 C.2       1 UNK         0.5000 
     81 O         -47.5002  -27.0831    7.2711 O.2       1 UNK        -0.5238 
     82 H82       -50.7853  -28.7034    9.9276 H         1 UNK         0.0889 
     83 H83       -49.7195  -29.9527   10.5652 H         1 UNK         0.0889 
     84 H84       -51.2838  -30.3966    9.8833 H         1 UNK         0.0889 
     85 H85       -49.9851  -27.9312    7.9563 H         1 UNK         0.3028 
     86 H86       -48.1183  -29.5564    6.4546 H         1 UNK         0.0864 
     87 H87       -49.0916  -29.4556    4.3006 H         1 UNK         0.0720 
     88 H88       -50.2615  -30.1715    5.3524 H         1 UNK         0.0720 
     89 H89       -52.5078  -29.8993    4.3404 H         1 UNK         0.0814 
     90 H90       -53.3580  -28.3780    4.2180 H         1 UNK         0.0814 
     91 H91       -52.6175  -26.8803    6.6012 H         1 UNK         0.1469 
     92 H92       -53.9120  -29.1376    9.9954 H         1 UNK         0.1381 
     93 H93       -53.4872  -31.0609    6.1907 H         1 UNK         0.1206 
     94 H94       -53.8703  -32.3903    8.2139 H         1 UNK         0.0813 
     95 H95       -53.8391  -31.6217    9.7787 H         1 UNK         0.0813 
     96 H96       -55.4475  -32.8571   10.8048 H         1 UNK         0.0638 
     97 H97       -57.0405  -33.2746   10.2455 H         1 UNK         0.0638 
     98 H98       -57.9990  -31.1863   11.1162 H         1 UNK         0.0568 
     99 H99       -58.5155  -33.3296   13.9024 H         1 UNK         0.3450 
    100 H100      -59.1225  -32.7696   12.3663 H         1 UNK         0.3450 
    101 H101      -55.4325  -30.1745   11.0186 H         1 UNK         0.2987 
    102 H102      -54.5982  -28.3481   12.0579 H         1 UNK         0.0766 
    103 H103      -55.4350  -26.1323   11.1537 H         1 UNK         0.0798 
    104 H104      -57.0942  -26.6629   11.4033 H         1 UNK         0.0798 
    105 H105      -56.0749  -27.4837   10.2290 H         1 UNK         0.0798 
    106 H106      -56.3979  -27.4128   14.1494 H         1 UNK         0.3198 
    107 H107      -55.5219  -25.5080   15.5580 H         1 UNK         0.0843 
    108 H108      -53.8544  -27.9139   16.5413 H         1 UNK         0.0831 
    109 H109      -55.6028  -27.9160   16.3504 H         1 UNK         0.0831 
    110 H110      -54.8614  -26.8946   17.5648 H         1 UNK         0.0831 
    111 H111      -52.7073  -25.4316   15.1339 H         1 UNK         0.3133 
    112 H112      -51.8756  -23.0184   16.2154 H         1 UNK         0.0566 
    113 H113      -50.6851  -22.7108   18.4013 H         1 UNK         0.0814 
    114 H114      -52.4017  -22.3617   18.5281 H         1 UNK         0.0814 
    115 H115      -51.7726  -23.8759   19.1568 H         1 UNK         0.0814 
    116 H116      -50.4100  -24.5701   15.7182 H         1 UNK         0.3091 
    117 H117      -48.9830  -27.3766   17.3102 H         1 UNK         0.0702 
    118 H118      -49.4660  -28.4506   15.1247 H         1 UNK         0.0785 
    119 H119      -50.6740  -27.2220   14.7538 H         1 UNK         0.0785 
    120 H120      -50.9370  -28.3465   16.0799 H         1 UNK         0.0785 
    121 H121      -48.4785  -26.0871   14.8027 H         1 UNK         0.2998 
    122 H122      -46.0738  -23.7309   16.0974 H         1 UNK         0.0697 
    123 H123      -45.9078  -26.1795   14.2618 H         1 UNK         0.0825 
    124 H124      -44.9115  -25.8926   15.6806 H         1 UNK         0.0825 
    125 H125      -44.7743  -24.8303   14.2883 H         1 UNK         0.0825 
    126 H126      -47.0648  -24.0755   13.4602 H         1 UNK         0.3029 
    127 H127      -49.7917  -21.7459   13.7146 H         1 UNK         0.0897 
    128 H128      -48.5645  -20.8031   11.7718 H         1 UNK         0.0792 
    129 H129      -47.7174  -20.4243   13.2641 H         1 UNK         0.0792 
    130 H130      -47.1151  -21.7008   12.2147 H         1 UNK         0.0792 
    131 H131      -48.9131  -23.2988   11.5149 H         1 UNK         0.3086 
    132 H132      -50.8965  -26.2162   12.1393 H         1 UNK         0.0583 
    133 H133      -52.3459  -24.6841   10.9478 H         1 UNK         0.1020 
    134 H134      -51.0207  -23.8541   10.1913 H         1 UNK         0.1020 
    135 H135      -53.2378  -26.9038   10.3216 H         1 UNK         0.0694 
    136 H136      -53.8216  -25.8969    9.0068 H         1 UNK         0.0694 
    137 H137      -48.8920  -25.5803   10.2077 H         1 UNK         0.2989 
    138 H138      -46.0977  -26.9007   11.9212 H         1 UNK         0.1055 
    139 H139      -47.1874  -28.9774   11.1164 H         1 UNK         0.0806 
    140 H140      -46.0042  -28.4187    9.9432 H         1 UNK         0.0806 
    141 H141      -47.7226  -28.1619    9.6557 H         1 UNK         0.0806 
    142 H142      -46.5543  -25.9651    9.2289 H         1 UNK         0.3061 
    143 H143      -45.8287  -22.5202    9.9863 H         1 UNK         0.0734 
    144 H144      -44.1430  -22.9338    8.2209 H         1 UNK         0.0832 
    145 H145      -43.6398  -23.7126    9.7121 H         1 UNK         0.0832 
    146 H146      -44.3215  -24.6776    8.4089 H         1 UNK         0.0832 
    147 H147      -46.4490  -23.6380    7.4930 H         1 UNK         0.3156 
    148 H148      -49.9795  -23.5998    7.6350 H         1 UNK         0.0589 
    149 H149      -48.1145  -21.5530    6.3276 H         1 UNK         0.0808 
    150 H150      -49.7627  -21.9207    5.8202 H         1 UNK         0.0808 
    151 H151      -49.4642  -21.1958    7.3916 H         1 UNK         0.0808 
    152 H152      -49.2587  -25.0936    6.2101 H         1 UNK         0.3098 
    153 H153      -47.6608  -25.3930    3.7120 H         1 UNK         0.0720 
    154 H154      -45.7012  -26.9499    3.8895 H         1 UNK         0.0791 
    155 H155      -45.3697  -26.3445    5.5119 H         1 UNK         0.0791 
    156 H156      -45.2241  -25.2788    4.1210 H         1 UNK         0.0791 
    157 H157      -48.6869  -27.2445    4.3676 H         1 UNK         0.3028 
@<TRIPOS>BOND
     1    1    2 1    
     2    1   82 1    
     3    1   83 1    
     4    1   84 1    
     5    2    3 2    
     6    2    4 am   BACKBONE|DICT|INTERRES
     7    4    5 1    
     8    4   85 1    
     9    5    6 1    
    10    5   80 1    
    11    5   86 1    
    12    6    7 1    
    13    6   87 1    
    14    6   88 1    
    15    7    8 1    
    16    8    9 1    
    17    8   89 1    
    18    8   90 1    
    19    9   10 ar   
    20    9   14 ar   
    21   10   11 ar   
    22   10   91 1    
    23   11   12 ar   
    24   11   58 1    
    25   12   13 ar   
    26   12   92 1    
    27   13   14 ar   
    28   13   15 1    
    29   14   93 1    
    30   15   16 1    
    31   15   94 1    
    32   15   95 1    
    33   16   17 1    
    34   17   18 1    
    35   17   96 1    
    36   17   97 1    
    37   18   19 1    
    38   18   22 1    
    39   18   98 1    
    40   19   20 am   BACKBONE|DICT|INTERRES
    41   19   21 2    
    42   20   99 1    
    43   20  100 1    
    44   22   23 am   BACKBONE|DICT|INTERRES
    45   22  101 1    
    46   23   24 2    
    47   23   25 1    
    48   25   26 1    
    49   25   27 1    
    50   25  102 1    
    51   26  103 1    
    52   26  104 1    
    53   26  105 1    
    54   27   28 am   BACKBONE|DICT|INTERRES
    55   27  106 1    
    56   28   29 2    
    57   28   30 1    
    58   30   31 1    
    59   30   32 1    
    60   30  107 1    
    61   31  108 1    
    62   31  109 1    
    63   31  110 1    
    64   32   33 am   BACKBONE|DICT|INTERRES
    65   32  111 1    
    66   33   34 2    
    67   33   35 1    
    68   35   36 1    
    69   35   37 1    
    70   35  112 1    
    71   36  113 1    
    72   36  114 1    
    73   36  115 1    
    74   37   38 am   BACKBONE|DICT|INTERRES
    75   37  116 1    
    76   38   39 2    
    77   38   40 1    
    78   40   41 1    
    79   40   42 1    
    80   40  117 1    
    81   41  118 1    
    82   41  119 1    
    83   41  120 1    
    84   42   43 am   BACKBONE|DICT|INTERRES
    85   42  121 1    
    86   43   44 2    
    87   43   45 1    
    88   45   46 1    
    89   45   47 1    
    90   45  122 1    
    91   46  123 1    
    92   46  124 1    
    93   46  125 1    
    94   47   48 am   BACKBONE|DICT|INTERRES
    95   47  126 1    
    96   48   49 2    
    97   48   50 1    
    98   50   51 1    
    99   50   52 1    
   100   50  127 1    
   101   51  128 1    
   102   51  129 1    
   103   51  130 1    
   104   52   53 am   BACKBONE|DICT|INTERRES
   105   52  131 1    
   106   53   54 2    
   107   53   55 1    
   108   55   56 1    
   109   55   59 1    
   110   55  132 1    
   111   56   57 1    
   112   56  133 1    
   113   56  134 1    
   114   57   58 1    
   115   58  135 1    
   116   58  136 1    
   117   59   60 am   BACKBONE|DICT|INTERRES
   118   59  137 1    
   119   60   61 2    
   120   60   62 1    
   121   62   63 1    
   122   62   64 1    
   123   62  138 1    
   124   63  139 1    
   125   63  140 1    
   126   63  141 1    
   127   64   65 am   BACKBONE|DICT|INTERRES
   128   64  142 1    
   129   65   66 2    
   130   65   67 1    
   131   67   68 1    
   132   67   69 1    
   133   67  143 1    
   134   68  144 1    
   135   68  145 1    
   136   68  146 1    
   137   69   70 am   BACKBONE|DICT|INTERRES
   138   69  147 1    
   139   70   71 2    
   140   70   72 1    
   141   72   73 1    
   142   72   74 1    
   143   72  148 1    
   144   73  149 1    
   145   73  150 1    
   146   73  151 1    
   147   74   75 am   BACKBONE|DICT|INTERRES
   148   74  152 1    
   149   75   76 2    
   150   75   77 1    
   151   77   78 1    
   152   77   79 1    
   153   77  153 1    
   154   78  154 1    
   155   78  155 1    
   156   78  156 1    
   157   79   80 am   BACKBONE|DICT|INTERRES
   158   79  157 1    
   159   80   81 2    
@<TRIPOS>SUBSTRUCTURE
     1 UNK         1 GROUP             0       ****    0 ROOT    
