@<TRIPOS>MOLECULE
3R207
157   159    1
SMALL
USER_CHARGES


@<TRIPOS>ATOM
      1 CA        -47.6200  -24.9924   11.3276 C.3       0 UNK        -0.1975 
      2 C         -47.5632  -25.7449   10.0069 C.2       0 UNK         0.4852 
      3 O         -47.8501  -25.1575    8.9624 O.2       0 UNK        -0.5216 
      4 N         -47.1933  -27.0331   10.0557 N.am      1 UNK        -0.4461 
      5 CA        -47.1155  -27.9770    8.9314 C.3       1 UNK         0.0864 
      6 C6        -48.5048  -28.3162    8.3289 C.3       14 UNK        -0.0898 
      7 S7        -49.5006  -29.2514    9.5390 S.3       14 UNK        -0.2598 
      8 C8        -50.4832  -30.3417    8.4677 C.3       14 UNK         0.0286 
      9 C9        -51.7673  -29.6549    8.0376 C.ar      14 UNK        -0.0844 
     10 C10       -51.8132  -28.9022    6.8602 C.ar      14 UNK        -0.0881 
     11 C11       -52.9927  -28.2527    6.4831 C.ar      14 UNK        -0.0643 
     12 C12       -54.1342  -28.3805    7.2827 C.ar      14 UNK        -0.0930 
     13 C13       -54.0981  -29.1330    8.4599 C.ar      14 UNK        -0.0827 
     14 C14       -52.9114  -29.7669    8.8327 C.ar      14 UNK        -0.1249 
     15 C15       -55.3415  -29.2713    9.3240 C.3       14 UNK         0.0141 
     16 S16       -55.3281  -28.0903   10.7081 S.3       14 UNK        -0.2313 
     17 C17       -56.9971  -28.3522   11.4011 C.3       14 UNK        -0.0915 
     18 CA        -57.0661  -28.9497   12.8377 C.3       13 UNK         0.0968 
     19 C         -56.3635  -30.3332   13.0092 C.2       13 UNK         0.5732 
     20 N         -55.7625  -30.6389   14.1519 N.am      13 UNK        -0.7310 
     21 O         -56.4175  -31.1711   12.1121 O.2       13 UNK        -0.5035 
     22 N         -56.8682  -27.9437   13.8996 N.am      13 UNK        -0.4233 
     23 C         -55.7213  -27.4441   14.3765 C.2       13 UNK         0.4989 
     24 O         -54.5982  -27.7616   13.9793 O.2       13 UNK        -0.4996 
     25 CA        -55.8588  -26.4418   15.5332 C.3       12 UNK         0.0216 
     26 CB        -56.6634  -27.0298   16.7130 C.3       12 UNK        -0.1964 
     27 N         -54.5279  -26.0629   15.9983 N.am      12 UNK        -0.4276 
     28 C         -54.2122  -24.9557   16.6789 C.2       12 UNK         0.5020 
     29 O         -55.0183  -24.0643   16.9539 O.2       12 UNK        -0.5489 
     30 CA        -52.7479  -24.8579   17.1464 C.3       11 UNK         0.0294 
     31 CB        -52.4721  -23.6489   18.0664 C.3       11 UNK        -0.2019 
     32 N         -52.2929  -26.1166   17.7527 N.am      11 UNK        -0.4493 
     33 C         -52.7406  -26.6961   18.8802 C.2       11 UNK         0.4932 
     34 O         -53.5604  -26.1756   19.6371 O.2       11 UNK        -0.5029 
     35 CA        -52.2245  -28.1111   19.2250 C.3       10 UNK         0.0280 
     36 CB        -53.3839  -29.1227   19.1925 C.3       10 UNK        -0.1976 
     37 N         -51.1640  -28.5953   18.3381 N.am      10 UNK        -0.4242 
     38 C         -49.8868  -28.1897   18.3512 C.2       10 UNK         0.5072 
     39 O         -49.4203  -27.4274   19.1984 O.2       10 UNK        -0.5224 
     40 CA        -48.9814  -28.6904   17.2047 C.3       9 UNK         0.0343 
     41 CB        -48.0990  -29.8525   17.6891 C.3       9 UNK        -0.2003 
     42 N         -49.6893  -29.1015   15.9809 N.am      9 UNK        -0.4272 
     43 C         -50.5204  -28.3294   15.2656 C.2       9 UNK         0.4988 
     44 O         -50.8208  -27.1777   15.5894 O.2       9 UNK        -0.5108 
     45 CA        -51.1724  -28.9795   14.0321 C.3       8 UNK         0.0248 
     46 CB        -52.1550  -30.0869   14.4527 C.3       8 UNK        -0.2001 
     47 N         -51.9037  -27.9902   13.2413 N.am      8 UNK        -0.4140 
     48 C         -51.3317  -27.0693   12.4604 C.2       8 UNK         0.5028 
     49 O         -50.1234  -27.0182   12.2150 O.2       8 UNK        -0.5428 
     50 CA        -52.2573  -26.0032   11.8729 C.3       7 UNK         0.0264 
     51 CB        -52.2274  -24.7140   12.7124 C.3       7 UNK        -0.1988 
     52 N         -51.7989  -25.7380   10.5176 N.am      7 UNK        -0.4454 
     53 C         -52.5655  -25.3208    9.5060 C.2       7 UNK         0.5027 
     54 O         -53.7378  -24.9606    9.6301 O.2       7 UNK        -0.5083 
     55 CA        -51.8777  -25.3066    8.1284 C.3       6 UNK         0.0844 
     56 C56       -52.8646  -25.1495    6.9373 C.3       14 UNK        -0.0967 
     57 S57       -52.1302  -25.8230    5.4081 S.3       14 UNK        -0.2604 
     58 C58       -53.0339  -27.3987    5.2210 C.3       14 UNK         0.0134 
     59 N         -50.7799  -24.3359    8.0954 N.am      6 UNK        -0.4116 
     60 C         -50.8787  -23.0016    8.2111 C.2       5 UNK         0.5034 
     61 O         -51.9312  -22.3949    8.4107 O.2       5 UNK        -0.5045 
     62 CA        -49.5805  -22.1941    8.0532 C.3       5 UNK         0.0224 
     63 CB        -49.0116  -21.8004    9.4256 C.3       5 UNK        -0.1978 
     64 N         -48.5682  -22.9419    7.3080 N.am      5 UNK        -0.4737 
     65 C         -48.4873  -22.9986    5.9720 C.2       4 UNK         0.5027 
     66 O         -49.2158  -22.3524    5.2175 O.2       4 UNK        -0.5211 
     67 CA        -47.4192  -23.9479    5.3927 C.3       4 UNK         0.0297 
     68 CB        -47.0064  -23.5896    3.9493 C.3       4 UNK        -0.1993 
     69 N         -46.2479  -24.0823    6.2675 N.am      4 UNK        -0.4486 
     70 C         -45.3894  -23.1141    6.6322 C.2       3 UNK         0.4961 
     71 O         -45.4188  -21.9654    6.1896 O.2       3 UNK        -0.5105 
     72 CA        -44.3350  -23.4618    7.7010 C.3       3 UNK         0.0299 
     73 CB        -44.7020  -22.7968    9.0386 C.3       3 UNK        -0.1972 
     74 N         -44.1790  -24.9006    7.9177 N.am      3 UNK        -0.4305 
     75 C         -43.5706  -25.7435    7.0720 C.2       2 UNK         0.5006 
     76 O         -42.9818  -25.3857    6.0514 O.2       2 UNK        -0.5106 
     77 CA        -43.6511  -27.2433    7.4091 C.3       2 UNK         0.0296 
     78 CB        -42.3557  -27.7099    8.0934 C.3       2 UNK        -0.2002 
     79 N         -44.8003  -27.6075    8.2482 N.am      2 UNK        -0.4032 
     80 C         -46.0876  -27.5133    7.8803 C.2       1 UNK         0.5000 
     81 O         -46.4573  -27.0531    6.7977 O.2       1 UNK        -0.5238 
     82 H82       -46.9703  -24.1189   11.2967 H         1 UNK         0.0889 
     83 H83       -47.3117  -25.6176   12.1653 H         1 UNK         0.0889 
     84 H84       -48.6388  -24.6575   11.5201 H         1 UNK         0.0889 
     85 H85       -46.9975  -27.4390   10.9601 H         1 UNK         0.3028 
     86 H86       -46.7118  -28.9049    9.3411 H         1 UNK         0.0864 
     87 H87       -49.0451  -27.4168    8.0299 H         1 UNK         0.0720 
     88 H88       -48.3888  -28.9191    7.4267 H         1 UNK         0.0720 
     89 H89       -50.7210  -31.2512    9.0216 H         1 UNK         0.0814 
     90 H90       -49.9031  -30.6620    7.6013 H         1 UNK         0.0814 
     91 H91       -50.9272  -28.8017    6.2481 H         1 UNK         0.1469 
     92 H92       -55.0504  -27.8826    6.9957 H         1 UNK         0.1381 
     93 H93       -52.8773  -30.3417    9.7485 H         1 UNK         0.1206 
     94 H94       -56.2353  -29.1120    8.7188 H         1 UNK         0.0813 
     95 H95       -55.4101  -30.2875    9.7147 H         1 UNK         0.0813 
     96 H96       -57.5627  -28.9927   10.7226 H         1 UNK         0.0638 
     97 H97       -57.5158  -27.3929   11.3788 H         1 UNK         0.0638 
     98 H98       -58.1149  -29.2162   12.9736 H         1 UNK         0.0568 
     99 H99       -55.3369  -31.5456   14.2557 H         1 UNK         0.3450 
    100 H100      -55.7038  -29.9609   14.8926 H         1 UNK         0.3450 
    101 H101      -57.7245  -27.6222   14.3262 H         1 UNK         0.2987 
    102 H102      -56.3661  -25.5558   15.1460 H         1 UNK         0.0766 
    103 H103      -57.6886  -27.2662   16.4273 H         1 UNK         0.0798 
    104 H104      -56.7250  -26.3244   17.5421 H         1 UNK         0.0798 
    105 H105      -56.2073  -27.9447   17.0936 H         1 UNK         0.0798 
    106 H106      -53.7972  -26.7150   15.7423 H         1 UNK         0.3198 
    107 H107      -52.1482  -24.7220   16.2449 H         1 UNK         0.0843 
    108 H108      -53.0878  -23.6699   18.9659 H         1 UNK         0.0831 
    109 H109      -52.6888  -22.7128   17.5505 H         1 UNK         0.0831 
    110 H110      -51.4273  -23.6152   18.3745 H         1 UNK         0.0831 
    111 H111      -51.6320  -26.6345   17.1769 H         1 UNK         0.3133 
    112 H112      -51.8310  -28.0740   20.2429 H         1 UNK         0.0566 
    113 H113      -53.0524  -30.1181   19.4891 H         1 UNK         0.0814 
    114 H114      -53.8281  -29.1968   18.1989 H         1 UNK         0.0814 
    115 H115      -54.1780  -28.8318   19.8816 H         1 UNK         0.0814 
    116 H116      -51.4434  -29.2345   17.6090 H         1 UNK         0.3091 
    117 H117      -48.3289  -27.8583   16.9322 H         1 UNK         0.0702 
    118 H118      -47.3727  -30.1441   16.9301 H         1 UNK         0.0785 
    119 H119      -48.6930  -30.7313   17.9433 H         1 UNK         0.0785 
    120 H120      -47.5359  -29.5711   18.5803 H         1 UNK         0.0785 
    121 H121      -49.5060  -30.0399   15.6547 H         1 UNK         0.2998 
    122 H122      -50.3865  -29.4142   13.4108 H         1 UNK         0.0697 
    123 H123      -52.9273  -29.7082   15.1235 H         1 UNK         0.0825 
    124 H124      -51.6444  -30.9017   14.9667 H         1 UNK         0.0825 
    125 H125      -52.6553  -30.5195   13.5857 H         1 UNK         0.0825 
    126 H126      -52.9062  -27.9302   13.4162 H         1 UNK         0.3029 
    127 H127      -53.2766  -26.3921   11.8445 H         1 UNK         0.0897 
    128 H128      -51.2211  -24.2976   12.7740 H         1 UNK         0.0792 
    129 H129      -52.5655  -24.9092   13.7304 H         1 UNK         0.0792 
    130 H130      -52.8828  -23.9510   12.2924 H         1 UNK         0.0792 
    131 H131      -50.8483  -26.0420   10.3435 H         1 UNK         0.3086 
    132 H132      -51.4081  -26.2879    8.0430 H         1 UNK         0.0583 
    133 H133      -53.8107  -25.6563    7.1287 H         1 UNK         0.1020 
    134 H134      -53.1324  -24.1047    6.7762 H         1 UNK         0.1020 
    135 H135      -54.0650  -27.1822    4.9372 H         1 UNK         0.0694 
    136 H136      -52.6010  -27.9582    4.3906 H         1 UNK         0.0694 
    137 H137      -49.8513  -24.7222    7.9833 H         1 UNK         0.2989 
    138 H138      -49.8240  -21.2792    7.5081 H         1 UNK         0.1055 
    139 H139      -48.7743  -22.6746   10.0303 H         1 UNK         0.0806 
    140 H140      -49.7296  -21.2012    9.9872 H         1 UNK         0.0806 
    141 H141      -48.1031  -21.2066    9.3227 H         1 UNK         0.0806 
    142 H142      -47.9808  -23.5702    7.8505 H         1 UNK         0.3061 
    143 H143      -47.8830  -24.9353    5.3648 H         1 UNK         0.0734 
    144 H144      -46.6057  -22.5781    3.8801 H         1 UNK         0.0832 
    145 H145      -46.2511  -24.2779    3.5705 H         1 UNK         0.0832 
    146 H146      -47.8617  -23.6450    3.2748 H         1 UNK         0.0832 
    147 H147      -46.1454  -25.0009    6.6877 H         1 UNK         0.3156 
    148 H148      -43.3777  -23.0566    7.3663 H         1 UNK         0.0589 
    149 H149      -43.9542  -23.0005    9.8052 H         1 UNK         0.0808 
    150 H150      -44.7650  -21.7131    8.9304 H         1 UNK         0.0808 
    151 H151      -45.6688  -23.1405    9.4077 H         1 UNK         0.0808 
    152 H152      -44.6269  -25.2879    8.7348 H         1 UNK         0.3098 
    153 H153      -43.7502  -27.7803    6.4632 H         1 UNK         0.0720 
    154 H154      -41.4843  -27.4785    7.4789 H         1 UNK         0.0791 
    155 H155      -42.3570  -28.7881    8.2547 H         1 UNK         0.0791 
    156 H156      -42.2106  -27.2244    9.0594 H         1 UNK         0.0791 
    157 H157      -44.5873  -27.9772    9.1640 H         1 UNK         0.3028 
@<TRIPOS>BOND
     1    1    2 1    
     2    1   82 1    
     3    1   83 1    
     4    1   84 1    
     5    2    3 2    
     6    2    4 am   BACKBONE|DICT|INTERRES
     7    4    5 1    
     8    4   85 1    
     9    5    6 1    
    10    5   80 1    
    11    5   86 1    
    12    6    7 1    
    13    6   87 1    
    14    6   88 1    
    15    7    8 1    
    16    8    9 1    
    17    8   89 1    
    18    8   90 1    
    19    9   10 ar   
    20    9   14 ar   
    21   10   11 ar   
    22   10   91 1    
    23   11   12 ar   
    24   11   58 1    
    25   12   13 ar   
    26   12   92 1    
    27   13   14 ar   
    28   13   15 1    
    29   14   93 1    
    30   15   16 1    
    31   15   94 1    
    32   15   95 1    
    33   16   17 1    
    34   17   18 1    
    35   17   96 1    
    36   17   97 1    
    37   18   19 1    
    38   18   22 1    
    39   18   98 1    
    40   19   20 am   BACKBONE|DICT|INTERRES
    41   19   21 2    
    42   20   99 1    
    43   20  100 1    
    44   22   23 am   BACKBONE|DICT|INTERRES
    45   22  101 1    
    46   23   24 2    
    47   23   25 1    
    48   25   26 1    
    49   25   27 1    
    50   25  102 1    
    51   26  103 1    
    52   26  104 1    
    53   26  105 1    
    54   27   28 am   BACKBONE|DICT|INTERRES
    55   27  106 1    
    56   28   29 2    
    57   28   30 1    
    58   30   31 1    
    59   30   32 1    
    60   30  107 1    
    61   31  108 1    
    62   31  109 1    
    63   31  110 1    
    64   32   33 am   BACKBONE|DICT|INTERRES
    65   32  111 1    
    66   33   34 2    
    67   33   35 1    
    68   35   36 1    
    69   35   37 1    
    70   35  112 1    
    71   36  113 1    
    72   36  114 1    
    73   36  115 1    
    74   37   38 am   BACKBONE|DICT|INTERRES
    75   37  116 1    
    76   38   39 2    
    77   38   40 1    
    78   40   41 1    
    79   40   42 1    
    80   40  117 1    
    81   41  118 1    
    82   41  119 1    
    83   41  120 1    
    84   42   43 am   BACKBONE|DICT|INTERRES
    85   42  121 1    
    86   43   44 2    
    87   43   45 1    
    88   45   46 1    
    89   45   47 1    
    90   45  122 1    
    91   46  123 1    
    92   46  124 1    
    93   46  125 1    
    94   47   48 am   BACKBONE|DICT|INTERRES
    95   47  126 1    
    96   48   49 2    
    97   48   50 1    
    98   50   51 1    
    99   50   52 1    
   100   50  127 1    
   101   51  128 1    
   102   51  129 1    
   103   51  130 1    
   104   52   53 am   BACKBONE|DICT|INTERRES
   105   52  131 1    
   106   53   54 2    
   107   53   55 1    
   108   55   56 1    
   109   55   59 1    
   110   55  132 1    
   111   56   57 1    
   112   56  133 1    
   113   56  134 1    
   114   57   58 1    
   115   58  135 1    
   116   58  136 1    
   117   59   60 am   BACKBONE|DICT|INTERRES
   118   59  137 1    
   119   60   61 2    
   120   60   62 1    
   121   62   63 1    
   122   62   64 1    
   123   62  138 1    
   124   63  139 1    
   125   63  140 1    
   126   63  141 1    
   127   64   65 am   BACKBONE|DICT|INTERRES
   128   64  142 1    
   129   65   66 2    
   130   65   67 1    
   131   67   68 1    
   132   67   69 1    
   133   67  143 1    
   134   68  144 1    
   135   68  145 1    
   136   68  146 1    
   137   69   70 am   BACKBONE|DICT|INTERRES
   138   69  147 1    
   139   70   71 2    
   140   70   72 1    
   141   72   73 1    
   142   72   74 1    
   143   72  148 1    
   144   73  149 1    
   145   73  150 1    
   146   73  151 1    
   147   74   75 am   BACKBONE|DICT|INTERRES
   148   74  152 1    
   149   75   76 2    
   150   75   77 1    
   151   77   78 1    
   152   77   79 1    
   153   77  153 1    
   154   78  154 1    
   155   78  155 1    
   156   78  156 1    
   157   79   80 am   BACKBONE|DICT|INTERRES
   158   79  157 1    
   159   80   81 2    
@<TRIPOS>SUBSTRUCTURE
     1 UNK         1 GROUP             0       ****    0 ROOT    
