@<TRIPOS>MOLECULE
3R207
157   159    1
SMALL
USER_CHARGES


@<TRIPOS>ATOM
      1 CA        -44.9845  -27.3198    4.6531 C.3       0 UNK        -0.1975 
      2 C         -46.5040  -27.3228    4.7235 C.2       0 UNK         0.4852 
      3 O         -47.1426  -26.3978    4.2189 O.2       0 UNK        -0.5216 
      4 N         -47.0931  -28.3584    5.3377 N.am      1 UNK        -0.4461 
      5 CA        -48.5439  -28.5064    5.4846 C.3       1 UNK         0.0864 
      6 C6        -48.9417  -29.9387    5.9157 C.3       14 UNK        -0.0898 
      7 S7        -50.6369  -30.3415    5.3711 S.3       14 UNK        -0.2598 
      8 C8        -51.2644  -31.3506    6.7505 C.3       14 UNK         0.0286 
      9 C9        -51.3853  -30.5695    8.0523 C.ar      14 UNK        -0.0844 
     10 C10       -50.6198  -30.9378    9.1625 C.ar      14 UNK        -0.0881 
     11 C11       -50.7480  -30.2522   10.3732 C.ar      14 UNK        -0.0643 
     12 C12       -51.6577  -29.1947   10.4714 C.ar      14 UNK        -0.0930 
     13 C13       -52.4307  -28.8164    9.3701 C.ar      14 UNK        -0.0827 
     14 C14       -52.2858  -29.5049    8.1613 C.ar      14 UNK        -0.1249 
     15 C15       -53.4175  -27.6619    9.4800 C.3       14 UNK         0.0141 
     16 S16       -55.1456  -28.2241    9.4096 S.3       14 UNK        -0.2313 
     17 C17       -55.3863  -28.9790   11.0541 C.3       14 UNK        -0.0915 
     18 CA        -56.3879  -28.1632   11.9172 C.3       13 UNK         0.0968 
     19 C         -56.9442  -28.9792   13.1216 C.2       13 UNK         0.5732 
     20 N         -57.0199  -28.4294   14.3266 N.am      13 UNK        -0.7310 
     21 O         -57.3358  -30.1323   12.9584 O.2       13 UNK        -0.5035 
     22 N         -55.8294  -26.8526   12.2912 N.am      13 UNK        -0.4233 
     23 C         -56.5339  -25.7200   12.3885 C.2       13 UNK         0.4989 
     24 O         -57.7407  -25.6360   12.1520 O.2       13 UNK        -0.4996 
     25 CA        -55.7376  -24.4779   12.8295 C.3       12 UNK         0.0216 
     26 CB        -56.6090  -23.2082   12.9416 C.3       12 UNK        -0.1964 
     27 N         -54.9789  -24.6980   14.0678 N.am      12 UNK        -0.4276 
     28 C         -55.4580  -25.0054   15.2819 C.2       12 UNK         0.5020 
     29 O         -56.6455  -25.2265   15.5259 O.2       12 UNK        -0.5489 
     30 CA        -54.4021  -25.0953   16.3977 C.3       11 UNK         0.0294 
     31 CB        -55.0054  -25.1538   17.8180 C.3       11 UNK        -0.2019 
     32 N         -53.4733  -26.2014   16.1498 N.am      11 UNK        -0.4493 
     33 C         -53.7333  -27.5169   16.1746 C.2       11 UNK         0.4932 
     34 O         -54.8051  -28.0072   16.5263 O.2       11 UNK        -0.5029 
     35 CA        -52.6113  -28.4591   15.7054 C.3       10 UNK         0.0280 
     36 CB        -52.8670  -28.8893   14.2516 C.3       10 UNK        -0.1976 
     37 N         -51.2714  -27.8734   15.8098 N.am      10 UNK        -0.4242 
     38 C         -50.6134  -27.6740   16.9611 C.2       10 UNK         0.5072 
     39 O         -51.0463  -28.0051   18.0658 O.2       10 UNK        -0.5224 
     40 CA        -49.2488  -26.9682   16.8679 C.3       9 UNK         0.0343 
     41 CB        -48.1571  -27.9437   16.3985 C.3       9 UNK        -0.2003 
     42 N         -49.2702  -25.7958   15.9897 N.am      9 UNK        -0.4272 
     43 C         -49.9800  -24.6796   16.2143 C.2       9 UNK         0.4988 
     44 O         -50.6764  -24.4941   17.2119 O.2       9 UNK        -0.5108 
     45 CA        -49.9352  -23.6000   15.1211 C.3       8 UNK         0.0248 
     46 CB        -48.6698  -22.7349   15.2441 C.3       8 UNK        -0.2001 
     47 N         -50.0184  -24.1855   13.7819 N.am      8 UNK        -0.4140 
     48 C         -51.1355  -24.7221   13.2733 C.2       8 UNK         0.5028 
     49 O         -52.2254  -24.7030   13.8451 O.2       8 UNK        -0.5428 
     50 CA        -51.0254  -25.4350   11.9183 C.3       7 UNK         0.0264 
     51 CB        -51.3044  -24.4615   10.7671 C.3       7 UNK        -0.1988 
     52 N         -49.7401  -26.1070   11.7099 N.am      7 UNK        -0.4454 
     53 C         -49.3449  -27.1800   12.4148 C.2       7 UNK         0.5027 
     54 O         -50.0261  -27.6893   13.3032 O.2       7 UNK        -0.5083 
     55 CA        -47.9378  -27.7444   12.1238 C.3       6 UNK         0.0844 
     56 C56       -47.9655  -28.6950   10.8950 C.3       14 UNK        -0.0967 
     57 S57       -48.1287  -30.4550   11.3484 S.3       14 UNK        -0.2604 
     58 C58       -49.9246  -30.6727   11.5832 C.3       14 UNK         0.0134 
     59 N         -46.9438  -26.6813   11.9625 N.am      6 UNK        -0.4116 
     60 C         -46.7154  -25.6699   12.8125 C.2       5 UNK         0.5034 
     61 O         -47.2201  -25.5930   13.9325 O.2       5 UNK        -0.5045 
     62 CA        -45.8269  -24.5135   12.3120 C.3       5 UNK         0.0224 
     63 CB        -44.4932  -24.4947   13.0758 C.3       5 UNK        -0.1978 
     64 N         -45.5546  -24.5189   10.8663 N.am      5 UNK        -0.4737 
     65 C         -46.4689  -24.4632    9.8862 C.2       4 UNK         0.5027 
     66 O         -47.6849  -24.4015   10.0881 O.2       4 UNK        -0.5211 
     67 CA        -45.9123  -24.5868    8.4600 C.3       4 UNK         0.0297 
     68 CB        -45.3078  -25.9845    8.2334 C.3       4 UNK        -0.1993 
     69 N         -46.9560  -24.3604    7.4614 N.am      4 UNK        -0.4486 
     70 C         -47.2426  -23.1689    6.9182 C.2       3 UNK         0.4961 
     71 O         -46.6233  -22.1363    7.1793 O.2       3 UNK        -0.5105 
     72 CA        -48.3923  -23.1004    5.8944 C.3       3 UNK         0.0299 
     73 CB        -47.8377  -22.9122    4.4725 C.3       3 UNK        -0.1972 
     74 N         -49.2533  -24.2848    5.9215 N.am      3 UNK        -0.4305 
     75 C         -50.2500  -24.4704    6.7999 C.2       2 UNK         0.5006 
     76 O         -50.6044  -23.6148    7.6101 O.2       2 UNK        -0.5106 
     77 CA        -50.9882  -25.8251    6.7809 C.3       2 UNK         0.0296 
     78 CB        -52.3984  -25.6635    6.1896 C.3       2 UNK        -0.2002 
     79 N         -50.2897  -26.8901    6.0577 N.am      2 UNK        -0.4032 
     80 C         -49.1214  -27.4305    6.4272 C.2       1 UNK         0.5000 
     81 O         -48.4951  -27.0888    7.4343 O.2       1 UNK        -0.5238 
     82 H82       -44.5995  -26.3174    4.8384 H         1 UNK         0.0889 
     83 H83       -44.6565  -27.6298    3.6614 H         1 UNK         0.0889 
     84 H84       -44.5440  -27.9942    5.3872 H         1 UNK         0.0889 
     85 H85       -46.5267  -29.0769    5.7649 H         1 UNK         0.3028 
     86 H86       -48.9556  -28.3318    4.4872 H         1 UNK         0.0864 
     87 H87       -48.2812  -30.6721    5.4506 H         1 UNK         0.0720 
     88 H88       -48.8303  -30.0744    6.9931 H         1 UNK         0.0720 
     89 H89       -50.6184  -32.2213    6.8739 H         1 UNK         0.0814 
     90 H90       -52.2479  -31.7380    6.4812 H         1 UNK         0.0814 
     91 H91       -49.9234  -31.7622    9.0912 H         1 UNK         0.1469 
     92 H92       -51.7671  -28.6702   11.4093 H         1 UNK         0.1381 
     93 H93       -52.8837  -29.2189    7.3067 H         1 UNK         0.1206 
     94 H94       -53.2461  -26.9655    8.6601 H         1 UNK         0.0813 
     95 H95       -53.2655  -27.0936   10.3964 H         1 UNK         0.0813 
     96 H96       -54.4310  -29.0925   11.5678 H         1 UNK         0.0638 
     97 H97       -55.7548  -29.9909   10.8771 H         1 UNK         0.0638 
     98 H98       -57.2663  -27.9905   11.2925 H         1 UNK         0.0568 
     99 H99       -57.3723  -28.9776   15.0944 H         1 UNK         0.3450 
    100 H100      -56.7294  -27.4769   14.4886 H         1 UNK         0.3450 
    101 H101      -54.8535  -26.8384   12.5406 H         1 UNK         0.2987 
    102 H102      -54.9986  -24.2966   12.0473 H         1 UNK         0.0766 
    103 H103      -56.0093  -22.3387   13.2107 H         1 UNK         0.0798 
    104 H104      -57.3939  -23.3188   13.6906 H         1 UNK         0.0798 
    105 H105      -57.0959  -22.9835   11.9918 H         1 UNK         0.0798 
    106 H106      -53.9634  -24.6059   13.9819 H         1 UNK         0.3198 
    107 H107      -53.8067  -24.1822   16.3399 H         1 UNK         0.0843 
    108 H108      -55.6636  -26.0121   17.9533 H         1 UNK         0.0831 
    109 H109      -55.5986  -24.2614   18.0206 H         1 UNK         0.0831 
    110 H110      -54.2249  -25.2055   18.5770 H         1 UNK         0.0831 
    111 H111      -52.5651  -25.9188   15.8041 H         1 UNK         0.3133 
    112 H112      -52.6438  -29.3509   16.3348 H         1 UNK         0.0566 
    113 H113      -52.8291  -28.0394   13.5697 H         1 UNK         0.0814 
    114 H114      -52.1302  -29.6204   13.9205 H         1 UNK         0.0814 
    115 H115      -53.8495  -29.3520   14.1475 H         1 UNK         0.0814 
    116 H116      -50.8052  -27.6439   14.9326 H         1 UNK         0.3091 
    117 H117      -48.9853  -26.6230   17.8698 H         1 UNK         0.0702 
    118 H118      -47.1778  -27.4646   16.3826 H         1 UNK         0.0785 
    119 H119      -48.3574  -28.3256   15.3974 H         1 UNK         0.0785 
    120 H120      -48.0883  -28.8025   17.0674 H         1 UNK         0.0785 
    121 H121      -48.6775  -25.8328   15.1648 H         1 UNK         0.2998 
    122 H122      -50.8004  -22.9480   15.2611 H         1 UNK         0.0697 
    123 H123      -47.7575  -23.3216   15.1370 H         1 UNK         0.0825 
    124 H124      -48.6278  -22.2493   16.2199 H         1 UNK         0.0825 
    125 H125      -48.6529  -21.9472   14.4908 H         1 UNK         0.0825 
    126 H126      -49.1564  -24.2782   13.2648 H         1 UNK         0.3029 
    127 H127      -51.8030  -26.1991   11.9102 H         1 UNK         0.0897 
    128 H128      -52.2377  -23.9189   10.9246 H         1 UNK         0.0792 
    129 H129      -51.3997  -24.9934    9.8225 H         1 UNK         0.0792 
    130 H130      -50.5090  -23.7231   10.6565 H         1 UNK         0.0792 
    131 H131      -49.1111  -25.6988   11.0246 H         1 UNK         0.3086 
    132 H132      -47.6247  -28.3072   13.0054 H         1 UNK         0.0583 
    133 H133      -48.7233  -28.4146   10.1593 H         1 UNK         0.1020 
    134 H134      -47.0233  -28.6284   10.3486 H         1 UNK         0.1020 
    135 H135      -50.1207  -31.7253   11.7910 H         1 UNK         0.0694 
    136 H136      -50.2350  -30.1322   12.4766 H         1 UNK         0.0694 
    137 H137      -46.4780  -26.6379   11.0695 H         1 UNK         0.2989 
    138 H138      -46.3639  -23.5898   12.5381 H         1 UNK         0.1055 
    139 H139      -44.6595  -24.4557   14.1536 H         1 UNK         0.0806 
    140 H140      -43.8960  -23.6213   12.8131 H         1 UNK         0.0806 
    141 H141      -43.8974  -25.3852   12.8709 H         1 UNK         0.0806 
    142 H142      -44.5805  -24.5772   10.6030 H         1 UNK         0.3061 
    143 H143      -45.1193  -23.8454    8.3403 H         1 UNK         0.0734 
    144 H144      -44.8922  -26.0703    7.2313 H         1 UNK         0.0832 
    145 H145      -44.4923  -26.1887    8.9280 H         1 UNK         0.0832 
    146 H146      -46.0478  -26.7754    8.3583 H         1 UNK         0.0832 
    147 H147      -47.5654  -25.1481    7.2716 H         1 UNK         0.3156 
    148 H148      -48.9925  -22.2206    6.1361 H         1 UNK         0.0589 
    149 H149      -47.1921  -23.7392    4.1762 H         1 UNK         0.0808 
    150 H150      -48.6403  -22.8318    3.7393 H         1 UNK         0.0808 
    151 H151      -47.2452  -21.9989    4.4037 H         1 UNK         0.0808 
    152 H152      -49.0130  -25.0326    5.2843 H         1 UNK         0.3098 
    153 H153      -51.0842  -26.1528    7.8172 H         1 UNK         0.0720 
    154 H154      -52.9550  -26.6005    6.2216 H         1 UNK         0.0791 
    155 H155      -52.3643  -25.3285    5.1522 H         1 UNK         0.0791 
    156 H156      -52.9748  -24.9267    6.7510 H         1 UNK         0.0791 
    157 H157      -50.7402  -27.2369    5.2227 H         1 UNK         0.3028 
@<TRIPOS>BOND
     1    1    2 1    
     2    1   82 1    
     3    1   83 1    
     4    1   84 1    
     5    2    3 2    
     6    2    4 am   BACKBONE|DICT|INTERRES
     7    4    5 1    
     8    4   85 1    
     9    5    6 1    
    10    5   80 1    
    11    5   86 1    
    12    6    7 1    
    13    6   87 1    
    14    6   88 1    
    15    7    8 1    
    16    8    9 1    
    17    8   89 1    
    18    8   90 1    
    19    9   10 ar   
    20    9   14 ar   
    21   10   11 ar   
    22   10   91 1    
    23   11   12 ar   
    24   11   58 1    
    25   12   13 ar   
    26   12   92 1    
    27   13   14 ar   
    28   13   15 1    
    29   14   93 1    
    30   15   16 1    
    31   15   94 1    
    32   15   95 1    
    33   16   17 1    
    34   17   18 1    
    35   17   96 1    
    36   17   97 1    
    37   18   19 1    
    38   18   22 1    
    39   18   98 1    
    40   19   20 am   BACKBONE|DICT|INTERRES
    41   19   21 2    
    42   20   99 1    
    43   20  100 1    
    44   22   23 am   BACKBONE|DICT|INTERRES
    45   22  101 1    
    46   23   24 2    
    47   23   25 1    
    48   25   26 1    
    49   25   27 1    
    50   25  102 1    
    51   26  103 1    
    52   26  104 1    
    53   26  105 1    
    54   27   28 am   BACKBONE|DICT|INTERRES
    55   27  106 1    
    56   28   29 2    
    57   28   30 1    
    58   30   31 1    
    59   30   32 1    
    60   30  107 1    
    61   31  108 1    
    62   31  109 1    
    63   31  110 1    
    64   32   33 am   BACKBONE|DICT|INTERRES
    65   32  111 1    
    66   33   34 2    
    67   33   35 1    
    68   35   36 1    
    69   35   37 1    
    70   35  112 1    
    71   36  113 1    
    72   36  114 1    
    73   36  115 1    
    74   37   38 am   BACKBONE|DICT|INTERRES
    75   37  116 1    
    76   38   39 2    
    77   38   40 1    
    78   40   41 1    
    79   40   42 1    
    80   40  117 1    
    81   41  118 1    
    82   41  119 1    
    83   41  120 1    
    84   42   43 am   BACKBONE|DICT|INTERRES
    85   42  121 1    
    86   43   44 2    
    87   43   45 1    
    88   45   46 1    
    89   45   47 1    
    90   45  122 1    
    91   46  123 1    
    92   46  124 1    
    93   46  125 1    
    94   47   48 am   BACKBONE|DICT|INTERRES
    95   47  126 1    
    96   48   49 2    
    97   48   50 1    
    98   50   51 1    
    99   50   52 1    
   100   50  127 1    
   101   51  128 1    
   102   51  129 1    
   103   51  130 1    
   104   52   53 am   BACKBONE|DICT|INTERRES
   105   52  131 1    
   106   53   54 2    
   107   53   55 1    
   108   55   56 1    
   109   55   59 1    
   110   55  132 1    
   111   56   57 1    
   112   56  133 1    
   113   56  134 1    
   114   57   58 1    
   115   58  135 1    
   116   58  136 1    
   117   59   60 am   BACKBONE|DICT|INTERRES
   118   59  137 1    
   119   60   61 2    
   120   60   62 1    
   121   62   63 1    
   122   62   64 1    
   123   62  138 1    
   124   63  139 1    
   125   63  140 1    
   126   63  141 1    
   127   64   65 am   BACKBONE|DICT|INTERRES
   128   64  142 1    
   129   65   66 2    
   130   65   67 1    
   131   67   68 1    
   132   67   69 1    
   133   67  143 1    
   134   68  144 1    
   135   68  145 1    
   136   68  146 1    
   137   69   70 am   BACKBONE|DICT|INTERRES
   138   69  147 1    
   139   70   71 2    
   140   70   72 1    
   141   72   73 1    
   142   72   74 1    
   143   72  148 1    
   144   73  149 1    
   145   73  150 1    
   146   73  151 1    
   147   74   75 am   BACKBONE|DICT|INTERRES
   148   74  152 1    
   149   75   76 2    
   150   75   77 1    
   151   77   78 1    
   152   77   79 1    
   153   77  153 1    
   154   78  154 1    
   155   78  155 1    
   156   78  156 1    
   157   79   80 am   BACKBONE|DICT|INTERRES
   158   79  157 1    
   159   80   81 2    
@<TRIPOS>SUBSTRUCTURE
     1 UNK         1 GROUP             0       ****    0 ROOT    
