@<TRIPOS>MOLECULE
3R207
157   159    1
SMALL
USER_CHARGES


@<TRIPOS>ATOM
      1 CA        -49.3828  -29.1298    9.9212 C.3       0 UNK        -0.1975 
      2 C         -48.6918  -29.4741    8.6111 C.2       0 UNK         0.4852 
      3 O         -47.5574  -29.9514    8.6215 O.2       0 UNK        -0.5216 
      4 N         -49.3730  -29.2352    7.4848 N.am      1 UNK        -0.4461 
      5 CA        -48.9232  -29.5977    6.1321 C.3       1 UNK         0.0864 
      6 C6        -50.0736  -30.2077    5.2877 C.3       14 UNK        -0.0898 
      7 S7        -50.8562  -31.6524    6.0904 S.3       14 UNK        -0.2598 
      8 C8        -52.5715  -31.0875    6.3378 C.3       14 UNK         0.0286 
      9 C9        -52.7011  -30.0910    7.4823 C.ar      14 UNK        -0.0844 
     10 C10       -52.6256  -28.7178    7.2331 C.ar      14 UNK        -0.0881 
     11 C11       -52.7597  -27.7991    8.2767 C.ar      14 UNK        -0.0643 
     12 C12       -53.0122  -28.2554    9.5712 C.ar      14 UNK        -0.0930 
     13 C13       -53.1114  -29.6249    9.8325 C.ar      14 UNK        -0.0827 
     14 C14       -52.9323  -30.5390    8.7873 C.ar      14 UNK        -0.1249 
     15 C15       -53.4229  -30.0969   11.2476 C.3       14 UNK         0.0141 
     16 S16       -54.8419  -31.2437   11.3577 S.3       14 UNK        -0.2313 
     17 C17       -56.1535  -30.4466   10.3567 C.3       14 UNK        -0.0915 
     18 CA        -57.2456  -29.7040   11.1697 C.3       13 UNK         0.0968 
     19 C         -58.0948  -30.6550   12.0659 C.2       13 UNK         0.5732 
     20 N         -58.1770  -30.4547   13.3768 N.am      13 UNK        -0.7310 
     21 O         -58.7107  -31.5875   11.5543 O.2       13 UNK        -0.5035 
     22 N         -56.6956  -28.5293   11.8577 N.am      13 UNK        -0.4233 
     23 C         -57.4004  -27.4410   12.1911 C.2       13 UNK         0.4989 
     24 O         -58.5751  -27.2627   11.8636 O.2       13 UNK        -0.4996 
     25 CA        -56.6671  -26.3751   13.0341 C.3       12 UNK         0.0216 
     26 CB        -57.6422  -25.4783   13.8266 C.3       12 UNK        -0.1964 
     27 N         -55.6386  -26.9203   13.9342 N.am      12 UNK        -0.4276 
     28 C         -55.8000  -27.8576   14.8827 C.2       12 UNK         0.5020 
     29 O         -56.8569  -28.4574   15.0833 O.2       12 UNK        -0.5489 
     30 CA        -54.5695  -28.2146   15.7336 C.3       11 UNK         0.0294 
     31 CB        -53.9712  -29.5573   15.2814 C.3       11 UNK        -0.2019 
     32 N         -53.5211  -27.1905   15.7066 N.am      11 UNK        -0.4493 
     33 C         -53.5535  -26.0380   16.3918 C.2       11 UNK         0.4932 
     34 O         -54.5061  -25.6946   17.0932 O.2       11 UNK        -0.5029 
     35 CA        -52.3268  -25.1088   16.2594 C.3       10 UNK         0.0280 
     36 CB        -52.0615  -24.2913   17.5408 C.3       10 UNK        -0.1976 
     37 N         -51.1024  -25.7879   15.8127 N.am      10 UNK        -0.4242 
     38 C         -50.4426  -26.7775   16.4371 C.2       10 UNK         0.5072 
     39 O         -50.7851  -27.2733   17.5111 O.2       10 UNK        -0.5224 
     40 CA        -49.1941  -27.3202   15.7258 C.3       9 UNK         0.0343 
     41 CB        -49.5937  -28.2452   14.5629 C.3       9 UNK        -0.2003 
     42 N         -48.3221  -26.2524   15.2340 N.am      9 UNK        -0.4272 
     43 C         -47.6182  -25.4249   16.0207 C.2       9 UNK         0.4988 
     44 O         -47.5855  -25.5065   17.2494 O.2       9 UNK        -0.5108 
     45 CA        -46.8107  -24.3169   15.3240 C.3       8 UNK         0.0248 
     46 CB        -45.4841  -24.8732   14.7833 C.3       8 UNK        -0.2001 
     47 N         -47.5547  -23.6567   14.2476 N.am      8 UNK        -0.4140 
     48 C         -48.6462  -22.9000   14.4387 C.2       8 UNK         0.5028 
     49 O         -49.1127  -22.6354   15.5471 O.2       8 UNK        -0.5428 
     50 CA        -49.3497  -22.3511   13.1859 C.3       7 UNK         0.0264 
     51 CB        -48.6494  -21.0796   12.6802 C.3       7 UNK        -0.1988 
     52 N         -49.4417  -23.3254   12.0970 N.am      7 UNK        -0.4454 
     53 C         -50.1254  -24.4794   12.1555 C.2       7 UNK         0.5027 
     54 O         -50.7745  -24.8502   13.1348 O.2       7 UNK        -0.5083 
     55 CA        -50.0275  -25.3944   10.9183 C.3       6 UNK         0.0844 
     56 C56       -50.9298  -24.8368    9.7847 C.3       14 UNK        -0.0967 
     57 S57       -50.8886  -25.8000    8.2346 S.3       14 UNK        -0.2604 
     58 C58       -52.6168  -26.3141    8.0035 C.3       14 UNK         0.0134 
     59 N         -48.6254  -25.5875   10.5229 N.am      6 UNK        -0.4116 
     60 C         -47.6607  -26.0862   11.3140 C.2       5 UNK         0.5034 
     61 O         -47.8612  -26.5316   12.4422 O.2       5 UNK        -0.5045 
     62 CA        -46.2167  -26.0290   10.7954 C.3       5 UNK         0.0224 
     63 CB        -45.8803  -27.2513    9.9279 C.3       5 UNK        -0.1978 
     64 N         -45.9518  -24.7961   10.0551 N.am      5 UNK        -0.4737 
     65 C         -45.8221  -23.5895   10.6217 C.2       4 UNK         0.5027 
     66 O         -45.8681  -23.3986   11.8362 O.2       4 UNK        -0.5211 
     67 CA        -45.6482  -22.3922    9.6719 C.3       4 UNK         0.0297 
     68 CB        -44.1726  -22.2276    9.2760 C.3       4 UNK        -0.1993 
     69 N         -46.4731  -22.4992    8.4653 N.am      4 UNK        -0.4486 
     70 C         -47.8122  -22.4539    8.4661 C.2       3 UNK         0.4961 
     71 O         -48.4907  -22.2832    9.4803 O.2       3 UNK        -0.5105 
     72 CA        -48.5164  -22.6822    7.1148 C.3       3 UNK         0.0299 
     73 CB        -48.5637  -21.3748    6.3082 C.3       3 UNK        -0.1972 
     74 N         -47.9641  -23.7597    6.2761 N.am      3 UNK        -0.4305 
     75 C         -47.7197  -25.0123    6.6854 C.2       2 UNK         0.5006 
     76 O         -47.7394  -25.3657    7.8641 O.2       2 UNK        -0.5106 
     77 CA        -47.3991  -26.0656    5.6240 C.3       2 UNK         0.0296 
     78 CB        -45.8787  -26.1968    5.4229 C.3       2 UNK        -0.2002 
     79 N         -47.9628  -27.3218    6.1123 N.am      2 UNK        -0.4032 
     80 C         -48.2460  -28.4154    5.3968 C.2       1 UNK         0.5000 
     81 O         -47.9998  -28.5116    4.1925 O.2       1 UNK        -0.5238 
     82 H82       -49.9296  -29.9953   10.2941 H         1 UNK         0.0889 
     83 H83       -50.0877  -28.3103    9.7930 H         1 UNK         0.0889 
     84 H84       -48.6547  -28.8361   10.6761 H         1 UNK         0.0889 
     85 H85       -50.3110  -28.8614    7.5477 H         1 UNK         0.3028 
     86 H86       -48.1523  -30.3672    6.2119 H         1 UNK         0.0864 
     87 H87       -50.8257  -29.4541    5.0546 H         1 UNK         0.0720 
     88 H88       -49.6924  -30.5505    4.3240 H         1 UNK         0.0720 
     89 H89       -52.9554  -30.6590    5.4106 H         1 UNK         0.0814 
     90 H90       -53.1961  -31.9583    6.5434 H         1 UNK         0.0814 
     91 H91       -52.4574  -28.3587    6.2273 H         1 UNK         0.1469 
     92 H92       -53.1276  -27.5393   10.3730 H         1 UNK         0.1381 
     93 H93       -53.0022  -31.5998    8.9863 H         1 UNK         0.1206 
     94 H94       -52.5404  -30.5919   11.6547 H         1 UNK         0.0813 
     95 H95       -53.6202  -29.2442   11.8973 H         1 UNK         0.0813 
     96 H96       -56.6145  -31.2264    9.7483 H         1 UNK         0.0638 
     97 H97       -55.7134  -29.7576    9.6365 H         1 UNK         0.0638 
     98 H98       -57.9549  -29.3271   10.4304 H         1 UNK         0.0568 
     99 H99       -58.7392  -31.0806   13.9301 H         1 UNK         0.3450 
    100 H100      -57.6888  -29.6885   13.8308 H         1 UNK         0.3450 
    101 H101      -55.7487  -28.6158   12.1893 H         1 UNK         0.2987 
    102 H102      -56.1426  -25.7397   12.3190 H         1 UNK         0.0766 
    103 H103      -57.1080  -24.7182   14.3967 H         1 UNK         0.0798 
    104 H104      -58.2443  -26.0592   14.5263 H         1 UNK         0.0798 
    105 H105      -58.3296  -24.9562   13.1598 H         1 UNK         0.0798 
    106 H106      -54.7207  -26.5063   13.8516 H         1 UNK         0.3198 
    107 H107      -54.9148  -28.3275   16.7639 H         1 UNK         0.0843 
    108 H108      -54.7274  -30.3441   15.2825 H         1 UNK         0.0831 
    109 H109      -53.1729  -29.8789   15.9507 H         1 UNK         0.0831 
    110 H110      -53.5606  -29.5029   14.2739 H         1 UNK         0.0831 
    111 H111      -52.6932  -27.3940   15.1667 H         1 UNK         0.3133 
    112 H112      -52.5745  -24.4009   15.4671 H         1 UNK         0.0566 
    113 H113      -51.2026  -23.6311   17.4164 H         1 UNK         0.0814 
    114 H114      -52.9171  -23.6632   17.7914 H         1 UNK         0.0814 
    115 H115      -51.8683  -24.9352   18.3993 H         1 UNK         0.0814 
    116 H116      -50.7553  -25.4764   14.9068 H         1 UNK         0.3091 
    117 H117      -48.6279  -27.9111   16.4489 H         1 UNK         0.0702 
    118 H118      -50.2444  -29.0504   14.9069 H         1 UNK         0.0785 
    119 H119      -50.1239  -27.7052   13.7772 H         1 UNK         0.0785 
    120 H120      -48.7170  -28.7090   14.1102 H         1 UNK         0.0785 
    121 H121      -48.2400  -26.1623   14.2233 H         1 UNK         0.2998 
    122 H122      -46.5752  -23.5586   16.0737 H         1 UNK         0.0697 
    123 H123      -45.6470  -25.6348   14.0210 H         1 UNK         0.0825 
    124 H124      -44.8994  -25.3318   15.5819 H         1 UNK         0.0825 
    125 H125      -44.8714  -24.0850   14.3453 H         1 UNK         0.0825 
    126 H126      -47.1850  -23.7566   13.3068 H         1 UNK         0.3029 
    127 H127      -50.3692  -22.0857   13.4743 H         1 UNK         0.0897 
    128 H128      -49.1917  -20.6339   11.8460 H         1 UNK         0.0792 
    129 H129      -47.6324  -21.2847   12.3441 H         1 UNK         0.0792 
    130 H130      -48.5888  -20.3270   13.4676 H         1 UNK         0.0792 
    131 H131      -48.9627  -23.0853   11.2325 H         1 UNK         0.3086 
    132 H132      -50.4154  -26.3729   11.2071 H         1 UNK         0.0583 
    133 H133      -51.9589  -24.7638   10.1398 H         1 UNK         0.1020 
    134 H134      -50.6395  -23.8167    9.5297 H         1 UNK         0.1020 
    135 H135      -53.2949  -25.7401    8.6357 H         1 UNK         0.0694 
    136 H136      -52.9099  -26.0944    6.9757 H         1 UNK         0.0694 
    137 H137      -48.3739  -25.3066    9.5772 H         1 UNK         0.2989 
    138 H138      -45.5558  -26.0492   11.6642 H         1 UNK         0.1055 
    139 H139      -46.0437  -28.1772   10.4811 H         1 UNK         0.0806 
    140 H140      -44.8354  -27.2412    9.6179 H         1 UNK         0.0806 
    141 H141      -46.4933  -27.3006    9.0290 H         1 UNK         0.0806 
    142 H142      -46.0256  -24.8523    9.0473 H         1 UNK         0.3061 
    143 H143      -45.9579  -21.4952   10.2128 H         1 UNK         0.0734 
    144 H144      -44.0210  -21.3345    8.6697 H         1 UNK         0.0832 
    145 H145      -43.5421  -22.1271   10.1607 H         1 UNK         0.0832 
    146 H146      -43.8055  -23.0853    8.7109 H         1 UNK         0.0832 
    147 H147      -45.9976  -22.6555    7.5884 H         1 UNK         0.3156 
    148 H148      -49.5452  -22.9678    7.3430 H         1 UNK         0.0589 
    149 H149      -47.5697  -21.0615    5.9865 H         1 UNK         0.0808 
    150 H150      -49.1880  -21.4772    5.4204 H         1 UNK         0.0808 
    151 H151      -48.9845  -20.5630    6.9036 H         1 UNK         0.0808 
    152 H152      -47.8930  -23.5599    5.2886 H         1 UNK         0.3098 
    153 H153      -47.8832  -25.7930    4.6841 H         1 UNK         0.0720 
    154 H154      -45.3742  -26.4783    6.3484 H         1 UNK         0.0791 
    155 H155      -45.4451  -25.2547    5.0856 H         1 UNK         0.0791 
    156 H156      -45.6403  -26.9493    4.6711 H         1 UNK         0.0791 
    157 H157      -48.2173  -27.2965    7.0926 H         1 UNK         0.3028 
@<TRIPOS>BOND
     1    1    2 1    
     2    1   82 1    
     3    1   83 1    
     4    1   84 1    
     5    2    3 2    
     6    2    4 am   BACKBONE|DICT|INTERRES
     7    4    5 1    
     8    4   85 1    
     9    5    6 1    
    10    5   80 1    
    11    5   86 1    
    12    6    7 1    
    13    6   87 1    
    14    6   88 1    
    15    7    8 1    
    16    8    9 1    
    17    8   89 1    
    18    8   90 1    
    19    9   10 ar   
    20    9   14 ar   
    21   10   11 ar   
    22   10   91 1    
    23   11   12 ar   
    24   11   58 1    
    25   12   13 ar   
    26   12   92 1    
    27   13   14 ar   
    28   13   15 1    
    29   14   93 1    
    30   15   16 1    
    31   15   94 1    
    32   15   95 1    
    33   16   17 1    
    34   17   18 1    
    35   17   96 1    
    36   17   97 1    
    37   18   19 1    
    38   18   22 1    
    39   18   98 1    
    40   19   20 am   BACKBONE|DICT|INTERRES
    41   19   21 2    
    42   20   99 1    
    43   20  100 1    
    44   22   23 am   BACKBONE|DICT|INTERRES
    45   22  101 1    
    46   23   24 2    
    47   23   25 1    
    48   25   26 1    
    49   25   27 1    
    50   25  102 1    
    51   26  103 1    
    52   26  104 1    
    53   26  105 1    
    54   27   28 am   BACKBONE|DICT|INTERRES
    55   27  106 1    
    56   28   29 2    
    57   28   30 1    
    58   30   31 1    
    59   30   32 1    
    60   30  107 1    
    61   31  108 1    
    62   31  109 1    
    63   31  110 1    
    64   32   33 am   BACKBONE|DICT|INTERRES
    65   32  111 1    
    66   33   34 2    
    67   33   35 1    
    68   35   36 1    
    69   35   37 1    
    70   35  112 1    
    71   36  113 1    
    72   36  114 1    
    73   36  115 1    
    74   37   38 am   BACKBONE|DICT|INTERRES
    75   37  116 1    
    76   38   39 2    
    77   38   40 1    
    78   40   41 1    
    79   40   42 1    
    80   40  117 1    
    81   41  118 1    
    82   41  119 1    
    83   41  120 1    
    84   42   43 am   BACKBONE|DICT|INTERRES
    85   42  121 1    
    86   43   44 2    
    87   43   45 1    
    88   45   46 1    
    89   45   47 1    
    90   45  122 1    
    91   46  123 1    
    92   46  124 1    
    93   46  125 1    
    94   47   48 am   BACKBONE|DICT|INTERRES
    95   47  126 1    
    96   48   49 2    
    97   48   50 1    
    98   50   51 1    
    99   50   52 1    
   100   50  127 1    
   101   51  128 1    
   102   51  129 1    
   103   51  130 1    
   104   52   53 am   BACKBONE|DICT|INTERRES
   105   52  131 1    
   106   53   54 2    
   107   53   55 1    
   108   55   56 1    
   109   55   59 1    
   110   55  132 1    
   111   56   57 1    
   112   56  133 1    
   113   56  134 1    
   114   57   58 1    
   115   58  135 1    
   116   58  136 1    
   117   59   60 am   BACKBONE|DICT|INTERRES
   118   59  137 1    
   119   60   61 2    
   120   60   62 1    
   121   62   63 1    
   122   62   64 1    
   123   62  138 1    
   124   63  139 1    
   125   63  140 1    
   126   63  141 1    
   127   64   65 am   BACKBONE|DICT|INTERRES
   128   64  142 1    
   129   65   66 2    
   130   65   67 1    
   131   67   68 1    
   132   67   69 1    
   133   67  143 1    
   134   68  144 1    
   135   68  145 1    
   136   68  146 1    
   137   69   70 am   BACKBONE|DICT|INTERRES
   138   69  147 1    
   139   70   71 2    
   140   70   72 1    
   141   72   73 1    
   142   72   74 1    
   143   72  148 1    
   144   73  149 1    
   145   73  150 1    
   146   73  151 1    
   147   74   75 am   BACKBONE|DICT|INTERRES
   148   74  152 1    
   149   75   76 2    
   150   75   77 1    
   151   77   78 1    
   152   77   79 1    
   153   77  153 1    
   154   78  154 1    
   155   78  155 1    
   156   78  156 1    
   157   79   80 am   BACKBONE|DICT|INTERRES
   158   79  157 1    
   159   80   81 2    
@<TRIPOS>SUBSTRUCTURE
     1 UNK         1 GROUP             0       ****    0 ROOT    
