@<TRIPOS>MOLECULE
3R207
157   159    1
SMALL
USER_CHARGES


@<TRIPOS>ATOM
      1 CA        -44.7529  -29.5706    7.4825 C.3       0 UNK        -0.1975 
      2 C         -45.7886  -28.8193    6.6588 C.2       0 UNK         0.4852 
      3 O         -45.4280  -27.9180    5.9014 O.2       0 UNK        -0.5216 
      4 N         -47.0692  -29.1897    6.7986 N.am      1 UNK        -0.4461 
      5 CA        -48.2122  -28.5464    6.1417 C.3       1 UNK         0.0864 
      6 C6        -49.5052  -29.3774    6.3311 C.3       14 UNK        -0.0898 
      7 S7        -50.7351  -29.0181    5.0348 S.3       14 UNK        -0.2598 
      8 C8        -52.2538  -29.6925    5.7817 C.3       14 UNK         0.0286 
      9 C9        -52.7704  -28.9052    6.9846 C.ar      14 UNK        -0.0844 
     10 C10       -52.8256  -27.5057    6.9754 C.ar      14 UNK        -0.0881 
     11 C11       -53.3812  -26.8054    8.0524 C.ar      14 UNK        -0.0643 
     12 C12       -53.8979  -27.5173    9.1397 C.ar      14 UNK        -0.0930 
     13 C13       -53.8407  -28.9128    9.1662 C.ar      14 UNK        -0.0827 
     14 C14       -53.2690  -29.5987    8.0912 C.ar      14 UNK        -0.1249 
     15 C15       -54.4433  -29.6842   10.3291 C.3       14 UNK         0.0141 
     16 S16       -53.4427  -29.5339   11.8403 S.3       14 UNK        -0.2313 
     17 C17       -54.0122  -30.9938   12.7805 C.3       14 UNK        -0.0915 
     18 CA        -55.5376  -31.0029   13.1020 C.3       13 UNK         0.0968 
     19 C         -56.0135  -32.3393   13.7520 C.2       13 UNK         0.5732 
     20 N         -57.0529  -32.3367   14.5783 N.am      13 UNK        -0.7310 
     21 O         -55.4614  -33.4027   13.4779 O.2       13 UNK        -0.5035 
     22 N         -55.9818  -29.7788   13.7911 N.am      13 UNK        -0.4233 
     23 C         -55.6587  -29.4049   15.0346 C.2       13 UNK         0.4989 
     24 O         -54.9471  -30.0621   15.7963 O.2       13 UNK        -0.4996 
     25 CA        -56.2177  -28.0442   15.4777 C.3       12 UNK         0.0216 
     26 CB        -56.1779  -27.8486   17.0048 C.3       12 UNK        -0.1964 
     27 N         -55.4746  -26.9664   14.8238 N.am      12 UNK        -0.4276 
     28 C         -55.7279  -26.5070   13.5886 C.2       12 UNK         0.5020 
     29 O         -56.6309  -26.9653   12.8849 O.2       12 UNK        -0.5489 
     30 CA        -54.8362  -25.3861   13.0094 C.3       11 UNK         0.0294 
     31 CB        -55.6707  -24.2543   12.3770 C.3       11 UNK        -0.2019 
     32 N         -53.8325  -24.8415   13.9304 N.am      11 UNK        -0.4493 
     33 C         -54.0103  -24.1893   15.0889 C.2       11 UNK         0.4932 
     34 O         -55.1107  -23.8650   15.5372 O.2       11 UNK        -0.5029 
     35 CA        -52.7258  -23.9151   15.9029 C.3       10 UNK         0.0280 
     36 CB        -53.0121  -23.5513   17.3745 C.3       10 UNK        -0.1976 
     37 N         -51.7609  -25.0231   15.8219 N.am      10 UNK        -0.4242 
     38 C         -51.9857  -26.3130   16.1223 C.2       10 UNK         0.5072 
     39 O         -53.0369  -26.7151   16.6190 O.2       10 UNK        -0.5224 
     40 CA        -50.9079  -27.3494   15.7527 C.3       9 UNK         0.0343 
     41 CB        -51.4432  -28.2924   14.6619 C.3       9 UNK        -0.2003 
     42 N         -49.6576  -26.7530   15.2802 N.am      9 UNK        -0.4272 
     43 C         -48.6993  -26.2579   16.0742 C.2       9 UNK         0.4988 
     44 O         -48.7332  -26.3077   17.3041 O.2       9 UNK        -0.5108 
     45 CA        -47.5200  -25.5538   15.3785 C.3       8 UNK         0.0248 
     46 CB        -46.4658  -26.5776   14.9300 C.3       8 UNK        -0.2001 
     47 N         -47.9308  -24.7240   14.2387 N.am      8 UNK        -0.4140 
     48 C         -48.7578  -23.6705   14.3335 C.2       8 UNK         0.5028 
     49 O         -49.2482  -23.2776   15.3919 O.2       8 UNK        -0.5428 
     50 CA        -49.1433  -22.9538   13.0324 C.3       7 UNK         0.0264 
     51 CB        -48.0384  -21.9743   12.6060 C.3       7 UNK        -0.1988 
     52 N         -49.4375  -23.8791   11.9384 N.am      7 UNK        -0.4454 
     53 C         -50.4631  -24.7429   11.9168 C.2       7 UNK         0.5027 
     54 O         -51.2821  -24.8511   12.8290 O.2       7 UNK        -0.5083 
     55 CA        -50.5545  -25.6897   10.7002 C.3       6 UNK         0.0844 
     56 C56       -51.0232  -24.9550    9.4200 C.3       14 UNK        -0.0967 
     57 S57       -52.7831  -24.4776    9.4960 S.3       14 UNK        -0.2604 
     58 C58       -53.4697  -25.2840    8.0118 C.3       14 UNK         0.0134 
     59 N         -49.2948  -26.4030   10.4832 N.am      6 UNK        -0.4116 
     60 C         -48.6694  -27.1680   11.3896 C.2       5 UNK         0.5034 
     61 O         -49.1066  -27.4182   12.5120 O.2       5 UNK        -0.5045 
     62 CA        -47.2928  -27.7107   10.9899 C.3       5 UNK         0.0224 
     63 CB        -47.4340  -29.0590   10.2693 C.3       5 UNK        -0.1978 
     64 N         -46.5519  -26.7597   10.1560 N.am      5 UNK        -0.4737 
     65 C         -46.0009  -25.6343   10.6277 C.2       4 UNK         0.5027 
     66 O         -46.0689  -25.2854   11.8077 O.2       4 UNK        -0.5211 
     67 CA        -45.2391  -24.7565    9.6183 C.3       4 UNK         0.0297 
     68 CB        -44.0761  -25.5352    8.9782 C.3       4 UNK        -0.1993 
     69 N         -46.0454  -24.1347    8.5597 N.am      4 UNK        -0.4486 
     70 C         -47.1813  -23.4392    8.7166 C.2       3 UNK         0.4961 
     71 O         -47.8327  -23.4028    9.7554 O.2       3 UNK        -0.5105 
     72 CA        -47.6719  -22.6015    7.5216 C.3       3 UNK         0.0299 
     73 CB        -47.1988  -21.1481    7.6834 C.3       3 UNK        -0.1972 
     74 N         -47.2031  -23.1106    6.2301 N.am      3 UNK        -0.4305 
     75 C         -47.7224  -24.1180    5.5146 C.2       2 UNK         0.5006 
     76 O         -47.1979  -24.4910    4.4649 O.2       2 UNK        -0.5106 
     77 CA        -49.0300  -24.8002    5.9657 C.3       2 UNK         0.0296 
     78 CB        -50.2300  -24.2478    5.1803 C.3       2 UNK        -0.2002 
     79 N         -48.9241  -26.2363    5.7353 N.am      2 UNK        -0.4032 
     80 C         -48.4042  -27.0915    6.6214 C.2       1 UNK         0.5000 
     81 O         -48.1048  -26.7761    7.7767 O.2       1 UNK        -0.5238 
     82 H82       -45.1779  -30.4474    7.9705 H         1 UNK         0.0889 
     83 H83       -44.3398  -28.9183    8.2514 H         1 UNK         0.0889 
     84 H84       -43.9357  -29.9049    6.8439 H         1 UNK         0.0889 
     85 H85       -47.2981  -29.9369    7.4369 H         1 UNK         0.3028 
     86 H86       -47.9692  -28.5178    5.0768 H         1 UNK         0.0864 
     87 H87       -49.2833  -30.4439    6.2671 H         1 UNK         0.0720 
     88 H88       -49.9395  -29.2168    7.3205 H         1 UNK         0.0720 
     89 H89       -53.0357  -29.7049    5.0215 H         1 UNK         0.0814 
     90 H90       -52.0726  -30.7346    6.0501 H         1 UNK         0.0814 
     91 H91       -52.4548  -26.9628    6.1170 H         1 UNK         0.1469 
     92 H92       -54.3503  -26.9847    9.9649 H         1 UNK         0.1381 
     93 H93       -53.2428  -30.6800    8.1018 H         1 UNK         0.1206 
     94 H94       -54.5496  -30.7381   10.0670 H         1 UNK         0.0813 
     95 H95       -55.4492  -29.3103   10.5259 H         1 UNK         0.0813 
     96 H96       -53.4312  -31.0472   13.7025 H         1 UNK         0.0638 
     97 H97       -53.7366  -31.8770   12.2017 H         1 UNK         0.0638 
     98 H98       -56.0671  -30.9930   12.1502 H         1 UNK         0.0568 
     99 H99       -57.5261  -31.4770   14.8039 H         1 UNK         0.3450 
    100 H100      -57.3614  -33.2058   14.9846 H         1 UNK         0.3450 
    101 H101      -56.5304  -29.1315   13.2377 H         1 UNK         0.2987 
    102 H102      -57.2660  -27.9954   15.1744 H         1 UNK         0.0766 
    103 H103      -56.5681  -26.8714   17.2898 H         1 UNK         0.0798 
    104 H104      -55.1677  -27.9340   17.4046 H         1 UNK         0.0798 
    105 H105      -56.7869  -28.6014   17.5067 H         1 UNK         0.0798 
    106 H106      -54.6795  -26.5995   15.3374 H         1 UNK         0.3198 
    107 H107      -54.2634  -25.8553   12.2078 H         1 UNK         0.0843 
    108 H108      -55.0304  -23.4991   11.9209 H         1 UNK         0.0831 
    109 H109      -56.3067  -23.7600   13.1117 H         1 UNK         0.0831 
    110 H110      -56.3214  -24.6397   11.5911 H         1 UNK         0.0831 
    111 H111      -52.8656  -24.9908   13.6369 H         1 UNK         0.3133 
    112 H112      -52.2430  -23.0566   15.4340 H         1 UNK         0.0566 
    113 H113      -52.0895  -23.3475   17.9178 H         1 UNK         0.0814 
    114 H114      -53.6323  -22.6568   17.4429 H         1 UNK         0.0814 
    115 H115      -53.5383  -24.3526   17.8945 H         1 UNK         0.0814 
    116 H116      -50.8655  -24.7824   15.4136 H         1 UNK         0.3091 
    117 H117      -50.7034  -27.9422   16.6466 H         1 UNK         0.0702 
    118 H118      -52.3547  -28.7973   14.9859 H         1 UNK         0.0785 
    119 H119      -50.7170  -29.0659   14.4117 H         1 UNK         0.0785 
    120 H120      -51.6799  -27.7497   13.7454 H         1 UNK         0.0785 
    121 H121      -49.5204  -26.7331   14.2722 H         1 UNK         0.2998 
    122 H122      -47.0554  -24.8902   16.1107 H         1 UNK         0.0697 
    123 H123      -46.8717  -27.2814   14.2039 H         1 UNK         0.0825 
    124 H124      -46.1027  -27.1593   15.7783 H         1 UNK         0.0825 
    125 H125      -45.6021  -26.0889   14.4785 H         1 UNK         0.0825 
    126 H126      -47.5409  -24.9615   13.3322 H         1 UNK         0.3029 
    127 H127      -50.0505  -22.3783   13.2293 H         1 UNK         0.0897 
    128 H128      -48.3394  -21.3945   11.7332 H         1 UNK         0.0792 
    129 H129      -47.8125  -21.2662   13.4044 H         1 UNK         0.0792 
    130 H130      -47.1126  -22.4951   12.3565 H         1 UNK         0.0792 
    131 H131      -48.8073  -23.8373   11.1357 H         1 UNK         0.3086 
    132 H132      -51.2954  -26.4565   10.9390 H         1 UNK         0.0583 
    133 H133      -50.4241  -24.0633    9.2292 H         1 UNK         0.1020 
    134 H134      -50.8754  -25.6025    8.5544 H         1 UNK         0.1020 
    135 H135      -54.5183  -24.9996    7.9156 H         1 UNK         0.0694 
    136 H136      -52.9624  -24.8857    7.1323 H         1 UNK         0.0694 
    137 H137      -48.8451  -26.2875    9.5805 H         1 UNK         0.2989 
    138 H138      -46.7206  -27.8775   11.9046 H         1 UNK         0.1055 
    139 H139      -47.9001  -29.7974   10.9231 H         1 UNK         0.0806 
    140 H140      -46.4634  -29.4561    9.9743 H         1 UNK         0.0806 
    141 H141      -48.0599  -28.9771    9.3814 H         1 UNK         0.0806 
    142 H142      -46.5931  -26.8992    9.1522 H         1 UNK         0.3061 
    143 H143      -44.8048  -23.9362   10.1935 H         1 UNK         0.0734 
    144 H144      -43.4044  -24.8694    8.4361 H         1 UNK         0.0832 
    145 H145      -43.4786  -26.0443    9.7361 H         1 UNK         0.0832 
    146 H146      -44.4305  -26.2924    8.2779 H         1 UNK         0.0832 
    147 H147      -45.6258  -24.1231    7.6421 H         1 UNK         0.3156 
    148 H148      -48.7625  -22.5786    7.5392 H         1 UNK         0.0589 
    149 H149      -46.1107  -21.0708    7.6805 H         1 UNK         0.0808 
    150 H150      -47.5830  -20.5138    6.8843 H         1 UNK         0.0808 
    151 H151      -47.5516  -20.7262    8.6260 H         1 UNK         0.0808 
    152 H152      -46.3759  -22.6625    5.8628 H         1 UNK         0.3098 
    153 H153      -49.2189  -24.6410    7.0253 H         1 UNK         0.0720 
    154 H154      -51.1544  -24.7507    5.4631 H         1 UNK         0.0791 
    155 H155      -50.1005  -24.3678    4.1038 H         1 UNK         0.0791 
    156 H156      -50.3661  -23.1835    5.3764 H         1 UNK         0.0791 
    157 H157      -49.1269  -26.5605    4.8005 H         1 UNK         0.3028 
@<TRIPOS>BOND
     1    1    2 1    
     2    1   82 1    
     3    1   83 1    
     4    1   84 1    
     5    2    3 2    
     6    2    4 am   BACKBONE|DICT|INTERRES
     7    4    5 1    
     8    4   85 1    
     9    5    6 1    
    10    5   80 1    
    11    5   86 1    
    12    6    7 1    
    13    6   87 1    
    14    6   88 1    
    15    7    8 1    
    16    8    9 1    
    17    8   89 1    
    18    8   90 1    
    19    9   10 ar   
    20    9   14 ar   
    21   10   11 ar   
    22   10   91 1    
    23   11   12 ar   
    24   11   58 1    
    25   12   13 ar   
    26   12   92 1    
    27   13   14 ar   
    28   13   15 1    
    29   14   93 1    
    30   15   16 1    
    31   15   94 1    
    32   15   95 1    
    33   16   17 1    
    34   17   18 1    
    35   17   96 1    
    36   17   97 1    
    37   18   19 1    
    38   18   22 1    
    39   18   98 1    
    40   19   20 am   BACKBONE|DICT|INTERRES
    41   19   21 2    
    42   20   99 1    
    43   20  100 1    
    44   22   23 am   BACKBONE|DICT|INTERRES
    45   22  101 1    
    46   23   24 2    
    47   23   25 1    
    48   25   26 1    
    49   25   27 1    
    50   25  102 1    
    51   26  103 1    
    52   26  104 1    
    53   26  105 1    
    54   27   28 am   BACKBONE|DICT|INTERRES
    55   27  106 1    
    56   28   29 2    
    57   28   30 1    
    58   30   31 1    
    59   30   32 1    
    60   30  107 1    
    61   31  108 1    
    62   31  109 1    
    63   31  110 1    
    64   32   33 am   BACKBONE|DICT|INTERRES
    65   32  111 1    
    66   33   34 2    
    67   33   35 1    
    68   35   36 1    
    69   35   37 1    
    70   35  112 1    
    71   36  113 1    
    72   36  114 1    
    73   36  115 1    
    74   37   38 am   BACKBONE|DICT|INTERRES
    75   37  116 1    
    76   38   39 2    
    77   38   40 1    
    78   40   41 1    
    79   40   42 1    
    80   40  117 1    
    81   41  118 1    
    82   41  119 1    
    83   41  120 1    
    84   42   43 am   BACKBONE|DICT|INTERRES
    85   42  121 1    
    86   43   44 2    
    87   43   45 1    
    88   45   46 1    
    89   45   47 1    
    90   45  122 1    
    91   46  123 1    
    92   46  124 1    
    93   46  125 1    
    94   47   48 am   BACKBONE|DICT|INTERRES
    95   47  126 1    
    96   48   49 2    
    97   48   50 1    
    98   50   51 1    
    99   50   52 1    
   100   50  127 1    
   101   51  128 1    
   102   51  129 1    
   103   51  130 1    
   104   52   53 am   BACKBONE|DICT|INTERRES
   105   52  131 1    
   106   53   54 2    
   107   53   55 1    
   108   55   56 1    
   109   55   59 1    
   110   55  132 1    
   111   56   57 1    
   112   56  133 1    
   113   56  134 1    
   114   57   58 1    
   115   58  135 1    
   116   58  136 1    
   117   59   60 am   BACKBONE|DICT|INTERRES
   118   59  137 1    
   119   60   61 2    
   120   60   62 1    
   121   62   63 1    
   122   62   64 1    
   123   62  138 1    
   124   63  139 1    
   125   63  140 1    
   126   63  141 1    
   127   64   65 am   BACKBONE|DICT|INTERRES
   128   64  142 1    
   129   65   66 2    
   130   65   67 1    
   131   67   68 1    
   132   67   69 1    
   133   67  143 1    
   134   68  144 1    
   135   68  145 1    
   136   68  146 1    
   137   69   70 am   BACKBONE|DICT|INTERRES
   138   69  147 1    
   139   70   71 2    
   140   70   72 1    
   141   72   73 1    
   142   72   74 1    
   143   72  148 1    
   144   73  149 1    
   145   73  150 1    
   146   73  151 1    
   147   74   75 am   BACKBONE|DICT|INTERRES
   148   74  152 1    
   149   75   76 2    
   150   75   77 1    
   151   77   78 1    
   152   77   79 1    
   153   77  153 1    
   154   78  154 1    
   155   78  155 1    
   156   78  156 1    
   157   79   80 am   BACKBONE|DICT|INTERRES
   158   79  157 1    
   159   80   81 2    
@<TRIPOS>SUBSTRUCTURE
     1 UNK         1 GROUP             0       ****    0 ROOT    
