@<TRIPOS>MOLECULE
3R207
157   159    1
SMALL
USER_CHARGES


@<TRIPOS>ATOM
      1 CA        -50.2868  -29.9472    7.0432 C.3       0 UNK        -0.1975 
      2 C         -49.7148  -28.7604    6.2863 C.2       0 UNK         0.4852 
      3 O         -48.8122  -28.0876    6.7857 O.2       0 UNK        -0.5216 
      4 N         -50.2160  -28.5105    5.0683 N.am      1 UNK        -0.4461 
      5 CA        -49.8866  -27.3600    4.2068 C.3       1 UNK         0.0864 
      6 C6        -50.4135  -26.0138    4.7757 C.3       14 UNK        -0.0898 
      7 S7        -52.2132  -26.0086    5.0821 S.3       14 UNK        -0.2598 
      8 C8        -52.3261  -25.0468    6.6263 C.3       14 UNK         0.0286 
      9 C9        -52.6757  -25.9221    7.8216 C.ar      14 UNK        -0.0844 
     10 C10       -51.6850  -26.6564    8.4835 C.ar      14 UNK        -0.0881 
     11 C11       -52.0005  -27.4295    9.6103 C.ar      14 UNK        -0.0643 
     12 C12       -53.3218  -27.4532   10.0639 C.ar      14 UNK        -0.0930 
     13 C13       -54.3232  -26.7334    9.4078 C.ar      14 UNK        -0.0827 
     14 C14       -53.9940  -25.9704    8.2852 C.ar      14 UNK        -0.1249 
     15 C15       -55.7516  -26.7718    9.9301 C.3       14 UNK         0.0141 
     16 S16       -56.4690  -28.4396    9.7770 S.3       14 UNK        -0.2313 
     17 C17       -57.5821  -28.4935   11.2262 C.3       14 UNK        -0.0915 
     18 CA        -56.9472  -29.1616   12.4798 C.3       13 UNK         0.0968 
     19 C         -56.6881  -30.6868   12.3091 C.2       13 UNK         0.5732 
     20 N         -55.4889  -31.2016   12.5677 N.am      13 UNK        -0.7310 
     21 O         -57.6042  -31.4280   11.9604 O.2       13 UNK        -0.5035 
     22 N         -55.7696  -28.4288   12.9530 N.am      13 UNK        -0.4233 
     23 C         -55.7521  -27.3974   13.7956 C.2       13 UNK         0.4989 
     24 O         -56.7593  -26.9173   14.3184 O.2       13 UNK        -0.4996 
     25 CA        -54.3587  -26.8056   14.0880 C.3       12 UNK         0.0216 
     26 CB        -54.4331  -25.4919   14.8876 C.3       12 UNK        -0.1964 
     27 N         -53.4711  -27.7238   14.8031 N.am      12 UNK        -0.4276 
     28 C         -52.9519  -28.8801   14.3679 C.2       12 UNK         0.5020 
     29 O         -53.1968  -29.3688   13.2618 O.2       12 UNK        -0.5489 
     30 CA        -52.0017  -29.6235   15.3258 C.3       11 UNK         0.0294 
     31 CB        -50.6213  -29.8359   14.6854 C.3       11 UNK        -0.2019 
     32 N         -51.8193  -28.9261   16.6023 N.am      11 UNK        -0.4493 
     33 C         -52.5985  -29.0618   17.6795 C.2       11 UNK         0.4932 
     34 O         -53.5705  -29.8150   17.7295 O.2       11 UNK        -0.5029 
     35 CA        -52.2466  -28.2002   18.9044 C.3       10 UNK         0.0280 
     36 CB        -50.9267  -28.6632   19.5537 C.3       10 UNK        -0.1976 
     37 N         -52.2465  -26.7488   18.6596 N.am      10 UNK        -0.4242 
     38 C         -51.4324  -26.0220   17.8797 C.2       10 UNK         0.5072 
     39 O         -50.5534  -26.4947   17.1552 O.2       10 UNK        -0.5224 
     40 CA        -51.6073  -24.5017   17.9677 C.3       9 UNK         0.0343 
     41 CB        -50.9216  -23.9738   19.2469 C.3       9 UNK        -0.2003 
     42 N         -51.0371  -23.8686   16.7777 N.am      9 UNK        -0.4272 
     43 C         -51.1681  -22.5747   16.4525 C.2       9 UNK         0.4988 
     44 O         -51.8281  -21.7667   17.1077 O.2       9 UNK        -0.5108 
     45 CA        -50.4377  -22.0835   15.1903 C.3       8 UNK         0.0248 
     46 CB        -48.9540  -21.8205   15.4940 C.3       8 UNK        -0.2001 
     47 N         -50.5562  -22.9941   14.0498 N.am      8 UNK        -0.4140 
     48 C         -51.7054  -23.2606   13.4087 C.2       8 UNK         0.5028 
     49 O         -52.7809  -22.7397   13.7064 O.2       8 UNK        -0.5428 
     50 CA        -51.6708  -24.2486   12.2259 C.3       7 UNK         0.0264 
     51 CB        -52.0229  -23.5313   10.9129 C.3       7 UNK        -0.1988 
     52 N         -50.3947  -24.9484   12.0642 N.am      7 UNK        -0.4454 
     53 C         -49.9416  -25.9101   12.8851 C.2       7 UNK         0.5027 
     54 O         -50.5762  -26.3175   13.8568 O.2       7 UNK        -0.5083 
     55 CA        -48.5382  -26.5006   12.6036 C.3       6 UNK         0.0844 
     56 C56       -48.6259  -27.8701   11.8856 C.3       14 UNK        -0.0967 
     57 S57       -49.2356  -27.7448   10.1663 S.3       14 UNK        -0.2604 
     58 C58       -50.9714  -28.2776   10.3584 C.3       14 UNK         0.0134 
     59 N         -47.6550  -25.5952   11.8684 N.am      6 UNK        -0.4116 
     60 C         -47.2874  -24.3581   12.2214 C.2       5 UNK         0.5034 
     61 O         -47.5716  -23.8382   13.3001 O.2       5 UNK        -0.5045 
     62 CA        -46.5255  -23.5465   11.1569 C.3       5 UNK         0.0224 
     63 CB        -45.0166  -23.5645   11.4458 C.3       5 UNK        -0.1978 
     64 N         -46.7575  -24.0076    9.7796 N.am      5 UNK        -0.4737 
     65 C         -47.9408  -24.0433    9.1528 C.2       4 UNK         0.5027 
     66 O         -48.9900  -23.6772    9.6801 O.2       4 UNK        -0.5211 
     67 CA        -47.9858  -24.6243    7.7286 C.3       4 UNK         0.0297 
     68 CB        -47.6204  -23.5610    6.6772 C.3       4 UNK        -0.1993 
     69 N         -47.2228  -25.8656    7.5245 N.am      4 UNK        -0.4486 
     70 C         -45.8980  -26.0689    7.5950 C.2       3 UNK         0.4961 
     71 O         -45.0782  -25.1979    7.8876 O.2       3 UNK        -0.5105 
     72 CA        -45.4029  -27.4888    7.2917 C.3       3 UNK         0.0299 
     73 CB        -45.7181  -28.4380    8.4602 C.3       3 UNK        -0.1972 
     74 N         -46.0103  -28.0009    6.0629 N.am      3 UNK        -0.4305 
     75 C         -45.4298  -27.9722    4.8541 C.2       2 UNK         0.5006 
     76 O         -44.2910  -27.5486    4.6514 O.2       2 UNK        -0.5106 
     77 CA        -46.2381  -28.5192    3.6602 C.3       2 UNK         0.0296 
     78 CB        -45.8619  -29.9847    3.3864 C.3       2 UNK        -0.2002 
     79 N         -47.6883  -28.4218    3.8407 N.am      2 UNK        -0.4032 
     80 C         -48.3832  -27.2743    3.8365 C.2       1 UNK         0.5000 
     81 O         -47.8748  -26.1833    3.5694 O.2       1 UNK        -0.5238 
     82 H82       -50.4908  -30.7827    6.3742 H         1 UNK         0.0889 
     83 H83       -51.2158  -29.6619    7.5354 H         1 UNK         0.0889 
     84 H84       -49.5861  -30.2856    7.8063 H         1 UNK         0.0889 
     85 H85       -50.9501  -29.1085    4.7140 H         1 UNK         0.3028 
     86 H86       -50.4020  -27.5374    3.2617 H         1 UNK         0.0864 
     87 H87       -50.2069  -25.1927    4.0869 H         1 UNK         0.0720 
     88 H88       -49.8835  -25.7779    5.6962 H         1 UNK         0.0720 
     89 H89       -53.0899  -24.2791    6.4932 H         1 UNK         0.0814 
     90 H90       -51.4009  -24.5031    6.8203 H         1 UNK         0.0814 
     91 H91       -50.6711  -26.6218    8.1139 H         1 UNK         0.1469 
     92 H92       -53.5773  -28.0504   10.9278 H         1 UNK         0.1381 
     93 H93       -54.7629  -25.4050    7.7765 H         1 UNK         0.1206 
     94 H94       -56.3859  -26.0643    9.3941 H         1 UNK         0.0813 
     95 H95       -55.7486  -26.4493   10.9708 H         1 UNK         0.0813 
     96 H96       -58.4902  -29.0243   10.9355 H         1 UNK         0.0638 
     97 H97       -57.9060  -27.4803   11.4684 H         1 UNK         0.0638 
     98 H98       -57.6931  -29.1161   13.2752 H         1 UNK         0.0568 
     99 H99       -55.3579  -32.1942   12.4559 H         1 UNK         0.3450 
    100 H100      -54.7075  -30.6269   12.8583 H         1 UNK         0.3450 
    101 H101      -54.8711  -28.8025   12.6625 H         1 UNK         0.2987 
    102 H102      -53.8982  -26.5897   13.1232 H         1 UNK         0.0766 
    103 H103      -53.4405  -25.0788   15.0663 H         1 UNK         0.0798 
    104 H104      -54.9127  -25.6332   15.8570 H         1 UNK         0.0798 
    105 H105      -55.0039  -24.7362   14.3461 H         1 UNK         0.0798 
    106 H106      -53.1983  -27.4390   15.7309 H         1 UNK         0.3198 
    107 H107      -52.4440  -30.6051   15.5087 H         1 UNK         0.0843 
    108 H108      -50.0910  -28.8913   14.5687 H         1 UNK         0.0831 
    109 H109      -50.7052  -30.2967   13.7001 H         1 UNK         0.0831 
    110 H110      -50.0010  -30.4913   15.2967 H         1 UNK         0.0831 
    111 H111      -51.0898  -28.2152   16.6429 H         1 UNK         0.3133 
    112 H112      -53.0373  -28.3693   19.6374 H         1 UNK         0.0566 
    113 H113      -50.7333  -28.1253   20.4817 H         1 UNK         0.0814 
    114 H114      -50.9651  -29.7256   19.7981 H         1 UNK         0.0814 
    115 H115      -50.0687  -28.5140   18.8975 H         1 UNK         0.0814 
    116 H116      -52.9412  -26.2414   19.1912 H         1 UNK         0.3091 
    117 H117      -52.6754  -24.2769   18.0008 H         1 UNK         0.0702 
    118 H118      -51.0979  -22.9085   19.3934 H         1 UNK         0.0785 
    119 H119      -49.8428  -24.1317   19.2155 H         1 UNK         0.0785 
    120 H120      -51.2981  -24.4790   20.1373 H         1 UNK         0.0785 
    121 H121      -50.5070  -24.4949   16.1824 H         1 UNK         0.2998 
    122 H122      -50.8914  -21.1339   14.8986 H         1 UNK         0.0697 
    123 H123      -48.4278  -22.7366   15.7659 H         1 UNK         0.0825 
    124 H124      -48.8427  -21.1214   16.3239 H         1 UNK         0.0825 
    125 H125      -48.4438  -21.3859   14.6341 H         1 UNK         0.0825 
    126 H126      -49.7046  -23.4430   13.7341 H         1 UNK         0.3029 
    127 H127      -52.4389  -24.9992   12.4114 H         1 UNK         0.0897 
    128 H128      -52.0176  -24.2213   10.0701 H         1 UNK         0.0792 
    129 H129      -51.3201  -22.7273   10.6921 H         1 UNK         0.0792 
    130 H130      -53.0194  -23.0906   10.9621 H         1 UNK         0.0792 
    131 H131      -49.8230  -24.6588   11.2758 H         1 UNK         0.3086 
    132 H132      -48.0740  -26.6649   13.5781 H         1 UNK         0.0583 
    133 H133      -47.6336  -28.3225   11.8500 H         1 UNK         0.1020 
    134 H134      -49.2336  -28.5750   12.4517 H         1 UNK         0.1020 
    135 H135      -51.0563  -29.3120   10.0247 H         1 UNK         0.0694 
    136 H136      -51.2328  -28.2789   11.4177 H         1 UNK         0.0694 
    137 H137      -47.3930  -25.9070   10.9448 H         1 UNK         0.2989 
    138 H138      -46.8813  -22.5162   11.2254 H         1 UNK         0.1055 
    139 H139      -44.8069  -23.2073   12.4552 H         1 UNK         0.0806 
    140 H140      -44.4731  -22.9186   10.7558 H         1 UNK         0.0806 
    141 H141      -44.6016  -24.5698   11.3614 H         1 UNK         0.0806 
    142 H142      -45.9510  -24.3359    9.2509 H         1 UNK         0.3061 
    143 H143      -49.0265  -24.8995    7.5642 H         1 UNK         0.0734 
    144 H144      -47.7524  -23.9456    5.6655 H         1 UNK         0.0832 
    145 H145      -48.2575  -22.6812    6.7762 H         1 UNK         0.0832 
    146 H146      -46.5875  -23.2266    6.7767 H         1 UNK         0.0832 
    147 H147      -47.8001  -26.6811    7.3171 H         1 UNK         0.3156 
    148 H148      -44.3169  -27.4481    7.1842 H         1 UNK         0.0589 
    149 H149      -46.7909  -28.5693    8.6030 H         1 UNK         0.0808 
    150 H150      -45.2838  -29.4237    8.2935 H         1 UNK         0.0808 
    151 H151      -45.3078  -28.0573    9.3965 H         1 UNK         0.0808 
    152 H152      -46.9779  -28.2991    6.1370 H         1 UNK         0.3098 
    153 H153      -45.9658  -27.9286    2.7828 H         1 UNK         0.0720 
    154 H154      -46.3653  -30.3649    2.4972 H         1 UNK         0.0791 
    155 H155      -46.1220  -30.6327    4.2245 H         1 UNK         0.0791 
    156 H156      -44.7889  -30.0866    3.2171 H         1 UNK         0.0791 
    157 H157      -48.1819  -29.2752    4.0589 H         1 UNK         0.3028 
@<TRIPOS>BOND
     1    1    2 1    
     2    1   82 1    
     3    1   83 1    
     4    1   84 1    
     5    2    3 2    
     6    2    4 am   BACKBONE|DICT|INTERRES
     7    4    5 1    
     8    4   85 1    
     9    5    6 1    
    10    5   80 1    
    11    5   86 1    
    12    6    7 1    
    13    6   87 1    
    14    6   88 1    
    15    7    8 1    
    16    8    9 1    
    17    8   89 1    
    18    8   90 1    
    19    9   10 ar   
    20    9   14 ar   
    21   10   11 ar   
    22   10   91 1    
    23   11   12 ar   
    24   11   58 1    
    25   12   13 ar   
    26   12   92 1    
    27   13   14 ar   
    28   13   15 1    
    29   14   93 1    
    30   15   16 1    
    31   15   94 1    
    32   15   95 1    
    33   16   17 1    
    34   17   18 1    
    35   17   96 1    
    36   17   97 1    
    37   18   19 1    
    38   18   22 1    
    39   18   98 1    
    40   19   20 am   BACKBONE|DICT|INTERRES
    41   19   21 2    
    42   20   99 1    
    43   20  100 1    
    44   22   23 am   BACKBONE|DICT|INTERRES
    45   22  101 1    
    46   23   24 2    
    47   23   25 1    
    48   25   26 1    
    49   25   27 1    
    50   25  102 1    
    51   26  103 1    
    52   26  104 1    
    53   26  105 1    
    54   27   28 am   BACKBONE|DICT|INTERRES
    55   27  106 1    
    56   28   29 2    
    57   28   30 1    
    58   30   31 1    
    59   30   32 1    
    60   30  107 1    
    61   31  108 1    
    62   31  109 1    
    63   31  110 1    
    64   32   33 am   BACKBONE|DICT|INTERRES
    65   32  111 1    
    66   33   34 2    
    67   33   35 1    
    68   35   36 1    
    69   35   37 1    
    70   35  112 1    
    71   36  113 1    
    72   36  114 1    
    73   36  115 1    
    74   37   38 am   BACKBONE|DICT|INTERRES
    75   37  116 1    
    76   38   39 2    
    77   38   40 1    
    78   40   41 1    
    79   40   42 1    
    80   40  117 1    
    81   41  118 1    
    82   41  119 1    
    83   41  120 1    
    84   42   43 am   BACKBONE|DICT|INTERRES
    85   42  121 1    
    86   43   44 2    
    87   43   45 1    
    88   45   46 1    
    89   45   47 1    
    90   45  122 1    
    91   46  123 1    
    92   46  124 1    
    93   46  125 1    
    94   47   48 am   BACKBONE|DICT|INTERRES
    95   47  126 1    
    96   48   49 2    
    97   48   50 1    
    98   50   51 1    
    99   50   52 1    
   100   50  127 1    
   101   51  128 1    
   102   51  129 1    
   103   51  130 1    
   104   52   53 am   BACKBONE|DICT|INTERRES
   105   52  131 1    
   106   53   54 2    
   107   53   55 1    
   108   55   56 1    
   109   55   59 1    
   110   55  132 1    
   111   56   57 1    
   112   56  133 1    
   113   56  134 1    
   114   57   58 1    
   115   58  135 1    
   116   58  136 1    
   117   59   60 am   BACKBONE|DICT|INTERRES
   118   59  137 1    
   119   60   61 2    
   120   60   62 1    
   121   62   63 1    
   122   62   64 1    
   123   62  138 1    
   124   63  139 1    
   125   63  140 1    
   126   63  141 1    
   127   64   65 am   BACKBONE|DICT|INTERRES
   128   64  142 1    
   129   65   66 2    
   130   65   67 1    
   131   67   68 1    
   132   67   69 1    
   133   67  143 1    
   134   68  144 1    
   135   68  145 1    
   136   68  146 1    
   137   69   70 am   BACKBONE|DICT|INTERRES
   138   69  147 1    
   139   70   71 2    
   140   70   72 1    
   141   72   73 1    
   142   72   74 1    
   143   72  148 1    
   144   73  149 1    
   145   73  150 1    
   146   73  151 1    
   147   74   75 am   BACKBONE|DICT|INTERRES
   148   74  152 1    
   149   75   76 2    
   150   75   77 1    
   151   77   78 1    
   152   77   79 1    
   153   77  153 1    
   154   78  154 1    
   155   78  155 1    
   156   78  156 1    
   157   79   80 am   BACKBONE|DICT|INTERRES
   158   79  157 1    
   159   80   81 2    
@<TRIPOS>SUBSTRUCTURE
     1 UNK         1 GROUP             0       ****    0 ROOT    
