@<TRIPOS>MOLECULE
3R207
157   159    1
SMALL
USER_CHARGES


@<TRIPOS>ATOM
      1 CA        -48.8486  -29.0960   -0.6011 C.3       0 UNK        -0.1975 
      2 C         -49.6359  -28.4798    0.5461 C.2       0 UNK         0.4852 
      3 O         -50.0889  -27.3405    0.4312 O.2       0 UNK        -0.5216 
      4 N         -49.8061  -29.2288    1.6449 N.am      1 UNK        -0.4461 
      5 CA        -50.4987  -28.8028    2.8663 C.3       1 UNK         0.0864 
      6 C6        -50.8011  -30.0238    3.7807 C.3       14 UNK        -0.0898 
      7 S7        -51.4401  -29.6416    5.4529 S.3       14 UNK        -0.2598 
      8 C8        -50.0507  -30.2451    6.4745 C.3       14 UNK         0.0286 
      9 C9        -50.2097  -30.0551    7.9826 C.ar      14 UNK        -0.0844 
     10 C10       -49.0559  -29.9475    8.7663 C.ar      14 UNK        -0.0881 
     11 C11       -49.1419  -29.8544   10.1568 C.ar      14 UNK        -0.0643 
     12 C12       -50.3994  -29.8547   10.7672 C.ar      14 UNK        -0.0930 
     13 C13       -51.5706  -29.9497   10.0035 C.ar      14 UNK        -0.0827 
     14 C14       -51.4622  -30.0569    8.6123 C.ar      14 UNK        -0.1249 
     15 C15       -52.9583  -30.0035   10.6499 C.3       14 UNK         0.0141 
     16 S16       -53.0880  -29.0799   12.2171 S.3       14 UNK        -0.2313 
     17 C17       -54.8381  -29.3010   12.6743 C.3       14 UNK        -0.0915 
     18 CA        -55.7262  -28.0892   12.2838 C.3       13 UNK         0.0968 
     19 C         -57.2113  -28.3249   12.6899 C.2       13 UNK         0.5732 
     20 N         -57.8263  -27.4906   13.5223 N.am      13 UNK        -0.7310 
     21 O         -57.8257  -29.2834   12.2272 O.2       13 UNK        -0.5035 
     22 N         -55.1699  -26.8163   12.7658 N.am      13 UNK        -0.4233 
     23 C         -55.4359  -25.6197   12.2282 C.2       13 UNK         0.4989 
     24 O         -56.1226  -25.4630   11.2169 O.2       13 UNK        -0.4996 
     25 CA        -54.8325  -24.3947   12.9416 C.3       12 UNK         0.0216 
     26 CB        -55.5790  -23.0816   12.6231 C.3       12 UNK        -0.1964 
     27 N         -54.6938  -24.5805   14.3920 N.am      12 UNK        -0.4276 
     28 C         -55.6711  -24.7907   15.2853 C.2       12 UNK         0.5020 
     29 O         -56.8631  -24.8880   14.9849 O.2       12 UNK        -0.5489 
     30 CA        -55.2298  -24.9279   16.7567 C.3       11 UNK         0.0294 
     31 CB        -56.3597  -25.4405   17.6758 C.3       11 UNK        -0.2019 
     32 N         -54.0126  -25.7315   16.9342 N.am      11 UNK        -0.4493 
     33 C         -53.8339  -27.0206   16.6023 C.2       11 UNK         0.4932 
     34 O         -54.6918  -27.7063   16.0445 O.2       11 UNK        -0.5029 
     35 CA        -52.4671  -27.6438   16.9479 C.3       10 UNK         0.0280 
     36 CB        -52.0918  -28.7859   15.9860 C.3       10 UNK        -0.1976 
     37 N         -51.4039  -26.6382   16.9145 N.am      10 UNK        -0.4242 
     38 C         -50.6763  -26.2168   17.9576 C.2       10 UNK         0.5072 
     39 O         -50.8284  -26.6356   19.1058 O.2       10 UNK        -0.5224 
     40 CA        -49.5912  -25.1489   17.6969 C.3       9 UNK         0.0343 
     41 CB        -48.1926  -25.7840   17.7670 C.3       9 UNK        -0.2003 
     42 N         -49.7213  -24.4477   16.4165 N.am      9 UNK        -0.4272 
     43 C         -50.7152  -23.6095   16.0885 C.2       9 UNK         0.4988 
     44 O         -51.6162  -23.2763   16.8588 O.2       9 UNK        -0.5108 
     45 CA        -50.7565  -23.1395   14.6218 C.3       8 UNK         0.0248 
     46 CB        -49.8118  -21.9482   14.4038 C.3       8 UNK        -0.2001 
     47 N         -50.4387  -24.2154   13.6726 N.am      8 UNK        -0.4140 
     48 C         -51.1137  -25.3726   13.5970 C.2       8 UNK         0.5028 
     49 O         -52.0991  -25.6267   14.2846 O.2       8 UNK        -0.5428 
     50 CA        -50.5865  -26.4464   12.6486 C.3       7 UNK         0.0264 
     51 CB        -51.1013  -26.2111   11.2238 C.3       7 UNK        -0.1988 
     52 N         -49.1304  -26.4911   12.6626 N.am      7 UNK        -0.4454 
     53 C         -48.4014  -27.1571   13.5714 C.2       7 UNK         0.5027 
     54 O         -48.8854  -27.8311   14.4811 O.2       7 UNK        -0.5083 
     55 CA        -46.8646  -27.0363   13.4511 C.3       6 UNK         0.0844 
     56 C56       -46.2500  -28.1492   12.5600 C.3       14 UNK        -0.0967 
     57 S57       -46.9589  -28.2615   10.8709 S.3       14 UNK        -0.2604 
     58 C58       -47.8800  -29.8297   11.0084 C.3       14 UNK         0.0134 
     59 N         -46.4389  -25.7053   13.0162 N.am      6 UNK        -0.4116 
     60 C         -46.6753  -24.5595   13.6712 C.2       5 UNK         0.5034 
     61 O         -47.2325  -24.4925   14.7673 O.2       5 UNK        -0.5045 
     62 CA        -46.2755  -23.2615   12.9465 C.3       5 UNK         0.0224 
     63 CB        -44.8606  -22.8296   13.3619 C.3       5 UNK        -0.1978 
     64 N         -46.3508  -23.3462   11.4812 N.am      5 UNK        -0.4737 
     65 C         -47.4477  -23.6626   10.7767 C.2       4 UNK         0.5027 
     66 O         -48.5271  -23.9306   11.3091 O.2       4 UNK        -0.5211 
     67 CA        -47.3106  -23.7091    9.2418 C.3       4 UNK         0.0297 
     68 CB        -45.8498  -23.7624    8.7475 C.3       4 UNK        -0.1993 
     69 N         -48.0235  -24.8627    8.6942 N.am      4 UNK        -0.4486 
     70 C         -49.2966  -24.8711    8.2853 C.2       3 UNK         0.4961 
     71 O         -50.0312  -23.8815    8.2921 O.2       3 UNK        -0.5105 
     72 CA        -49.8071  -26.2094    7.7218 C.3       3 UNK         0.0299 
     73 CB        -51.3407  -26.2476    7.5805 C.3       3 UNK        -0.1972 
     74 N         -49.2144  -26.4747    6.4124 N.am      3 UNK        -0.4305 
     75 C         -47.9713  -26.9056    6.1711 C.2       2 UNK         0.5006 
     76 O         -47.1670  -27.1843    7.0625 O.2       2 UNK        -0.5106 
     77 CA        -47.5701  -27.0492    4.6851 C.3       2 UNK         0.0296 
     78 CB        -46.1185  -27.5342    4.5110 C.3       2 UNK        -0.2002 
     79 N         -48.4596  -27.9441    3.9354 N.am      2 UNK        -0.4032 
     80 C         -49.7238  -27.6727    3.5775 C.2       1 UNK         0.5000 
     81 O         -50.2772  -26.5915    3.7939 O.2       1 UNK        -0.5238 
     82 H82       -48.5144  -30.1076   -0.3710 H         1 UNK         0.0889 
     83 H83       -47.9695  -28.4905   -0.8202 H         1 UNK         0.0889 
     84 H84       -49.4652  -29.1390   -1.4985 H         1 UNK         0.0889 
     85 H85       -49.4192  -30.1619    1.6613 H         1 UNK         0.3028 
     86 H86       -51.4595  -28.3783    2.5660 H         1 UNK         0.0864 
     87 H87       -49.9077  -30.6424    3.8818 H         1 UNK         0.0720 
     88 H88       -51.5369  -30.6628    3.2900 H         1 UNK         0.0720 
     89 H89       -49.1401  -29.7462    6.1412 H         1 UNK         0.0814 
     90 H90       -49.9106  -31.3094    6.2812 H         1 UNK         0.0814 
     91 H91       -48.0807  -29.9592    8.2979 H         1 UNK         0.1469 
     92 H92       -50.4596  -29.8016   11.8451 H         1 UNK         0.1381 
     93 H93       -52.3612  -30.1646    8.0219 H         1 UNK         0.1206 
     94 H94       -53.7038  -29.6067    9.9592 H         1 UNK         0.0813 
     95 H95       -53.2183  -31.0472   10.8297 H         1 UNK         0.0813 
     96 H96       -55.2107  -30.2189   12.2162 H         1 UNK         0.0638 
     97 H97       -54.8770  -29.4614   13.7534 H         1 UNK         0.0638 
     98 H98       -55.7291  -28.0451   11.1931 H         1 UNK         0.0568 
     99 H99       -57.3455  -26.6888   13.9121 H         1 UNK         0.3450 
    100 H100      -58.7884  -27.6625   13.7653 H         1 UNK         0.3450 
    101 H101      -54.6113  -26.8664   13.6068 H         1 UNK         0.2987 
    102 H102      -53.8194  -24.2942   12.5505 H         1 UNK         0.0766 
    103 H103      -56.6258  -23.1275   12.9253 H         1 UNK         0.0798 
    104 H104      -55.1202  -22.2322   13.1289 H         1 UNK         0.0798 
    105 H105      -55.5591  -22.8688   11.5536 H         1 UNK         0.0798 
    106 H106      -53.7328  -24.6793   14.7109 H         1 UNK         0.3198 
    107 H107      -54.9752  -23.9186   17.0845 H         1 UNK         0.0843 
    108 H108      -56.7056  -26.4309   17.3778 H         1 UNK         0.0831 
    109 H109      -57.2221  -24.7735   17.6441 H         1 UNK         0.0831 
    110 H110      -56.0333  -25.4967   18.7142 H         1 UNK         0.0831 
    111 H111      -53.2259  -25.2444   17.3435 H         1 UNK         0.3133 
    112 H112      -52.5615  -28.0649   17.9503 H         1 UNK         0.0566 
    113 H113      -51.1264  -29.2212   16.2443 H         1 UNK         0.0814 
    114 H114      -52.8288  -29.5893   16.0146 H         1 UNK         0.0814 
    115 H115      -52.0311  -28.4335   14.9565 H         1 UNK         0.0814 
    116 H116      -51.2642  -26.2024   16.0087 H         1 UNK         0.3091 
    117 H117      -49.6710  -24.4062   18.4933 H         1 UNK         0.0702 
    118 H118      -47.4097  -25.0320   17.6658 H         1 UNK         0.0785 
    119 H119      -48.0488  -26.5240   16.9783 H         1 UNK         0.0785 
    120 H120      -48.0363  -26.2878   18.7219 H         1 UNK         0.0785 
    121 H121      -48.9935  -24.6249   15.7301 H         1 UNK         0.2998 
    122 H122      -51.7750  -22.8102   14.4058 H         1 UNK         0.0697 
    123 H123      -48.7887  -22.1868   14.6926 H         1 UNK         0.0825 
    124 H124      -50.1241  -21.0934   15.0050 H         1 UNK         0.0825 
    125 H125      -49.8045  -21.6273   13.3618 H         1 UNK         0.0825 
    126 H126      -49.6639  -24.0666   13.0339 H         1 UNK         0.3029 
    127 H127      -50.9621  -27.4095   12.9938 H         1 UNK         0.0897 
    128 H128      -50.7996  -25.2386   10.8353 H         1 UNK         0.0792 
    129 H129      -52.1910  -26.2493   11.1948 H         1 UNK         0.0792 
    130 H130      -50.7343  -26.9797   10.5447 H         1 UNK         0.0792 
    131 H131      -48.6564  -25.9131   11.9785 H         1 UNK         0.3086 
    132 H132      -46.4633  -27.1692   14.4582 H         1 UNK         0.0583 
    133 H133      -45.1748  -27.9900   12.4635 H         1 UNK         0.1020 
    134 H134      -46.3393  -29.1117   13.0665 H         1 UNK         0.1020 
    135 H135      -47.2255  -30.6516   10.7149 H         1 UNK         0.0694 
    136 H136      -48.1467  -30.0129   12.0502 H         1 UNK         0.0694 
    137 H137      -45.9901  -25.6532   12.1139 H         1 UNK         0.2989 
    138 H138      -46.9745  -22.4853   13.2613 H         1 UNK         0.1055 
    139 H139      -44.7838  -22.7371   14.4464 H         1 UNK         0.0806 
    140 H140      -44.6004  -21.8594   12.9383 H         1 UNK         0.0806 
    141 H141      -44.1065  -23.5500   13.0423 H         1 UNK         0.0806 
    142 H142      -45.5031  -23.1378   10.9728 H         1 UNK         0.3061 
    143 H143      -47.7592  -22.7907    8.8577 H         1 UNK         0.0734 
    144 H144      -45.3132  -24.6232    9.1493 H         1 UNK         0.0832 
    145 H145      -45.8091  -23.8315    7.6600 H         1 UNK         0.0832 
    146 H146      -45.2992  -22.8617    9.0216 H         1 UNK         0.0832 
    147 H147      -47.4995  -25.7260    8.5984 H         1 UNK         0.3156 
    148 H148      -49.5113  -27.0012    8.4134 H         1 UNK         0.0589 
    149 H149      -51.6957  -25.5408    6.8296 H         1 UNK         0.0808 
    150 H150      -51.6842  -27.2413    7.2942 H         1 UNK         0.0808 
    151 H151      -51.8337  -25.9968    8.5192 H         1 UNK         0.0808 
    152 H152      -49.7989  -26.2857    5.6018 H         1 UNK         0.3098 
    153 H153      -47.6389  -26.0532    4.2424 H         1 UNK         0.0720 
    154 H154      -45.8329  -27.5653    3.4593 H         1 UNK         0.0791 
    155 H155      -45.9728  -28.5308    4.9297 H         1 UNK         0.0791 
    156 H156      -45.4196  -26.8642    5.0136 H         1 UNK         0.0791 
    157 H157      -48.0889  -28.8563    3.7139 H         1 UNK         0.3028 
@<TRIPOS>BOND
     1    1    2 1    
     2    1   82 1    
     3    1   83 1    
     4    1   84 1    
     5    2    3 2    
     6    2    4 am   BACKBONE|DICT|INTERRES
     7    4    5 1    
     8    4   85 1    
     9    5    6 1    
    10    5   80 1    
    11    5   86 1    
    12    6    7 1    
    13    6   87 1    
    14    6   88 1    
    15    7    8 1    
    16    8    9 1    
    17    8   89 1    
    18    8   90 1    
    19    9   10 ar   
    20    9   14 ar   
    21   10   11 ar   
    22   10   91 1    
    23   11   12 ar   
    24   11   58 1    
    25   12   13 ar   
    26   12   92 1    
    27   13   14 ar   
    28   13   15 1    
    29   14   93 1    
    30   15   16 1    
    31   15   94 1    
    32   15   95 1    
    33   16   17 1    
    34   17   18 1    
    35   17   96 1    
    36   17   97 1    
    37   18   19 1    
    38   18   22 1    
    39   18   98 1    
    40   19   20 am   BACKBONE|DICT|INTERRES
    41   19   21 2    
    42   20   99 1    
    43   20  100 1    
    44   22   23 am   BACKBONE|DICT|INTERRES
    45   22  101 1    
    46   23   24 2    
    47   23   25 1    
    48   25   26 1    
    49   25   27 1    
    50   25  102 1    
    51   26  103 1    
    52   26  104 1    
    53   26  105 1    
    54   27   28 am   BACKBONE|DICT|INTERRES
    55   27  106 1    
    56   28   29 2    
    57   28   30 1    
    58   30   31 1    
    59   30   32 1    
    60   30  107 1    
    61   31  108 1    
    62   31  109 1    
    63   31  110 1    
    64   32   33 am   BACKBONE|DICT|INTERRES
    65   32  111 1    
    66   33   34 2    
    67   33   35 1    
    68   35   36 1    
    69   35   37 1    
    70   35  112 1    
    71   36  113 1    
    72   36  114 1    
    73   36  115 1    
    74   37   38 am   BACKBONE|DICT|INTERRES
    75   37  116 1    
    76   38   39 2    
    77   38   40 1    
    78   40   41 1    
    79   40   42 1    
    80   40  117 1    
    81   41  118 1    
    82   41  119 1    
    83   41  120 1    
    84   42   43 am   BACKBONE|DICT|INTERRES
    85   42  121 1    
    86   43   44 2    
    87   43   45 1    
    88   45   46 1    
    89   45   47 1    
    90   45  122 1    
    91   46  123 1    
    92   46  124 1    
    93   46  125 1    
    94   47   48 am   BACKBONE|DICT|INTERRES
    95   47  126 1    
    96   48   49 2    
    97   48   50 1    
    98   50   51 1    
    99   50   52 1    
   100   50  127 1    
   101   51  128 1    
   102   51  129 1    
   103   51  130 1    
   104   52   53 am   BACKBONE|DICT|INTERRES
   105   52  131 1    
   106   53   54 2    
   107   53   55 1    
   108   55   56 1    
   109   55   59 1    
   110   55  132 1    
   111   56   57 1    
   112   56  133 1    
   113   56  134 1    
   114   57   58 1    
   115   58  135 1    
   116   58  136 1    
   117   59   60 am   BACKBONE|DICT|INTERRES
   118   59  137 1    
   119   60   61 2    
   120   60   62 1    
   121   62   63 1    
   122   62   64 1    
   123   62  138 1    
   124   63  139 1    
   125   63  140 1    
   126   63  141 1    
   127   64   65 am   BACKBONE|DICT|INTERRES
   128   64  142 1    
   129   65   66 2    
   130   65   67 1    
   131   67   68 1    
   132   67   69 1    
   133   67  143 1    
   134   68  144 1    
   135   68  145 1    
   136   68  146 1    
   137   69   70 am   BACKBONE|DICT|INTERRES
   138   69  147 1    
   139   70   71 2    
   140   70   72 1    
   141   72   73 1    
   142   72   74 1    
   143   72  148 1    
   144   73  149 1    
   145   73  150 1    
   146   73  151 1    
   147   74   75 am   BACKBONE|DICT|INTERRES
   148   74  152 1    
   149   75   76 2    
   150   75   77 1    
   151   77   78 1    
   152   77   79 1    
   153   77  153 1    
   154   78  154 1    
   155   78  155 1    
   156   78  156 1    
   157   79   80 am   BACKBONE|DICT|INTERRES
   158   79  157 1    
   159   80   81 2    
@<TRIPOS>SUBSTRUCTURE
     1 UNK         1 GROUP             0       ****    0 ROOT    
