@<TRIPOS>MOLECULE
3R207
157   159    1
SMALL
USER_CHARGES


@<TRIPOS>ATOM
      1 CA        -48.1870  -30.0431   11.3866 C.3       0 UNK        -0.1975 
      2 C         -48.6494  -30.4222    9.9874 C.2       0 UNK         0.4852 
      3 O         -48.3354  -31.5156    9.5157 O.2       0 UNK        -0.5216 
      4 N         -49.3876  -29.5249    9.3175 N.am      1 UNK        -0.4461 
      5 CA        -49.8740  -29.7082    7.9442 C.3       1 UNK         0.0864 
      6 C6        -51.0513  -28.7556    7.6154 C.3       14 UNK        -0.0898 
      7 S7        -50.6233  -26.9778    7.6707 S.3       14 UNK        -0.2598 
      8 C8        -51.9025  -26.2385    6.5997 C.3       14 UNK         0.0286 
      9 C9        -53.0892  -25.7189    7.4021 C.ar      14 UNK        -0.0844 
     10 C10       -53.3749  -24.3500    7.4416 C.ar      14 UNK        -0.0881 
     11 C11       -54.4574  -23.8643    8.1877 C.ar      14 UNK        -0.0643 
     12 C12       -55.2482  -24.7689    8.9057 C.ar      14 UNK        -0.0930 
     13 C13       -54.9845  -26.1419    8.8604 C.ar      14 UNK        -0.0827 
     14 C14       -53.9166  -26.6085    8.0907 C.ar      14 UNK        -0.1249 
     15 C15       -55.8687  -27.1230    9.6199 C.3       14 UNK         0.0141 
     16 S16       -55.2937  -27.3802   11.3294 S.3       14 UNK        -0.2313 
     17 C17       -53.8452  -28.4677   11.0956 C.3       14 UNK        -0.0915 
     18 CA        -53.9661  -29.8237   11.8364 C.3       13 UNK         0.0968 
     19 C         -52.7482  -30.7299   11.5187 C.2       13 UNK         0.5732 
     20 N         -52.7953  -31.4618   10.4137 N.am      13 UNK        -0.7310 
     21 O         -51.7472  -30.7470   12.2315 O.2       13 UNK        -0.5035 
     22 N         -54.1297  -29.6404   13.2847 N.am      13 UNK        -0.4233 
     23 C         -54.9190  -30.3947   14.0590 C.2       13 UNK         0.4989 
     24 O         -55.5976  -31.3320   13.6332 O.2       13 UNK        -0.4996 
     25 CA        -54.9920  -30.0166   15.5523 C.3       12 UNK         0.0216 
     26 CB        -55.7015  -31.0798   16.4193 C.3       12 UNK        -0.1964 
     27 N         -53.6920  -29.6496   16.1225 N.am      12 UNK        -0.4276 
     28 C         -52.6059  -30.4275   16.2634 C.2       12 UNK         0.5020 
     29 O         -52.5789  -31.6240   15.9718 O.2       12 UNK        -0.5489 
     30 CA        -51.3280  -29.7677   16.8223 C.3       11 UNK         0.0294 
     31 CB        -50.1121  -30.0795   15.9299 C.3       11 UNK        -0.2019 
     32 N         -51.4678  -28.3134   16.9287 N.am      11 UNK        -0.4493 
     33 C         -51.7267  -27.6309   18.0531 C.2       11 UNK         0.4932 
     34 O         -51.7959  -28.1505   19.1667 O.2       11 UNK        -0.5029 
     35 CA        -51.9758  -26.1140   17.9183 C.3       10 UNK         0.0280 
     36 CB        -50.7050  -25.3297   18.2804 C.3       10 UNK        -0.1976 
     37 N         -52.4304  -25.7076   16.5837 N.am      10 UNK        -0.4242 
     38 C         -53.6058  -26.0616   16.0374 C.2       10 UNK         0.5072 
     39 O         -54.4645  -26.7091   16.6361 O.2       10 UNK        -0.5224 
     40 CA        -53.8295  -25.7265   14.5495 C.3       9 UNK         0.0343 
     41 CB        -54.5901  -24.4016   14.3990 C.3       9 UNK        -0.2003 
     42 N         -52.5859  -25.6770   13.7727 N.am      9 UNK        -0.4272 
     43 C         -51.7277  -26.7041   13.6610 C.2       9 UNK         0.4988 
     44 O         -51.9792  -27.8256   14.0988 O.2       9 UNK        -0.5108 
     45 CA        -50.3509  -26.4630   13.0141 C.3       8 UNK         0.0248 
     46 CB        -50.2760  -27.1602   11.6492 C.3       8 UNK        -0.2001 
     47 N         -49.9910  -25.0538   12.8525 N.am      8 UNK        -0.4140 
     48 C         -49.8641  -24.1551   13.8428 C.2       8 UNK         0.5028 
     49 O         -49.9546  -24.4410   15.0377 O.2       8 UNK        -0.5428 
     50 CA        -49.6956  -22.6781   13.4309 C.3       7 UNK         0.0264 
     51 CB        -48.2139  -22.2756   13.4726 C.3       7 UNK        -0.1988 
     52 N         -50.2494  -22.3855   12.1021 N.am      7 UNK        -0.4454 
     53 C         -51.5380  -22.5607   11.7629 C.2       7 UNK         0.5027 
     54 O         -52.4134  -22.8283   12.5861 O.2       7 UNK        -0.5083 
     55 CA        -51.9206  -22.5140   10.2670 C.3       6 UNK         0.0844 
     56 C56       -52.8857  -21.3392    9.9785 C.3       14 UNK        -0.0967 
     57 S57       -53.3968  -21.2431    8.2285 S.3       14 UNK        -0.2604 
     58 C58       -54.8254  -22.3799    8.1847 C.3       14 UNK         0.0134 
     59 N         -50.7873  -22.5561    9.3329 N.am      6 UNK        -0.4116 
     60 C         -49.9150  -23.5651    9.2116 C.2       5 UNK         0.5034 
     61 O         -49.8871  -24.5272    9.9802 O.2       5 UNK        -0.5045 
     62 CA        -48.8969  -23.4938    8.0558 C.3       5 UNK         0.0224 
     63 CB        -48.7625  -22.0957    7.4101 C.3       5 UNK        -0.1978 
     64 N         -47.5827  -24.0067    8.4552 N.am      5 UNK        -0.4737 
     65 C         -46.8121  -23.5587    9.4596 C.2       4 UNK         0.5027 
     66 O         -47.0947  -22.5866   10.1613 O.2       4 UNK        -0.5211 
     67 CA        -45.5064  -24.3277    9.7443 C.3       4 UNK         0.0297 
     68 CB        -45.7168  -25.3002   10.9173 C.3       4 UNK        -0.1993 
     69 N         -44.9993  -25.0735    8.5881 N.am      4 UNK        -0.4486 
     70 C         -44.5469  -24.5193    7.4543 C.2       3 UNK         0.4961 
     71 O         -44.3860  -23.3073    7.3064 O.2       3 UNK        -0.5105 
     72 CA        -44.2335  -25.4611    6.2731 C.3       3 UNK         0.0299 
     73 CB        -42.7126  -25.6115    6.1019 C.3       3 UNK        -0.1972 
     74 N         -44.8389  -26.8001    6.3338 N.am      3 UNK        -0.4305 
     75 C         -46.1462  -27.0866    6.4264 C.2       2 UNK         0.5006 
     76 O         -47.0219  -26.2315    6.5745 O.2       2 UNK        -0.5106 
     77 CA        -46.5423  -28.5716    6.3559 C.3       2 UNK         0.0296 
     78 CB        -45.4286  -29.5432    6.8034 C.3       2 UNK        -0.2002 
     79 N         -47.7329  -28.7874    7.1723 N.am      2 UNK        -0.4032 
     80 C         -48.7367  -29.6309    6.8998 C.2       1 UNK         0.5000 
     81 O         -48.7820  -30.3464    5.8967 O.2       1 UNK        -0.5238 
     82 H82       -47.8867  -28.9973   11.4359 H         1 UNK         0.0889 
     83 H83       -47.3294  -30.6474   11.6817 H         1 UNK         0.0889 
     84 H84       -48.9853  -30.2141   12.1087 H         1 UNK         0.0889 
     85 H85       -49.6310  -28.6445    9.7475 H         1 UNK         0.3028 
     86 H86       -50.2700  -30.7246    7.8833 H         1 UNK         0.0864 
     87 H87       -51.8604  -28.9343    8.3237 H         1 UNK         0.0720 
     88 H88       -51.4565  -29.0000    6.6320 H         1 UNK         0.0720 
     89 H89       -52.2471  -26.9583    5.8566 H         1 UNK         0.0814 
     90 H90       -51.4417  -25.4252    6.0373 H         1 UNK         0.0814 
     91 H91       -52.7578  -23.6600    6.8834 H         1 UNK         0.1469 
     92 H92       -56.0860  -24.4078    9.4865 H         1 UNK         0.1381 
     93 H93       -53.7224  -27.6681    8.0290 H         1 UNK         0.1206 
     94 H94       -56.8917  -26.7452    9.6503 H         1 UNK         0.0813 
     95 H95       -55.9179  -28.0805    9.0991 H         1 UNK         0.0813 
     96 H96       -53.7015  -28.6477   10.0317 H         1 UNK         0.0638 
     97 H97       -52.9646  -27.9238   11.4267 H         1 UNK         0.0638 
     98 H98       -54.8536  -30.3234   11.4431 H         1 UNK         0.0568 
     99 H99       -52.0089  -32.0494   10.1883 H         1 UNK         0.3450 
    100 H100      -53.6072  -31.4595    9.8170 H         1 UNK         0.3450 
    101 H101      -53.5054  -28.9617   13.7096 H         1 UNK         0.2987 
    102 H102      -55.5990  -29.1110   15.5947 H         1 UNK         0.0766 
    103 H103      -56.7245  -31.2428   16.0778 H         1 UNK         0.0798 
    104 H104      -55.1908  -32.0424   16.3815 H         1 UNK         0.0798 
    105 H105      -55.7559  -30.7690   17.4625 H         1 UNK         0.0798 
    106 H106      -53.6148  -28.6804   16.4075 H         1 UNK         0.3198 
    107 H107      -51.1468  -30.2006   17.8083 H         1 UNK         0.0843 
    108 H108      -49.9188  -31.1523   15.8932 H         1 UNK         0.0831 
    109 H109      -49.2079  -29.6017   16.3070 H         1 UNK         0.0831 
    110 H110      -50.2675  -29.7450   14.9032 H         1 UNK         0.0831 
    111 H111      -51.4721  -27.8213   16.0414 H         1 UNK         0.3133 
    112 H112      -52.7572  -25.8453   18.6321 H         1 UNK         0.0566 
    113 H113      -50.8786  -24.2539   18.2494 H         1 UNK         0.0814 
    114 H114      -50.3684  -25.5744   19.2888 H         1 UNK         0.0814 
    115 H115      -49.8838  -25.5558   17.5987 H         1 UNK         0.0814 
    116 H116      -51.7618  -25.1965   16.0162 H         1 UNK         0.3091 
    117 H117      -54.4469  -26.5220   14.1281 H         1 UNK         0.0702 
    118 H118      -54.8269  -24.1996   13.3539 H         1 UNK         0.0785 
    119 H119      -54.0123  -23.5589   14.7809 H         1 UNK         0.0785 
    120 H120      -55.5338  -24.4278   14.9456 H         1 UNK         0.0785 
    121 H121      -52.3403  -24.7778   13.3730 H         1 UNK         0.2998 
    122 H122      -49.6065  -26.9163   13.6715 H         1 UNK         0.0697 
    123 H123      -50.9961  -26.7421   10.9441 H         1 UNK         0.0825 
    124 H124      -50.4918  -28.2246   11.7467 H         1 UNK         0.0825 
    125 H125      -49.2850  -27.0543   11.2089 H         1 UNK         0.0825 
    126 H126      -49.9097  -24.7314   11.8905 H         1 UNK         0.3029 
    127 H127      -50.2395  -22.0717   14.1583 H         1 UNK         0.0897 
    128 H128      -48.0778  -21.2247   13.2168 H         1 UNK         0.0792 
    129 H129      -47.7994  -22.4226   14.4710 H         1 UNK         0.0792 
    130 H130      -47.6153  -22.8703   12.7821 H         1 UNK         0.0792 
    131 H131      -49.5823  -22.1934   11.3668 H         1 UNK         0.3086 
    132 H132      -52.4769  -23.4375   10.0968 H         1 UNK         0.0583 
    133 H133      -53.7782  -21.4119   10.6037 H         1 UNK         0.1020 
    134 H134      -52.4140  -20.3900   10.2401 H         1 UNK         0.1020 
    135 H135      -55.4904  -22.1439    9.0170 H         1 UNK         0.0694 
    136 H136      -55.3928  -22.1775    7.2756 H         1 UNK         0.0694 
    137 H137      -50.7382  -21.7944    8.6725 H         1 UNK         0.2989 
    138 H138      -49.2658  -24.1801    7.2920 H         1 UNK         0.1055 
    139 H139      -48.0070  -22.1019    6.6242 H         1 UNK         0.0806 
    140 H140      -48.4731  -21.3350    8.1363 H         1 UNK         0.0806 
    141 H141      -49.6964  -21.7783    6.9446 H         1 UNK         0.0806 
    142 H142      -47.2701  -24.8233    7.9370 H         1 UNK         0.3061 
    143 H143      -44.7494  -23.5954   10.0328 H         1 UNK         0.0734 
    144 H144      -46.0581  -24.7685   11.8068 H         1 UNK         0.0832 
    145 H145      -46.4680  -26.0566   10.6856 H         1 UNK         0.0832 
    146 H146      -44.7915  -25.8115   11.1834 H         1 UNK         0.0832 
    147 H147      -45.0832  -26.0783    8.6200 H         1 UNK         0.3156 
    148 H148      -44.6277  -24.9773    5.3772 H         1 UNK         0.0589 
    149 H149      -42.2602  -26.1252    6.9512 H         1 UNK         0.0808 
    150 H150      -42.4659  -26.1703    5.1989 H         1 UNK         0.0808 
    151 H151      -42.2290  -24.6371    6.0164 H         1 UNK         0.0808 
    152 H152      -44.1995  -27.5758    6.2359 H         1 UNK         0.3098 
    153 H153      -46.7835  -28.7739    5.3104 H         1 UNK         0.0720 
    154 H154      -45.7819  -30.5747    6.7921 H         1 UNK         0.0791 
    155 H155      -45.0846  -29.3267    7.8158 H         1 UNK         0.0791 
    156 H156      -44.5660  -29.5030    6.1375 H         1 UNK         0.0791 
    157 H157      -47.8348  -28.1709    7.9660 H         1 UNK         0.3028 
@<TRIPOS>BOND
     1    1    2 1    
     2    1   82 1    
     3    1   83 1    
     4    1   84 1    
     5    2    3 2    
     6    2    4 am   BACKBONE|DICT|INTERRES
     7    4    5 1    
     8    4   85 1    
     9    5    6 1    
    10    5   80 1    
    11    5   86 1    
    12    6    7 1    
    13    6   87 1    
    14    6   88 1    
    15    7    8 1    
    16    8    9 1    
    17    8   89 1    
    18    8   90 1    
    19    9   10 ar   
    20    9   14 ar   
    21   10   11 ar   
    22   10   91 1    
    23   11   12 ar   
    24   11   58 1    
    25   12   13 ar   
    26   12   92 1    
    27   13   14 ar   
    28   13   15 1    
    29   14   93 1    
    30   15   16 1    
    31   15   94 1    
    32   15   95 1    
    33   16   17 1    
    34   17   18 1    
    35   17   96 1    
    36   17   97 1    
    37   18   19 1    
    38   18   22 1    
    39   18   98 1    
    40   19   20 am   BACKBONE|DICT|INTERRES
    41   19   21 2    
    42   20   99 1    
    43   20  100 1    
    44   22   23 am   BACKBONE|DICT|INTERRES
    45   22  101 1    
    46   23   24 2    
    47   23   25 1    
    48   25   26 1    
    49   25   27 1    
    50   25  102 1    
    51   26  103 1    
    52   26  104 1    
    53   26  105 1    
    54   27   28 am   BACKBONE|DICT|INTERRES
    55   27  106 1    
    56   28   29 2    
    57   28   30 1    
    58   30   31 1    
    59   30   32 1    
    60   30  107 1    
    61   31  108 1    
    62   31  109 1    
    63   31  110 1    
    64   32   33 am   BACKBONE|DICT|INTERRES
    65   32  111 1    
    66   33   34 2    
    67   33   35 1    
    68   35   36 1    
    69   35   37 1    
    70   35  112 1    
    71   36  113 1    
    72   36  114 1    
    73   36  115 1    
    74   37   38 am   BACKBONE|DICT|INTERRES
    75   37  116 1    
    76   38   39 2    
    77   38   40 1    
    78   40   41 1    
    79   40   42 1    
    80   40  117 1    
    81   41  118 1    
    82   41  119 1    
    83   41  120 1    
    84   42   43 am   BACKBONE|DICT|INTERRES
    85   42  121 1    
    86   43   44 2    
    87   43   45 1    
    88   45   46 1    
    89   45   47 1    
    90   45  122 1    
    91   46  123 1    
    92   46  124 1    
    93   46  125 1    
    94   47   48 am   BACKBONE|DICT|INTERRES
    95   47  126 1    
    96   48   49 2    
    97   48   50 1    
    98   50   51 1    
    99   50   52 1    
   100   50  127 1    
   101   51  128 1    
   102   51  129 1    
   103   51  130 1    
   104   52   53 am   BACKBONE|DICT|INTERRES
   105   52  131 1    
   106   53   54 2    
   107   53   55 1    
   108   55   56 1    
   109   55   59 1    
   110   55  132 1    
   111   56   57 1    
   112   56  133 1    
   113   56  134 1    
   114   57   58 1    
   115   58  135 1    
   116   58  136 1    
   117   59   60 am   BACKBONE|DICT|INTERRES
   118   59  137 1    
   119   60   61 2    
   120   60   62 1    
   121   62   63 1    
   122   62   64 1    
   123   62  138 1    
   124   63  139 1    
   125   63  140 1    
   126   63  141 1    
   127   64   65 am   BACKBONE|DICT|INTERRES
   128   64  142 1    
   129   65   66 2    
   130   65   67 1    
   131   67   68 1    
   132   67   69 1    
   133   67  143 1    
   134   68  144 1    
   135   68  145 1    
   136   68  146 1    
   137   69   70 am   BACKBONE|DICT|INTERRES
   138   69  147 1    
   139   70   71 2    
   140   70   72 1    
   141   72   73 1    
   142   72   74 1    
   143   72  148 1    
   144   73  149 1    
   145   73  150 1    
   146   73  151 1    
   147   74   75 am   BACKBONE|DICT|INTERRES
   148   74  152 1    
   149   75   76 2    
   150   75   77 1    
   151   77   78 1    
   152   77   79 1    
   153   77  153 1    
   154   78  154 1    
   155   78  155 1    
   156   78  156 1    
   157   79   80 am   BACKBONE|DICT|INTERRES
   158   79  157 1    
   159   80   81 2    
@<TRIPOS>SUBSTRUCTURE
     1 UNK         1 GROUP             0       ****    0 ROOT    
