@<TRIPOS>MOLECULE
3R207
157   159    1
SMALL
USER_CHARGES


@<TRIPOS>ATOM
      1 CA        -45.8438  -31.7523    8.6406 C.3       0 UNK        -0.1975 
      2 C         -46.6091  -31.0994    7.4992 C.2       0 UNK         0.4852 
      3 O         -46.3079  -31.3565    6.3333 O.2       0 UNK        -0.5216 
      4 N         -47.5950  -30.2534    7.8275 N.am      1 UNK        -0.4461 
      5 CA        -48.4581  -29.5461    6.8695 C.3       1 UNK         0.0864 
      6 C6        -49.6765  -28.8897    7.5653 C.3       14 UNK        -0.0898 
      7 S7        -50.6461  -30.0152    8.6252 S.3       14 UNK        -0.2598 
      8 C8        -51.1938  -28.8813    9.9463 C.3       14 UNK         0.0286 
      9 C9        -52.3431  -27.9834    9.5038 C.ar      14 UNK        -0.0844 
     10 C10       -52.1096  -26.8959    8.6568 C.ar      14 UNK        -0.0881 
     11 C11       -53.1502  -26.0452    8.2782 C.ar      14 UNK        -0.0643 
     12 C12       -54.4399  -26.2833    8.7624 C.ar      14 UNK        -0.0930 
     13 C13       -54.6908  -27.3688    9.6080 C.ar      14 UNK        -0.0827 
     14 C14       -53.6405  -28.2186    9.9694 C.ar      14 UNK        -0.1249 
     15 C15       -56.0960  -27.6279   10.1282 C.3       14 UNK         0.0141 
     16 S16       -56.2753  -27.0708   11.8511 S.3       14 UNK        -0.2313 
     17 C17       -58.0658  -27.3145   12.1187 C.3       14 UNK        -0.0915 
     18 CA        -58.4355  -28.6319   12.8526 C.3       13 UNK         0.0968 
     19 C         -58.3004  -29.8822   11.9334 C.2       13 UNK         0.5732 
     20 N         -57.4886  -30.8770   12.2714 N.am      13 UNK        -0.7310 
     21 O         -58.9552  -29.9537   10.8962 O.2       13 UNK        -0.5035 
     22 N         -57.7611  -28.7386   14.1560 N.am      13 UNK        -0.4233 
     23 C         -58.1873  -29.4792   15.1851 C.2       13 UNK         0.4989 
     24 O         -59.2387  -30.1222   15.1750 O.2       13 UNK        -0.4996 
     25 CA        -57.2601  -29.5328   16.4153 C.3       12 UNK         0.0216 
     26 CB        -57.8988  -30.2685   17.6090 C.3       12 UNK        -0.1964 
     27 N         -55.9823  -30.1736   16.0897 N.am      12 UNK        -0.4276 
     28 C         -54.9691  -29.5788   15.4493 C.2       12 UNK         0.5020 
     29 O         -54.9982  -28.4030   15.0761 O.2       12 UNK        -0.5489 
     30 CA        -53.7500  -30.4548   15.1387 C.3       11 UNK         0.0294 
     31 CB        -54.0124  -31.3367   13.9052 C.3       11 UNK        -0.2019 
     32 N         -52.6090  -29.5895   14.8660 N.am      11 UNK        -0.4493 
     33 C         -51.3611  -29.7534   15.3094 C.2       11 UNK         0.4932 
     34 O         -51.0018  -30.7226   15.9792 O.2       11 UNK        -0.5029 
     35 CA        -50.3273  -28.6585   14.9761 C.3       10 UNK         0.0280 
     36 CB        -49.5506  -29.0043   13.6911 C.3       10 UNK        -0.1976 
     37 N         -50.8453  -27.2824   14.9246 N.am      10 UNK        -0.4242 
     38 C         -51.7217  -26.7254   14.0760 C.2       10 UNK         0.5072 
     39 O         -52.3109  -27.3485   13.1938 O.2       10 UNK        -0.5224 
     40 CA        -51.9988  -25.2196   14.2399 C.3       9 UNK         0.0343 
     41 CB        -52.9803  -24.9490   15.3968 C.3       9 UNK        -0.2003 
     42 N         -50.7840  -24.3959   14.3351 N.am      9 UNK        -0.4272 
     43 C         -49.8564  -24.3592   15.3043 C.2       9 UNK         0.4988 
     44 O         -49.9579  -24.9877   16.3596 O.2       9 UNK        -0.5108 
     45 CA        -48.5704  -23.5424   15.0561 C.3       8 UNK         0.0248 
     46 CB        -47.3349  -24.4557   15.1397 C.3       8 UNK        -0.2001 
     47 N         -48.5455  -22.8470   13.7666 N.am      8 UNK        -0.4140 
     48 C         -49.1607  -21.6865   13.5044 C.2       8 UNK         0.5028 
     49 O         -49.7690  -21.0271   14.3479 O.2       8 UNK        -0.5428 
     50 CA        -49.1306  -21.2021   12.0426 C.3       7 UNK         0.0264 
     51 CB        -47.8474  -20.4057   11.7578 C.3       7 UNK        -0.1988 
     52 N         -49.2635  -22.2903   11.0662 N.am      7 UNK        -0.4454 
     53 C         -50.3284  -23.1022   10.9717 C.2       7 UNK         0.5027 
     54 O         -51.3222  -23.0000   11.6913 O.2       7 UNK        -0.5083 
     55 CA        -50.2508  -24.2556    9.9491 C.3       6 UNK         0.0844 
     56 C56       -50.5354  -23.7802    8.5023 C.3       14 UNK        -0.0967 
     57 S57       -52.2988  -23.3991    8.2139 S.3       14 UNK        -0.2604 
     58 C58       -52.8830  -24.8820    7.3328 C.3       14 UNK         0.0134 
     59 N         -48.9824  -24.9833   10.0443 N.am      6 UNK        -0.4116 
     60 C         -48.5685  -25.6648   11.1226 C.2       5 UNK         0.5034 
     61 O         -49.2500  -25.8440   12.1267 O.2       5 UNK        -0.5045 
     62 CA        -47.1260  -26.1913   11.1053 C.3       5 UNK         0.0224 
     63 CB        -47.0448  -27.5713   10.4336 C.3       5 UNK        -0.1978 
     64 N         -46.2090  -25.2510   10.4555 N.am      5 UNK        -0.4737 
     65 C         -45.8674  -24.0621   10.9740 C.2       4 UNK         0.5027 
     66 O         -46.2463  -23.6651   12.0751 O.2       4 UNK        -0.5211 
     67 CA        -44.9955  -23.1458   10.0987 C.3       4 UNK         0.0297 
     68 CB        -43.5104  -23.5114   10.2472 C.3       4 UNK        -0.1993 
     69 N         -45.3744  -23.1866    8.6836 N.am      4 UNK        -0.4486 
     70 C         -46.5463  -22.7507    8.1984 C.2       3 UNK         0.4961 
     71 O         -47.4158  -22.2176    8.8865 O.2       3 UNK        -0.5105 
     72 CA        -46.8197  -23.0094    6.7049 C.3       3 UNK         0.0299 
     73 CB        -46.2451  -21.8723    5.8460 C.3       3 UNK        -0.1972 
     74 N         -46.3021  -24.3002    6.2317 N.am      3 UNK        -0.4305 
     75 C         -46.6719  -25.4891    6.7270 C.2       2 UNK         0.5006 
     76 O         -47.5065  -25.6171    7.6276 O.2       2 UNK        -0.5106 
     77 CA        -45.9358  -26.7244    6.1769 C.3       2 UNK         0.0296 
     78 CB        -44.4836  -26.7560    6.6855 C.3       2 UNK        -0.2002 
     79 N         -46.6018  -27.9529    6.6079 N.am      2 UNK        -0.4032 
     80 C         -47.7152  -28.4582    6.0599 C.2       1 UNK         0.5000 
     81 O         -48.1879  -28.0693    4.9898 O.2       1 UNK        -0.5238 
     82 H82       -45.9446  -32.8360    8.5875 H         1 UNK         0.0889 
     83 H83       -46.2060  -31.4256    9.6152 H         1 UNK         0.0889 
     84 H84       -44.7848  -31.5048    8.5723 H         1 UNK         0.0889 
     85 H85       -47.8308  -30.1216    8.8005 H         1 UNK         0.3028 
     86 H86       -48.8297  -30.2828    6.1539 H         1 UNK         0.0864 
     87 H87       -49.3372  -28.0490    8.1724 H         1 UNK         0.0720 
     88 H88       -50.3570  -28.4755    6.8185 H         1 UNK         0.0720 
     89 H89       -50.3595  -28.2709   10.2950 H         1 UNK         0.0814 
     90 H90       -51.5026  -29.4802   10.8044 H         1 UNK         0.0814 
     91 H91       -51.1126  -26.6954    8.2981 H         1 UNK         0.1469 
     92 H92       -55.2485  -25.6234    8.4791 H         1 UNK         0.1381 
     93 H93       -53.8326  -29.0501   10.6339 H         1 UNK         0.1206 
     94 H94       -56.8312  -27.1197    9.5024 H         1 UNK         0.0813 
     95 H95       -56.3176  -28.6937   10.0627 H         1 UNK         0.0813 
     96 H96       -58.4163  -26.4694   12.7128 H         1 UNK         0.0638 
     97 H97       -58.5971  -27.2341   11.1686 H         1 UNK         0.0638 
     98 H98       -59.5046  -28.5666   13.0637 H         1 UNK         0.0568 
     99 H99       -56.9580  -30.8325   13.1242 H         1 UNK         0.3450 
    100 H100      -57.4187  -31.6817   11.6693 H         1 UNK         0.3450 
    101 H101      -56.8511  -28.2932   14.2295 H         1 UNK         0.2987 
    102 H102      -57.0724  -28.5022   16.7253 H         1 UNK         0.0766 
    103 H103      -57.2503  -30.2406   18.4849 H         1 UNK         0.0798 
    104 H104      -58.1067  -31.3142   17.3785 H         1 UNK         0.0798 
    105 H105      -58.8436  -29.8033   17.8939 H         1 UNK         0.0798 
    106 H106      -55.8957  -31.1500   16.3354 H         1 UNK         0.3198 
    107 H107      -53.5471  -31.0846   16.0077 H         1 UNK         0.0843 
    108 H108      -54.2488  -30.7366   13.0250 H         1 UNK         0.0831 
    109 H109      -54.8475  -32.0174   14.0743 H         1 UNK         0.0831 
    110 H110      -53.1424  -31.9486   13.6661 H         1 UNK         0.0831 
    111 H111      -52.8198  -28.7498   14.3275 H         1 UNK         0.3133 
    112 H112      -49.6089  -28.6592   15.7972 H         1 UNK         0.0566 
    113 H113      -48.7482  -28.2891   13.5103 H         1 UNK         0.0814 
    114 H114      -49.0966  -29.9935   13.7615 H         1 UNK         0.0814 
    115 H115      -50.1988  -29.0052   12.8157 H         1 UNK         0.0814 
    116 H116      -50.4580  -26.6492   15.6206 H         1 UNK         0.3091 
    117 H117      -52.4898  -24.8985   13.3199 H         1 UNK         0.0702 
    118 H118      -53.9104  -25.4998   15.2472 H         1 UNK         0.0785 
    119 H119      -53.2349  -23.8912   15.4602 H         1 UNK         0.0785 
    120 H120      -52.5774  -25.2571   16.3616 H         1 UNK         0.0785 
    121 H121      -50.5872  -23.8717   13.4906 H         1 UNK         0.2998 
    122 H122      -48.4995  -22.8010   15.8545 H         1 UNK         0.0697 
    123 H123      -47.3681  -25.2424   14.3849 H         1 UNK         0.0825 
    124 H124      -47.2666  -24.9406   16.1144 H         1 UNK         0.0825 
    125 H125      -46.4130  -23.8921   14.9945 H         1 UNK         0.0825 
    126 H126      -48.0031  -23.2842   13.0273 H         1 UNK         0.3029 
    127 H127      -49.9830  -20.5339   11.9029 H         1 UNK         0.0897 
    128 H128      -47.8490  -19.9992   10.7461 H         1 UNK         0.0792 
    129 H129      -46.9558  -21.0231   11.8681 H         1 UNK         0.0792 
    130 H130      -47.7494  -19.5648   12.4456 H         1 UNK         0.0792 
    131 H131      -48.5041  -22.3982   10.3962 H         1 UNK         0.3086 
    132 H132      -51.0271  -24.9685   10.2323 H         1 UNK         0.0583 
    133 H133      -49.9463  -22.8944    8.2589 H         1 UNK         0.1020 
    134 H134      -50.2176  -24.5382    7.7849 H         1 UNK         0.1020 
    135 H135      -53.7987  -24.6256    6.7979 H         1 UNK         0.0694 
    136 H136      -52.1621  -25.1718    6.5669 H         1 UNK         0.0694 
    137 H137      -48.3661  -24.9448    9.2379 H         1 UNK         0.2989 
    138 H138      -46.8090  -26.3056   12.1446 H         1 UNK         0.1055 
    139 H139      -47.6957  -28.2862   10.9390 H         1 UNK         0.0806 
    140 H140      -46.0319  -27.9724   10.4722 H         1 UNK         0.0806 
    141 H141      -47.3531  -27.5320    9.3911 H         1 UNK         0.0806 
    142 H142      -45.9033  -25.4784    9.5213 H         1 UNK         0.3061 
    143 H143      -45.1319  -22.1219   10.4532 H         1 UNK         0.0734 
    144 H144      -42.8738  -22.8178    9.6976 H         1 UNK         0.0832 
    145 H145      -43.2032  -23.4699   11.2933 H         1 UNK         0.0832 
    146 H146      -43.3009  -24.5193    9.8866 H         1 UNK         0.0832 
    147 H147      -44.7153  -23.6026    8.0423 H         1 UNK         0.3156 
    148 H148      -47.9032  -23.0221    6.5692 H         1 UNK         0.0589 
    149 H149      -45.1573  -21.8244    5.9097 H         1 UNK         0.0808 
    150 H150      -46.5160  -21.9912    4.7967 H         1 UNK         0.0808 
    151 H151      -46.6331  -20.9055    6.1703 H         1 UNK         0.0808 
    152 H152      -45.6114  -24.2714    5.4949 H         1 UNK         0.3098 
    153 H153      -45.9349  -26.6764    5.0859 H         1 UNK         0.0720 
    154 H154      -43.9573  -27.6373    6.3178 H         1 UNK         0.0791 
    155 H155      -44.4337  -26.7698    7.7752 H         1 UNK         0.0791 
    156 H156      -43.9225  -25.8857    6.3432 H         1 UNK         0.0791 
    157 H157      -46.3035  -28.3388    7.4902 H         1 UNK         0.3028 
@<TRIPOS>BOND
     1    1    2 1    
     2    1   82 1    
     3    1   83 1    
     4    1   84 1    
     5    2    3 2    
     6    2    4 am   BACKBONE|DICT|INTERRES
     7    4    5 1    
     8    4   85 1    
     9    5    6 1    
    10    5   80 1    
    11    5   86 1    
    12    6    7 1    
    13    6   87 1    
    14    6   88 1    
    15    7    8 1    
    16    8    9 1    
    17    8   89 1    
    18    8   90 1    
    19    9   10 ar   
    20    9   14 ar   
    21   10   11 ar   
    22   10   91 1    
    23   11   12 ar   
    24   11   58 1    
    25   12   13 ar   
    26   12   92 1    
    27   13   14 ar   
    28   13   15 1    
    29   14   93 1    
    30   15   16 1    
    31   15   94 1    
    32   15   95 1    
    33   16   17 1    
    34   17   18 1    
    35   17   96 1    
    36   17   97 1    
    37   18   19 1    
    38   18   22 1    
    39   18   98 1    
    40   19   20 am   BACKBONE|DICT|INTERRES
    41   19   21 2    
    42   20   99 1    
    43   20  100 1    
    44   22   23 am   BACKBONE|DICT|INTERRES
    45   22  101 1    
    46   23   24 2    
    47   23   25 1    
    48   25   26 1    
    49   25   27 1    
    50   25  102 1    
    51   26  103 1    
    52   26  104 1    
    53   26  105 1    
    54   27   28 am   BACKBONE|DICT|INTERRES
    55   27  106 1    
    56   28   29 2    
    57   28   30 1    
    58   30   31 1    
    59   30   32 1    
    60   30  107 1    
    61   31  108 1    
    62   31  109 1    
    63   31  110 1    
    64   32   33 am   BACKBONE|DICT|INTERRES
    65   32  111 1    
    66   33   34 2    
    67   33   35 1    
    68   35   36 1    
    69   35   37 1    
    70   35  112 1    
    71   36  113 1    
    72   36  114 1    
    73   36  115 1    
    74   37   38 am   BACKBONE|DICT|INTERRES
    75   37  116 1    
    76   38   39 2    
    77   38   40 1    
    78   40   41 1    
    79   40   42 1    
    80   40  117 1    
    81   41  118 1    
    82   41  119 1    
    83   41  120 1    
    84   42   43 am   BACKBONE|DICT|INTERRES
    85   42  121 1    
    86   43   44 2    
    87   43   45 1    
    88   45   46 1    
    89   45   47 1    
    90   45  122 1    
    91   46  123 1    
    92   46  124 1    
    93   46  125 1    
    94   47   48 am   BACKBONE|DICT|INTERRES
    95   47  126 1    
    96   48   49 2    
    97   48   50 1    
    98   50   51 1    
    99   50   52 1    
   100   50  127 1    
   101   51  128 1    
   102   51  129 1    
   103   51  130 1    
   104   52   53 am   BACKBONE|DICT|INTERRES
   105   52  131 1    
   106   53   54 2    
   107   53   55 1    
   108   55   56 1    
   109   55   59 1    
   110   55  132 1    
   111   56   57 1    
   112   56  133 1    
   113   56  134 1    
   114   57   58 1    
   115   58  135 1    
   116   58  136 1    
   117   59   60 am   BACKBONE|DICT|INTERRES
   118   59  137 1    
   119   60   61 2    
   120   60   62 1    
   121   62   63 1    
   122   62   64 1    
   123   62  138 1    
   124   63  139 1    
   125   63  140 1    
   126   63  141 1    
   127   64   65 am   BACKBONE|DICT|INTERRES
   128   64  142 1    
   129   65   66 2    
   130   65   67 1    
   131   67   68 1    
   132   67   69 1    
   133   67  143 1    
   134   68  144 1    
   135   68  145 1    
   136   68  146 1    
   137   69   70 am   BACKBONE|DICT|INTERRES
   138   69  147 1    
   139   70   71 2    
   140   70   72 1    
   141   72   73 1    
   142   72   74 1    
   143   72  148 1    
   144   73  149 1    
   145   73  150 1    
   146   73  151 1    
   147   74   75 am   BACKBONE|DICT|INTERRES
   148   74  152 1    
   149   75   76 2    
   150   75   77 1    
   151   77   78 1    
   152   77   79 1    
   153   77  153 1    
   154   78  154 1    
   155   78  155 1    
   156   78  156 1    
   157   79   80 am   BACKBONE|DICT|INTERRES
   158   79  157 1    
   159   80   81 2    
@<TRIPOS>SUBSTRUCTURE
     1 UNK         1 GROUP             0       ****    0 ROOT    
