@<TRIPOS>MOLECULE
3R207
157   159    1
SMALL
USER_CHARGES


@<TRIPOS>ATOM
      1 CA        -46.9332  -32.2253    5.7499 C.3       0 UNK        -0.1975 
      2 C         -47.8752  -31.0364    5.6297 C.2       0 UNK         0.4852 
      3 O         -48.2015  -30.6266    4.5152 O.2       0 UNK        -0.5216 
      4 N         -48.3153  -30.4852    6.7692 N.am      1 UNK        -0.4461 
      5 CA        -49.2215  -29.3328    6.8581 C.3       1 UNK         0.0864 
      6 C6        -49.7392  -29.1305    8.3036 C.3       14 UNK        -0.0898 
      7 S7        -50.9206  -30.4260    8.8157 S.3       14 UNK        -0.2598 
      8 C8        -52.4981  -29.8489    8.0962 C.3       14 UNK         0.0286 
      9 C9        -52.9278  -28.4971    8.6473 C.ar      14 UNK        -0.0844 
     10 C10       -52.6160  -27.3281    7.9495 C.ar      14 UNK        -0.0881 
     11 C11       -52.9264  -26.0753    8.4826 C.ar      14 UNK        -0.0643 
     12 C12       -53.5957  -25.9940    9.7073 C.ar      14 UNK        -0.0930 
     13 C13       -53.9455  -27.1596   10.3980 C.ar      14 UNK        -0.0827 
     14 C14       -53.6136  -28.4084    9.8614 C.ar      14 UNK        -0.1249 
     15 C15       -54.6368  -27.0745   11.7486 C.3       14 UNK         0.0141 
     16 S16       -56.4362  -27.2502   11.5912 S.3       14 UNK        -0.2313 
     17 C17       -56.9457  -27.0676   13.3366 C.3       14 UNK        -0.0915 
     18 CA        -57.8200  -28.2288   13.8824 C.3       13 UNK         0.0968 
     19 C         -59.2070  -28.3126   13.1788 C.2       13 UNK         0.5732 
     20 N         -60.1078  -27.3862   13.4797 N.am      13 UNK        -0.7310 
     21 O         -59.4687  -29.1857   12.3522 O.2       13 UNK        -0.5035 
     22 N         -57.0886  -29.5049   13.9162 N.am      13 UNK        -0.4233 
     23 C         -57.5027  -30.6002   14.5651 C.2       13 UNK         0.4989 
     24 O         -58.5066  -30.6323   15.2788 O.2       13 UNK        -0.4996 
     25 CA        -56.6566  -31.8784   14.4269 C.3       12 UNK         0.0216 
     26 CB        -56.8705  -32.5501   13.0549 C.3       12 UNK        -0.1964 
     27 N         -55.2310  -31.7019   14.7418 N.am      12 UNK        -0.4276 
     28 C         -54.3020  -31.0276   14.0528 C.2       12 UNK         0.5020 
     29 O         -54.5216  -30.4240   12.9981 O.2       12 UNK        -0.5489 
     30 CA        -52.8845  -31.0424   14.6398 C.3       11 UNK         0.0294 
     31 CB        -52.1995  -32.4038   14.4223 C.3       11 UNK        -0.2019 
     32 N         -52.1171  -29.9984   13.9770 N.am      11 UNK        -0.4493 
     33 C         -51.1055  -29.2970   14.4972 C.2       11 UNK         0.4932 
     34 O         -50.6233  -29.5059   15.6115 O.2       11 UNK        -0.5029 
     35 CA        -50.5255  -28.1678   13.6217 C.3       10 UNK         0.0280 
     36 CB        -50.8296  -28.3322   12.1194 C.3       10 UNK        -0.1976 
     37 N         -50.9020  -26.8154   14.0514 N.am      10 UNK        -0.4242 
     38 C         -52.0786  -26.3542   14.5089 C.2       10 UNK         0.5072 
     39 O         -53.0783  -27.0511   14.6855 O.2       10 UNK        -0.5224 
     40 CA        -52.1830  -24.8363   14.7736 C.3       9 UNK         0.0343 
     41 CB        -53.1142  -24.5002   15.9582 C.3       9 UNK        -0.2003 
     42 N         -50.8908  -24.1478   14.8964 N.am      9 UNK        -0.4272 
     43 C         -49.9636  -24.2916   15.8583 C.2       9 UNK         0.4988 
     44 O         -50.1111  -25.0155   16.8434 O.2       9 UNK        -0.5108 
     45 CA        -48.6337  -23.5263   15.6933 C.3       8 UNK         0.0248 
     46 CB        -47.4314  -24.4781   15.8337 C.3       8 UNK        -0.2001 
     47 N         -48.5369  -22.8500   14.3978 N.am      8 UNK        -0.4140 
     48 C         -48.7755  -21.5508   14.1754 C.2       8 UNK         0.5028 
     49 O         -49.0425  -20.7423   15.0651 O.2       8 UNK        -0.5428 
     50 CA        -48.7320  -21.0647   12.7117 C.3       7 UNK         0.0264 
     51 CB        -47.3660  -20.4331   12.3989 C.3       7 UNK        -0.1988 
     52 N         -49.0137  -22.1051   11.7161 N.am      7 UNK        -0.4454 
     53 C         -50.1561  -22.8035   11.6244 C.2       7 UNK         0.5027 
     54 O         -51.1274  -22.6232   12.3586 O.2       7 UNK        -0.5083 
     55 CA        -50.1955  -23.9380   10.5792 C.3       6 UNK         0.0844 
     56 C56       -50.5820  -23.3372    9.2046 C.3       14 UNK        -0.0967 
     57 S57       -50.7144  -24.5517    7.8540 S.3       14 UNK        -0.2604 
     58 C58       -52.5118  -24.8239    7.7274 C.3       14 UNK         0.0134 
     59 N         -48.9485  -24.7234   10.5647 N.am      6 UNK        -0.4116 
     60 C         -48.4019  -25.3196   11.6399 C.2       5 UNK         0.5034 
     61 O         -48.9027  -25.2992   12.7628 O.2       5 UNK        -0.5045 
     62 CA        -47.0376  -25.9975   11.4694 C.3       5 UNK         0.0224 
     63 CB        -47.1804  -27.3999   10.8577 C.3       5 UNK        -0.1978 
     64 N         -46.1485  -25.1690   10.6580 N.am      5 UNK        -0.4737 
     65 C         -45.4754  -24.1103   11.1316 C.2       4 UNK         0.5027 
     66 O         -45.4488  -23.7961   12.3213 O.2       4 UNK        -0.5211 
     67 CA        -44.7224  -23.2386   10.1098 C.3       4 UNK         0.0297 
     68 CB        -43.2665  -23.7109    9.9722 C.3       4 UNK        -0.1993 
     69 N         -45.3532  -23.2192    8.7875 N.am      4 UNK        -0.4486 
     70 C         -46.5589  -22.6956    8.5252 C.2       3 UNK         0.4961 
     71 O         -47.2506  -22.1154    9.3629 O.2       3 UNK        -0.5105 
     72 CA        -47.1082  -22.9044    7.1009 C.3       3 UNK         0.0299 
     73 CB        -46.6672  -21.7531    6.1838 C.3       3 UNK        -0.1972 
     74 N         -46.7446  -24.1906    6.4866 N.am      3 UNK        -0.4305 
     75 C         -46.9935  -25.3968    7.0174 C.2       2 UNK         0.5006 
     76 O         -47.4896  -25.5597    8.1330 O.2       2 UNK        -0.5106 
     77 CA        -46.5455  -26.6208    6.1999 C.3       2 UNK         0.0296 
     78 CB        -45.0464  -26.8840    6.4205 C.3       2 UNK        -0.2002 
     79 N         -47.2926  -27.8285    6.5642 N.am      2 UNK        -0.4032 
     80 C         -48.5952  -28.0299    6.3139 C.2       1 UNK         0.5000 
     81 O         -49.2962  -27.2520    5.6637 O.2       1 UNK        -0.5238 
     82 H82       -46.7340  -32.4853    6.7893 H         1 UNK         0.0889 
     83 H83       -45.9819  -32.0001    5.2684 H         1 UNK         0.0889 
     84 H84       -47.3655  -33.0971    5.2596 H         1 UNK         0.0889 
     85 H85       -48.0379  -30.8899    7.6522 H         1 UNK         0.3028 
     86 H86       -50.0782  -29.5452    6.2152 H         1 UNK         0.0864 
     87 H87       -50.1904  -28.1487    8.4427 H         1 UNK         0.0720 
     88 H88       -48.9049  -29.1552    9.0051 H         1 UNK         0.0720 
     89 H89       -52.4091  -29.8079    7.0097 H         1 UNK         0.0814 
     90 H90       -53.2708  -30.5898    8.3068 H         1 UNK         0.0814 
     91 H91       -52.0836  -27.3870    7.0094 H         1 UNK         0.1469 
     92 H92       -53.8349  -25.0265   10.1267 H         1 UNK         0.1381 
     93 H93       -53.8621  -29.3093   10.4069 H         1 UNK         0.1206 
     94 H94       -54.4059  -26.1244   12.2328 H         1 UNK         0.0813 
     95 H95       -54.2586  -27.8555   12.4083 H         1 UNK         0.0813 
     96 H96       -56.0582  -26.9660   13.9638 H         1 UNK         0.0638 
     97 H97       -57.4750  -26.1182   13.4327 H         1 UNK         0.0638 
     98 H98       -58.0325  -27.9887   14.9261 H         1 UNK         0.0568 
     99 H99       -59.9069  -26.6592   14.1484 H         1 UNK         0.3450 
    100 H100      -61.0085  -27.4161   13.0283 H         1 UNK         0.3450 
    101 H101      -56.2500  -29.5747   13.3470 H         1 UNK         0.2987 
    102 H102      -57.0295  -32.5750   15.1798 H         1 UNK         0.0766 
    103 H103      -56.3264  -33.4920   12.9854 H         1 UNK         0.0798 
    104 H104      -56.5477  -31.9149   12.2296 H         1 UNK         0.0798 
    105 H105      -57.9262  -32.7724   12.8936 H         1 UNK         0.0798 
    106 H106      -54.9382  -32.1359   15.6070 H         1 UNK         0.3198 
    107 H107      -52.9501  -30.8222   15.7077 H         1 UNK         0.0843 
    108 H108      -52.1339  -32.6547   13.3627 H         1 UNK         0.0831 
    109 H109      -52.7483  -33.2069   14.9153 H         1 UNK         0.0831 
    110 H110      -51.1882  -32.4082   14.8295 H         1 UNK         0.0831 
    111 H111      -52.5178  -29.7100   13.0923 H         1 UNK         0.3133 
    112 H112      -49.4422  -28.2251   13.7370 H         1 UNK         0.0566 
    113 H113      -50.3019  -27.5931   11.5182 H         1 UNK         0.0814 
    114 H114      -50.5283  -29.3152   11.7550 H         1 UNK         0.0814 
    115 H115      -51.8896  -28.2112   11.9163 H         1 UNK         0.0814 
    116 H116      -50.1720  -26.1238   13.9028 H         1 UNK         0.3091 
    117 H117      -52.6450  -24.4216   13.8767 H         1 UNK         0.0702 
    118 H118      -52.7701  -24.9560   16.8869 H         1 UNK         0.0785 
    119 H119      -53.1835  -23.4240   16.1159 H         1 UNK         0.0785 
    120 H120      -54.1260  -24.8646   15.7758 H         1 UNK         0.0785 
    121 H121      -50.6784  -23.5263   14.1230 H         1 UNK         0.2998 
    122 H122      -48.5819  -22.7941   16.5014 H         1 UNK         0.0697 
    123 H123      -47.4560  -25.2734   15.0878 H         1 UNK         0.0825 
    124 H124      -47.4172  -24.9525   16.8157 H         1 UNK         0.0825 
    125 H125      -46.4878  -23.9440   15.7202 H         1 UNK         0.0825 
    126 H126      -48.3580  -23.4541   13.6038 H         1 UNK         0.3029 
    127 H127      -49.4991  -20.2948   12.6054 H         1 UNK         0.0897 
    128 H128      -47.3473  -20.0028   11.3972 H         1 UNK         0.0792 
    129 H129      -46.5606  -21.1661   12.4626 H         1 UNK         0.0792 
    130 H130      -47.1348  -19.6305   13.1006 H         1 UNK         0.0792 
    131 H131      -48.2887  -22.2771   11.0231 H         1 UNK         0.3086 
    132 H132      -50.9889  -24.6262   10.8789 H         1 UNK         0.0583 
    133 H133      -51.5242  -22.7915    9.2826 H         1 UNK         0.1020 
    134 H134      -49.8458  -22.5933    8.8970 H         1 UNK         0.1020 
    135 H135      -53.0667  -23.9515    8.0744 H         1 UNK         0.0694 
    136 H136      -52.7695  -24.9437    6.6741 H         1 UNK         0.0694 
    137 H137      -48.4907  -24.8335    9.6641 H         1 UNK         0.2989 
    138 H138      -46.5983  -26.1138   12.4632 H         1 UNK         0.1055 
    139 H139      -47.7691  -28.0478   11.5082 H         1 UNK         0.0806 
    140 H140      -46.2087  -27.8745   10.7222 H         1 UNK         0.0806 
    141 H141      -47.6790  -27.3747    9.8904 H         1 UNK         0.0806 
    142 H142      -46.1986  -25.3120    9.6554 H         1 UNK         0.3061 
    143 H143      -44.7172  -22.2157   10.4928 H         1 UNK         0.0734 
    144 H144      -42.6956  -23.0551    9.3147 H         1 UNK         0.0832 
    145 H145      -42.7647  -23.7111   10.9410 H         1 UNK         0.0832 
    146 H146      -43.2054  -24.7247    9.5743 H         1 UNK         0.0832 
    147 H147      -44.8585  -23.6770    8.0360 H         1 UNK         0.3156 
    148 H148      -48.1968  -22.8812    7.1673 H         1 UNK         0.0589 
    149 H149      -45.5866  -21.7442    6.0355 H         1 UNK         0.0808 
    150 H150      -47.1414  -21.8207    5.2045 H         1 UNK         0.0808 
    151 H151      -46.9456  -20.7876    6.6090 H         1 UNK         0.0808 
    152 H152      -46.3139  -24.1459    5.5739 H         1 UNK         0.3098 
    153 H153      -46.7208  -26.4169    5.1416 H         1 UNK         0.0720 
    154 H154      -44.7030  -27.7360    5.8332 H         1 UNK         0.0791 
    155 H155      -44.8219  -27.0870    7.4688 H         1 UNK         0.0791 
    156 H156      -44.4456  -26.0250    6.1190 H         1 UNK         0.0791 
    157 H157      -46.8005  -28.5179    7.1119 H         1 UNK         0.3028 
@<TRIPOS>BOND
     1    1    2 1    
     2    1   82 1    
     3    1   83 1    
     4    1   84 1    
     5    2    3 2    
     6    2    4 am   BACKBONE|DICT|INTERRES
     7    4    5 1    
     8    4   85 1    
     9    5    6 1    
    10    5   80 1    
    11    5   86 1    
    12    6    7 1    
    13    6   87 1    
    14    6   88 1    
    15    7    8 1    
    16    8    9 1    
    17    8   89 1    
    18    8   90 1    
    19    9   10 ar   
    20    9   14 ar   
    21   10   11 ar   
    22   10   91 1    
    23   11   12 ar   
    24   11   58 1    
    25   12   13 ar   
    26   12   92 1    
    27   13   14 ar   
    28   13   15 1    
    29   14   93 1    
    30   15   16 1    
    31   15   94 1    
    32   15   95 1    
    33   16   17 1    
    34   17   18 1    
    35   17   96 1    
    36   17   97 1    
    37   18   19 1    
    38   18   22 1    
    39   18   98 1    
    40   19   20 am   BACKBONE|DICT|INTERRES
    41   19   21 2    
    42   20   99 1    
    43   20  100 1    
    44   22   23 am   BACKBONE|DICT|INTERRES
    45   22  101 1    
    46   23   24 2    
    47   23   25 1    
    48   25   26 1    
    49   25   27 1    
    50   25  102 1    
    51   26  103 1    
    52   26  104 1    
    53   26  105 1    
    54   27   28 am   BACKBONE|DICT|INTERRES
    55   27  106 1    
    56   28   29 2    
    57   28   30 1    
    58   30   31 1    
    59   30   32 1    
    60   30  107 1    
    61   31  108 1    
    62   31  109 1    
    63   31  110 1    
    64   32   33 am   BACKBONE|DICT|INTERRES
    65   32  111 1    
    66   33   34 2    
    67   33   35 1    
    68   35   36 1    
    69   35   37 1    
    70   35  112 1    
    71   36  113 1    
    72   36  114 1    
    73   36  115 1    
    74   37   38 am   BACKBONE|DICT|INTERRES
    75   37  116 1    
    76   38   39 2    
    77   38   40 1    
    78   40   41 1    
    79   40   42 1    
    80   40  117 1    
    81   41  118 1    
    82   41  119 1    
    83   41  120 1    
    84   42   43 am   BACKBONE|DICT|INTERRES
    85   42  121 1    
    86   43   44 2    
    87   43   45 1    
    88   45   46 1    
    89   45   47 1    
    90   45  122 1    
    91   46  123 1    
    92   46  124 1    
    93   46  125 1    
    94   47   48 am   BACKBONE|DICT|INTERRES
    95   47  126 1    
    96   48   49 2    
    97   48   50 1    
    98   50   51 1    
    99   50   52 1    
   100   50  127 1    
   101   51  128 1    
   102   51  129 1    
   103   51  130 1    
   104   52   53 am   BACKBONE|DICT|INTERRES
   105   52  131 1    
   106   53   54 2    
   107   53   55 1    
   108   55   56 1    
   109   55   59 1    
   110   55  132 1    
   111   56   57 1    
   112   56  133 1    
   113   56  134 1    
   114   57   58 1    
   115   58  135 1    
   116   58  136 1    
   117   59   60 am   BACKBONE|DICT|INTERRES
   118   59  137 1    
   119   60   61 2    
   120   60   62 1    
   121   62   63 1    
   122   62   64 1    
   123   62  138 1    
   124   63  139 1    
   125   63  140 1    
   126   63  141 1    
   127   64   65 am   BACKBONE|DICT|INTERRES
   128   64  142 1    
   129   65   66 2    
   130   65   67 1    
   131   67   68 1    
   132   67   69 1    
   133   67  143 1    
   134   68  144 1    
   135   68  145 1    
   136   68  146 1    
   137   69   70 am   BACKBONE|DICT|INTERRES
   138   69  147 1    
   139   70   71 2    
   140   70   72 1    
   141   72   73 1    
   142   72   74 1    
   143   72  148 1    
   144   73  149 1    
   145   73  150 1    
   146   73  151 1    
   147   74   75 am   BACKBONE|DICT|INTERRES
   148   74  152 1    
   149   75   76 2    
   150   75   77 1    
   151   77   78 1    
   152   77   79 1    
   153   77  153 1    
   154   78  154 1    
   155   78  155 1    
   156   78  156 1    
   157   79   80 am   BACKBONE|DICT|INTERRES
   158   79  157 1    
   159   80   81 2    
@<TRIPOS>SUBSTRUCTURE
     1 UNK         1 GROUP             0       ****    0 ROOT    
