@<TRIPOS>MOLECULE
3R207
157   159    1
SMALL
USER_CHARGES


@<TRIPOS>ATOM
      1 CA        -47.0917  -29.2959   12.0817 C.3       0 UNK        -0.1975 
      2 C         -46.8638  -29.2256   10.5787 C.2       0 UNK         0.4852 
      3 O         -45.7173  -29.2581   10.1302 O.2       0 UNK        -0.5216 
      4 N         -47.9464  -29.1256    9.7964 N.am      1 UNK        -0.4461 
      5 CA        -47.9169  -29.0278    8.3350 C.3       1 UNK         0.0864 
      6 C6        -49.3172  -29.2364    7.7054 C.3       14 UNK        -0.0898 
      7 S7        -50.5934  -28.0702    8.2879 S.3       14 UNK        -0.2598 
      8 C8        -52.0441  -28.7237    7.4069 C.3       14 UNK         0.0286 
      9 C9        -53.2734  -27.8740    7.6824 C.ar      14 UNK        -0.0844 
     10 C10       -53.3704  -26.5969    7.1244 C.ar      14 UNK        -0.0881 
     11 C11       -54.4686  -25.7773    7.4036 C.ar      14 UNK        -0.0643 
     12 C12       -55.4952  -26.2690    8.2162 C.ar      14 UNK        -0.0930 
     13 C13       -55.4286  -27.5588    8.7528 C.ar      14 UNK        -0.0827 
     14 C14       -54.3094  -28.3549    8.4893 C.ar      14 UNK        -0.1249 
     15 C15       -56.5803  -28.0904    9.5958 C.3       14 UNK         0.0141 
     16 S16       -56.2436  -27.9441   11.3783 S.3       14 UNK        -0.2313 
     17 C17       -55.3527  -29.4994   11.7228 C.3       14 UNK        -0.0915 
     18 CA        -55.8731  -30.2112   12.9969 C.3       13 UNK         0.0968 
     19 C         -55.1889  -31.5896   13.1818 C.2       13 UNK         0.5732 
     20 N         -55.8373  -32.6665   12.7594 N.am      13 UNK        -0.7310 
     21 O         -54.0616  -31.6893   13.6617 O.2       13 UNK        -0.5035 
     22 N         -55.6973  -29.3779   14.1924 N.am      13 UNK        -0.4233 
     23 C         -56.4989  -29.4194   15.2635 C.2       13 UNK         0.4989 
     24 O         -57.4835  -30.1565   15.3500 O.2       13 UNK        -0.4996 
     25 CA        -56.1622  -28.4530   16.4160 C.3       12 UNK         0.0216 
     26 CB        -56.9722  -28.7270   17.7022 C.3       12 UNK        -0.1964 
     27 N         -54.7260  -28.3764   16.7004 N.am      12 UNK        -0.4276 
     28 C         -53.9200  -29.3583   17.1376 C.2       12 UNK         0.5020 
     29 O         -54.3125  -30.4910   17.4208 O.2       12 UNK        -0.5489 
     30 CA        -52.4192  -29.0331   17.2864 C.3       11 UNK         0.0294 
     31 CB        -51.5546  -30.0622   16.5351 C.3       11 UNK        -0.2019 
     32 N         -52.0931  -27.6944   16.7893 N.am      11 UNK        -0.4493 
     33 C         -52.0122  -26.5851   17.5378 C.2       11 UNK         0.4932 
     34 O         -52.1175  -26.5790   18.7641 O.2       11 UNK        -0.5029 
     35 CA        -51.8080  -25.2489   16.7963 C.3       10 UNK         0.0280 
     36 CB        -50.3295  -24.8320   16.8378 C.3       10 UNK        -0.1976 
     37 N         -52.2651  -25.2810   15.4028 N.am      10 UNK        -0.4242 
     38 C         -53.5484  -25.3920   15.0229 C.2       10 UNK         0.5072 
     39 O         -54.4912  -25.4200   15.8135 O.2       10 UNK        -0.5224 
     40 CA        -53.8250  -25.5949   13.5213 C.3       9 UNK         0.0343 
     41 CB        -54.0922  -24.2511   12.8281 C.3       9 UNK        -0.2003 
     42 N         -52.7444  -26.3109   12.8336 N.am      9 UNK        -0.4272 
     43 C         -52.3832  -27.5706   13.1297 C.2       9 UNK         0.4988 
     44 O         -52.9805  -28.2526   13.9621 O.2       9 UNK        -0.5108 
     45 CA        -51.1398  -28.1699   12.4450 C.3       8 UNK         0.0248 
     46 CB        -51.5420  -29.2522   11.4326 C.3       8 UNK        -0.2001 
     47 N         -50.2778  -27.1713   11.8049 N.am      8 UNK        -0.4140 
     48 C         -49.5548  -26.2668   12.4831 C.2       8 UNK         0.5028 
     49 O         -49.5019  -26.2278   13.7124 O.2       8 UNK        -0.5428 
     50 CA        -48.8044  -25.1959   11.6714 C.3       7 UNK         0.0264 
     51 CB        -47.3178  -25.5567   11.5520 C.3       7 UNK        -0.1988 
     52 N         -49.3670  -24.9233   10.3406 N.am      7 UNK        -0.4454 
     53 C         -50.6032  -24.4364   10.1391 C.2       7 UNK         0.5027 
     54 O         -51.4110  -24.2658   11.0537 O.2       7 UNK        -0.5083 
     55 CA        -50.9949  -24.0797    8.6896 C.3       6 UNK         0.0844 
     56 C56       -52.4577  -23.5608    8.5743 C.3       14 UNK        -0.0967 
     57 S57       -52.9943  -23.4325    6.8329 S.3       14 UNK        -0.2604 
     58 C58       -54.5686  -24.3621    6.8371 C.3       14 UNK         0.0134 
     59 N         -50.0099  -23.1713    8.0883 N.am      6 UNK        -0.4116 
     60 C         -49.7388  -21.9143    8.4704 C.2       5 UNK         0.5034 
     61 O         -50.2895  -21.3354    9.4089 O.2       5 UNK        -0.5045 
     62 CA        -48.6286  -21.1882    7.6873 C.3       5 UNK         0.0224 
     63 CB        -48.9272  -19.6866    7.5245 C.3       5 UNK        -0.1978 
     64 N         -47.3348  -21.3504    8.3537 N.am      5 UNK        -0.4737 
     65 C         -46.6683  -22.5077    8.4214 C.2       4 UNK         0.5027 
     66 O         -47.0406  -23.5352    7.8469 O.2       4 UNK        -0.5211 
     67 CA        -45.3902  -22.5313    9.2730 C.3       4 UNK         0.0297 
     68 CB        -45.6277  -22.0175   10.7083 C.3       4 UNK        -0.1993 
     69 N         -44.9269  -23.9123    9.2865 N.am      4 UNK        -0.4486 
     70 C         -43.6921  -24.3599    9.5281 C.2       3 UNK         0.4961 
     71 O         -42.7652  -23.6481    9.9160 O.2       3 UNK        -0.5105 
     72 CA        -43.4434  -25.8612    9.2713 C.3       3 UNK         0.0299 
     73 CB        -43.4960  -26.6448   10.5927 C.3       3 UNK        -0.1972 
     74 N         -44.3892  -26.4612    8.3198 N.am      3 UNK        -0.4305 
     75 C         -44.5087  -26.1163    7.0276 C.2       2 UNK         0.5006 
     76 O         -43.7532  -25.3135    6.4772 O.2       2 UNK        -0.5106 
     77 CA        -45.6516  -26.7450    6.2003 C.3       2 UNK         0.0296 
     78 CB        -45.1456  -27.2392    4.8323 C.3       2 UNK        -0.2002 
     79 N         -46.3681  -27.8433    6.8566 N.am      2 UNK        -0.4032 
     80 C         -47.2520  -27.7194    7.8556 C.2       1 UNK         0.5000 
     81 O         -47.5379  -26.6460    8.3925 O.2       1 UNK        -0.5238 
     82 H82       -46.6724  -30.2193   12.4803 H         1 UNK         0.0889 
     83 H83       -48.1505  -29.2678   12.3371 H         1 UNK         0.0889 
     84 H84       -46.6006  -28.4585   12.5763 H         1 UNK         0.0889 
     85 H85       -48.8642  -29.0771   10.2102 H         1 UNK         0.3028 
     86 H86       -47.2922  -29.8551    7.9900 H         1 UNK         0.0864 
     87 H87       -49.2583  -29.1749    6.6169 H         1 UNK         0.0720 
     88 H88       -49.6613  -30.2484    7.9251 H         1 UNK         0.0720 
     89 H89       -52.2142  -29.7585    7.7082 H         1 UNK         0.0814 
     90 H90       -51.8448  -28.7389    6.3343 H         1 UNK         0.0814 
     91 H91       -52.5720  -26.2322    6.4929 H         1 UNK         0.1469 
     92 H92       -56.3546  -25.6474    8.4277 H         1 UNK         0.1381 
     93 H93       -54.2461  -29.3482    8.9111 H         1 UNK         0.1206 
     94 H94       -56.7998  -29.1251    9.3293 H         1 UNK         0.0813 
     95 H95       -57.4904  -27.5310    9.3744 H         1 UNK         0.0813 
     96 H96       -55.4446  -30.1655   10.8639 H         1 UNK         0.0638 
     97 H97       -54.2945  -29.2696   11.8123 H         1 UNK         0.0638 
     98 H98       -56.9417  -30.3843   12.8521 H         1 UNK         0.0568 
     99 H99       -55.3996  -33.5691   12.8574 H         1 UNK         0.3450 
    100 H100      -56.7581  -32.5977   12.3549 H         1 UNK         0.3450 
    101 H101      -54.8431  -28.8301   14.2202 H         1 UNK         0.2987 
    102 H102      -56.4479  -27.4616   16.0610 H         1 UNK         0.0766 
    103 H103      -56.7909  -29.7292   18.0916 H         1 UNK         0.0798 
    104 H104      -56.7247  -28.0119   18.4866 H         1 UNK         0.0798 
    105 H105      -58.0432  -28.6419   17.5144 H         1 UNK         0.0798 
    106 H106      -54.3045  -27.4769   16.5019 H         1 UNK         0.3198 
    107 H107      -52.1786  -29.1013   18.3494 H         1 UNK         0.0843 
    108 H108      -51.7003  -31.0641   16.9408 H         1 UNK         0.0831 
    109 H109      -50.4931  -29.8305   16.6219 H         1 UNK         0.0831 
    110 H110      -51.8052  -30.1056   15.4745 H         1 UNK         0.0831 
    111 H111      -52.0370  -27.6090   15.7816 H         1 UNK         0.3133 
    112 H112      -52.3905  -24.4891   17.3217 H         1 UNK         0.0566 
    113 H113      -50.1742  -23.8649   16.3594 H         1 UNK         0.0814 
    114 H114      -49.9784  -24.7439   17.8669 H         1 UNK         0.0814 
    115 H115      -49.6902  -25.5608   16.3381 H         1 UNK         0.0814 
    116 H116      -51.5454  -25.3011   14.6913 H         1 UNK         0.3091 
    117 H117      -54.7280  -26.2028   13.4350 H         1 UNK         0.0702 
    118 H118      -54.3196  -24.3892   11.7706 H         1 UNK         0.0785 
    119 H119      -53.2356  -23.5802   12.9030 H         1 UNK         0.0785 
    120 H120      -54.9449  -23.7429   13.2802 H         1 UNK         0.0785 
    121 H121      -52.2138  -25.7802   12.1498 H         1 UNK         0.2998 
    122 H122      -50.5550  -28.6553   13.2294 H         1 UNK         0.0697 
    123 H123      -52.1871  -28.8515   10.6503 H         1 UNK         0.0825 
    124 H124      -52.0879  -30.0574   11.9264 H         1 UNK         0.0825 
    125 H125      -50.6736  -29.7077   10.9591 H         1 UNK         0.0825 
    126 H126      -50.3077  -27.1072   10.7963 H         1 UNK         0.3029 
    127 H127      -48.8750  -24.2679   12.2431 H         1 UNK         0.0897 
    128 H128      -46.7517  -24.7526   11.0909 H         1 UNK         0.0792 
    129 H129      -46.8762  -25.7407   12.5325 H         1 UNK         0.0792 
    130 H130      -47.1672  -26.4499   10.9517 H         1 UNK         0.0792 
    131 H131      -48.7629  -25.0979    9.5436 H         1 UNK         0.3086 
    132 H132      -50.9292  -25.0139    8.1304 H         1 UNK         0.0583 
    133 H133      -53.1380  -24.2231    9.1121 H         1 UNK         0.1020 
    134 H134      -52.5699  -22.5859    9.0506 H         1 UNK         0.1020 
    135 H135      -55.3007  -23.7804    7.3996 H         1 UNK         0.0694 
    136 H136      -54.9419  -24.4217    5.8141 H         1 UNK         0.0694 
    137 H137      -49.4318  -23.5756    7.3640 H         1 UNK         0.2989 
    138 H138      -48.5670  -21.6250    6.6876 H         1 UNK         0.1055 
    139 H139      -48.1765  -19.1981    6.9029 H         1 UNK         0.0806 
    140 H140      -48.9554  -19.1693    8.4845 H         1 UNK         0.0806 
    141 H141      -49.8943  -19.5328    7.0437 H         1 UNK         0.0806 
    142 H142      -46.9852  -20.5530    8.8655 H         1 UNK         0.3061 
    143 H143      -44.6380  -21.9135    8.7782 H         1 UNK         0.0734 
    144 H144      -45.8030  -20.9415   10.7146 H         1 UNK         0.0832 
    145 H145      -46.4946  -22.4865   11.1736 H         1 UNK         0.0832 
    146 H146      -44.7648  -22.1999   11.3488 H         1 UNK         0.0832 
    147 H147      -45.6095  -24.5553    8.8971 H         1 UNK         0.3156 
    148 H148      -42.4403  -25.9606    8.8520 H         1 UNK         0.0589 
    149 H149      -44.4855  -26.6012   11.0491 H         1 UNK         0.0808 
    150 H150      -43.2440  -27.6948   10.4423 H         1 UNK         0.0808 
    151 H151      -42.7849  -26.2419   11.3153 H         1 UNK         0.0808 
    152 H152      -45.0446  -27.1322    8.6970 H         1 UNK         0.3098 
    153 H153      -46.3712  -25.9430    6.0204 H         1 UNK         0.0720 
    154 H154      -45.9624  -27.6251    4.2218 H         1 UNK         0.0791 
    155 H155      -44.4021  -28.0299    4.9398 H         1 UNK         0.0791 
    156 H156      -44.6816  -26.4304    4.2660 H         1 UNK         0.0791 
    157 H157      -46.1732  -28.7680    6.5000 H         1 UNK         0.3028 
@<TRIPOS>BOND
     1    1    2 1    
     2    1   82 1    
     3    1   83 1    
     4    1   84 1    
     5    2    3 2    
     6    2    4 am   BACKBONE|DICT|INTERRES
     7    4    5 1    
     8    4   85 1    
     9    5    6 1    
    10    5   80 1    
    11    5   86 1    
    12    6    7 1    
    13    6   87 1    
    14    6   88 1    
    15    7    8 1    
    16    8    9 1    
    17    8   89 1    
    18    8   90 1    
    19    9   10 ar   
    20    9   14 ar   
    21   10   11 ar   
    22   10   91 1    
    23   11   12 ar   
    24   11   58 1    
    25   12   13 ar   
    26   12   92 1    
    27   13   14 ar   
    28   13   15 1    
    29   14   93 1    
    30   15   16 1    
    31   15   94 1    
    32   15   95 1    
    33   16   17 1    
    34   17   18 1    
    35   17   96 1    
    36   17   97 1    
    37   18   19 1    
    38   18   22 1    
    39   18   98 1    
    40   19   20 am   BACKBONE|DICT|INTERRES
    41   19   21 2    
    42   20   99 1    
    43   20  100 1    
    44   22   23 am   BACKBONE|DICT|INTERRES
    45   22  101 1    
    46   23   24 2    
    47   23   25 1    
    48   25   26 1    
    49   25   27 1    
    50   25  102 1    
    51   26  103 1    
    52   26  104 1    
    53   26  105 1    
    54   27   28 am   BACKBONE|DICT|INTERRES
    55   27  106 1    
    56   28   29 2    
    57   28   30 1    
    58   30   31 1    
    59   30   32 1    
    60   30  107 1    
    61   31  108 1    
    62   31  109 1    
    63   31  110 1    
    64   32   33 am   BACKBONE|DICT|INTERRES
    65   32  111 1    
    66   33   34 2    
    67   33   35 1    
    68   35   36 1    
    69   35   37 1    
    70   35  112 1    
    71   36  113 1    
    72   36  114 1    
    73   36  115 1    
    74   37   38 am   BACKBONE|DICT|INTERRES
    75   37  116 1    
    76   38   39 2    
    77   38   40 1    
    78   40   41 1    
    79   40   42 1    
    80   40  117 1    
    81   41  118 1    
    82   41  119 1    
    83   41  120 1    
    84   42   43 am   BACKBONE|DICT|INTERRES
    85   42  121 1    
    86   43   44 2    
    87   43   45 1    
    88   45   46 1    
    89   45   47 1    
    90   45  122 1    
    91   46  123 1    
    92   46  124 1    
    93   46  125 1    
    94   47   48 am   BACKBONE|DICT|INTERRES
    95   47  126 1    
    96   48   49 2    
    97   48   50 1    
    98   50   51 1    
    99   50   52 1    
   100   50  127 1    
   101   51  128 1    
   102   51  129 1    
   103   51  130 1    
   104   52   53 am   BACKBONE|DICT|INTERRES
   105   52  131 1    
   106   53   54 2    
   107   53   55 1    
   108   55   56 1    
   109   55   59 1    
   110   55  132 1    
   111   56   57 1    
   112   56  133 1    
   113   56  134 1    
   114   57   58 1    
   115   58  135 1    
   116   58  136 1    
   117   59   60 am   BACKBONE|DICT|INTERRES
   118   59  137 1    
   119   60   61 2    
   120   60   62 1    
   121   62   63 1    
   122   62   64 1    
   123   62  138 1    
   124   63  139 1    
   125   63  140 1    
   126   63  141 1    
   127   64   65 am   BACKBONE|DICT|INTERRES
   128   64  142 1    
   129   65   66 2    
   130   65   67 1    
   131   67   68 1    
   132   67   69 1    
   133   67  143 1    
   134   68  144 1    
   135   68  145 1    
   136   68  146 1    
   137   69   70 am   BACKBONE|DICT|INTERRES
   138   69  147 1    
   139   70   71 2    
   140   70   72 1    
   141   72   73 1    
   142   72   74 1    
   143   72  148 1    
   144   73  149 1    
   145   73  150 1    
   146   73  151 1    
   147   74   75 am   BACKBONE|DICT|INTERRES
   148   74  152 1    
   149   75   76 2    
   150   75   77 1    
   151   77   78 1    
   152   77   79 1    
   153   77  153 1    
   154   78  154 1    
   155   78  155 1    
   156   78  156 1    
   157   79   80 am   BACKBONE|DICT|INTERRES
   158   79  157 1    
   159   80   81 2    
@<TRIPOS>SUBSTRUCTURE
     1 UNK         1 GROUP             0       ****    0 ROOT    
