@<TRIPOS>MOLECULE
3R207
157   159    1
SMALL
USER_CHARGES


@<TRIPOS>ATOM
      1 CA        -53.2017  -26.1132    7.8728 C.3       0 UNK        -0.1975 
      2 C         -51.7834  -26.2715    7.3464 C.2       0 UNK         0.4852 
      3 O         -50.8989  -25.5040    7.7271 O.2       0 UNK        -0.5216 
      4 N         -51.5561  -27.2531    6.4615 N.am      1 UNK        -0.4461 
      5 CA        -50.2379  -27.5944    5.9023 C.3       1 UNK         0.0864 
      6 C6        -50.2539  -28.9672    5.1734 C.3       14 UNK        -0.0898 
      7 S7        -49.5009  -30.2695    6.2016 S.3       14 UNK        -0.2598 
      8 C8        -50.9089  -30.7834    7.2472 C.3       14 UNK         0.0286 
      9 C9        -50.5897  -30.9724    8.7328 C.ar      14 UNK        -0.0844 
     10 C10       -49.2824  -31.0717    9.2301 C.ar      14 UNK        -0.0881 
     11 C11       -49.0452  -31.2649   10.5945 C.ar      14 UNK        -0.0643 
     12 C12       -50.1286  -31.3421   11.4765 C.ar      14 UNK        -0.0930 
     13 C13       -51.4408  -31.2680   10.9948 C.ar      14 UNK        -0.0827 
     14 C14       -51.6588  -31.0862    9.6262 C.ar      14 UNK        -0.1249 
     15 C15       -52.6254  -31.4559   11.9364 C.3       14 UNK         0.0141 
     16 S16       -53.3561  -29.8818   12.4855 S.3       14 UNK        -0.2313 
     17 C17       -54.2589  -29.3374   10.9991 C.3       14 UNK        -0.0915 
     18 CA        -55.2907  -28.2104   11.2615 C.3       13 UNK         0.0968 
     19 C         -56.5119  -28.6945   12.0932 C.2       13 UNK         0.5732 
     20 N         -56.6687  -28.2966   13.3497 N.am      13 UNK        -0.7310 
     21 O         -57.3482  -29.4318   11.5763 O.2       13 UNK        -0.5035 
     22 N         -54.6591  -26.9773   11.7588 N.am      13 UNK        -0.4233 
     23 C         -55.1126  -25.7490   11.4761 C.2       13 UNK         0.4989 
     24 O         -56.0968  -25.5245   10.7684 O.2       13 UNK        -0.4996 
     25 CA        -54.3088  -24.5808   12.0691 C.3       12 UNK         0.0216 
     26 CB        -54.7514  -23.1956   11.5490 C.3       12 UNK        -0.1964 
     27 N         -54.2880  -24.6272   13.5347 N.am      12 UNK        -0.4276 
     28 C         -55.3195  -24.4653   14.3757 C.2       12 UNK         0.5020 
     29 O         -56.4722  -24.2221   14.0142 O.2       12 UNK        -0.5489 
     30 CA        -55.0016  -24.5605   15.8822 C.3       11 UNK         0.0294 
     31 CB        -56.2533  -24.8463   16.7404 C.3       11 UNK        -0.2019 
     32 N         -53.9209  -25.4970   16.2164 N.am      11 UNK        -0.4493 
     33 C         -53.9017  -26.8249   16.0239 C.2       11 UNK         0.4932 
     34 O         -54.7979  -27.4414   15.4463 O.2       11 UNK        -0.5029 
     35 CA        -52.6752  -27.5790   16.5764 C.3       10 UNK         0.0280 
     36 CB        -52.4686  -28.9529   15.9178 C.3       10 UNK        -0.1976 
     37 N         -51.4563  -26.7932   16.3944 N.am      10 UNK        -0.4242 
     38 C         -50.8015  -26.1170   17.3465 C.2       10 UNK         0.5072 
     39 O         -51.1307  -26.1142   18.5330 O.2       10 UNK        -0.5224 
     40 CA        -49.5891  -25.2731   16.9045 C.3       9 UNK         0.0343 
     41 CB        -48.2816  -26.0310   17.1844 C.3       9 UNK        -0.2003 
     42 N         -49.6231  -24.8744   15.4931 N.am      9 UNK        -0.4272 
     43 C         -50.5528  -24.0795   14.9416 C.2       9 UNK         0.4988 
     44 O         -51.4603  -23.5411   15.5764 O.2       9 UNK        -0.5108 
     45 CA        -50.5070  -23.9169   13.4135 C.3       8 UNK         0.0248 
     46 CB        -49.4676  -22.8614   13.0064 C.3       8 UNK        -0.2001 
     47 N         -50.2348  -25.1750   12.7119 N.am      8 UNK        -0.4140 
     48 C         -50.9870  -26.2828   12.7866 C.2       8 UNK         0.5028 
     49 O         -52.0259  -26.3624   13.4388 O.2       8 UNK        -0.5428 
     50 CA        -50.4834  -27.5209   12.0413 C.3       7 UNK         0.0264 
     51 CB        -50.7697  -27.4176   10.5393 C.3       7 UNK        -0.1988 
     52 N         -49.0615  -27.7382   12.2691 N.am      7 UNK        -0.4454 
     53 C         -48.5476  -28.1930   13.4198 C.2       7 UNK         0.5027 
     54 O         -49.2224  -28.5038   14.4018 O.2       7 UNK        -0.5083 
     55 CA        -47.0119  -28.2924   13.4934 C.3       6 UNK         0.0844 
     56 C56       -46.5058  -29.6681   12.9953 C.3       14 UNK        -0.0967 
     57 S57       -46.6682  -29.9220   11.1876 S.3       14 UNK        -0.2604 
     58 C58       -47.6185  -31.4749   11.0867 C.3       14 UNK         0.0134 
     59 N         -46.3440  -27.1760   12.8178 N.am      6 UNK        -0.4116 
     60 C         -46.4333  -25.8911   13.1880 C.2       5 UNK         0.5034 
     61 O         -47.0643  -25.4972   14.1688 O.2       5 UNK        -0.5045 
     62 CA        -45.7404  -24.8665   12.2750 C.3       5 UNK         0.0224 
     63 CB        -44.2419  -24.7722   12.6035 C.3       5 UNK        -0.1978 
     64 N         -45.9181  -25.1408   10.8432 N.am      5 UNK        -0.4737 
     65 C         -47.1049  -25.1703   10.2233 C.2       4 UNK         0.5027 
     66 O         -48.1823  -25.0399   10.8060 O.2       4 UNK        -0.5211 
     67 CA        -47.0959  -25.4322    8.7117 C.3       4 UNK         0.0297 
     68 CB        -47.3504  -26.9215    8.4302 C.3       4 UNK        -0.1993 
     69 N         -48.1213  -24.6183    8.0551 N.am      4 UNK        -0.4486 
     70 C         -47.9911  -23.3072    7.8095 C.2       3 UNK         0.4961 
     71 O         -46.9468  -22.6768    7.9893 O.2       3 UNK        -0.5105 
     72 CA        -49.2472  -22.5915    7.2804 C.3       3 UNK         0.0299 
     73 CB        -49.0426  -21.0814    7.0291 C.3       3 UNK        -0.1972 
     74 N         -49.8064  -23.2710    6.1075 N.am      3 UNK        -0.4305 
     75 C         -49.2769  -23.3763    4.8779 C.2       2 UNK         0.5006 
     76 O         -48.2401  -22.8177    4.5154 O.2       2 UNK        -0.5106 
     77 CA        -50.0535  -24.2819    3.8961 C.3       2 UNK         0.0296 
     78 CB        -49.3178  -24.5090    2.5571 C.3       2 UNK        -0.2002 
     79 N         -50.4375  -25.5569    4.5184 N.am      2 UNK        -0.4032 
     80 C         -49.6084  -26.4791    5.0364 C.2       1 UNK         0.5000 
     81 O         -48.3849  -26.4590    4.8962 O.2       1 UNK        -0.5238 
     82 H82       -53.7838  -27.0259    7.7479 H         1 UNK         0.0889 
     83 H83       -53.7093  -25.3049    7.3479 H         1 UNK         0.0889 
     84 H84       -53.1849  -25.8677    8.9338 H         1 UNK         0.0889 
     85 H85       -52.3254  -27.8367    6.1653 H         1 UNK         0.3028 
     86 H86       -49.5706  -27.6678    6.7620 H         1 UNK         0.0864 
     87 H87       -49.6802  -28.9433    4.2443 H         1 UNK         0.0720 
     88 H88       -51.2618  -29.2626    4.8771 H         1 UNK         0.0720 
     89 H89       -51.3092  -31.7178    6.8518 H         1 UNK         0.0814 
     90 H90       -51.7084  -30.0471    7.1602 H         1 UNK         0.0814 
     91 H91       -48.4343  -31.0223    8.5626 H         1 UNK         0.1469 
     92 H92       -49.9518  -31.4997   12.5316 H         1 UNK         0.1381 
     93 H93       -52.6719  -31.0454    9.2510 H         1 UNK         0.1206 
     94 H94       -52.3095  -32.0123   12.8200 H         1 UNK         0.0813 
     95 H95       -53.3917  -32.0674   11.4579 H         1 UNK         0.0813 
     96 H96       -54.7519  -30.2006   10.5485 H         1 UNK         0.0638 
     97 H97       -53.5294  -28.9945   10.2653 H         1 UNK         0.0638 
     98 H98       -55.7058  -27.9789   10.2784 H         1 UNK         0.0568 
     99 H99       -57.4730  -28.6160   13.8637 H         1 UNK         0.3450 
    100 H100      -55.9471  -27.7726   13.8322 H         1 UNK         0.3450 
    101 H101      -53.8729  -27.0893   12.3882 H         1 UNK         0.2987 
    102 H102      -53.2804  -24.7214   11.7366 H         1 UNK         0.0766 
    103 H103      -54.1344  -22.4004   11.9671 H         1 UNK         0.0798 
    104 H104      -55.7914  -22.9772   11.7928 H         1 UNK         0.0798 
    105 H105      -54.6576  -23.1424   10.4637 H         1 UNK         0.0798 
    106 H106      -53.4095  -24.9455   13.9324 H         1 UNK         0.3198 
    107 H107      -54.6331  -23.5728   16.1640 H         1 UNK         0.0843 
    108 H108      -56.7209  -25.7934   16.4692 H         1 UNK         0.0831 
    109 H109      -57.0042  -24.0659   16.6112 H         1 UNK         0.0831 
    110 H110      -56.0083  -24.8837   17.8017 H         1 UNK         0.0831 
    111 H111      -53.1044  -25.0777   16.6422 H         1 UNK         0.3133 
    112 H112      -52.8653  -27.7452   17.6382 H         1 UNK         0.0566 
    113 H113      -51.6627  -29.5042   16.4020 H         1 UNK         0.0814 
    114 H114      -53.3663  -29.5696   15.9770 H         1 UNK         0.0814 
    115 H115      -52.2055  -28.8458   14.8664 H         1 UNK         0.0814 
    116 H116      -51.1441  -26.7036   15.4346 H         1 UNK         0.3091 
    117 H117      -49.5916  -24.3613   17.5051 H         1 UNK         0.0702 
    118 H118      -47.4106  -25.4121   16.9681 H         1 UNK         0.0785 
    119 H119      -48.2062  -26.9372   16.5819 H         1 UNK         0.0785 
    120 H120      -48.2159  -26.3274   18.2322 H         1 UNK         0.0785 
    121 H121      -48.8758  -25.2325   14.9043 H         1 UNK         0.2998 
    122 H122      -51.4880  -23.5661   13.0885 H         1 UNK         0.0697 
    123 H123      -48.4577  -23.1610   13.2874 H         1 UNK         0.0825 
    124 H124      -49.6719  -21.9046   13.4888 H         1 UNK         0.0825 
    125 H125      -49.4767  -22.6913   11.9295 H         1 UNK         0.0825 
    126 H126      -49.4183  -25.1858   12.1002 H         1 UNK         0.3029 
    127 H127      -51.0145  -28.3883   12.4315 H         1 UNK         0.0897 
    128 H128      -50.2785  -26.5535   10.0932 H         1 UNK         0.0792 
    129 H129      -51.8390  -27.3145   10.3602 H         1 UNK         0.0792 
    130 H130      -50.4362  -28.3087   10.0082 H         1 UNK         0.0792 
    131 H131      -48.4317  -27.4847   11.5223 H         1 UNK         0.3086 
    132 H132      -46.7498  -28.2172   14.5512 H         1 UNK         0.0583 
    133 H133      -45.4491  -29.7728   13.2465 H         1 UNK         0.1020 
    134 H134      -47.0066  -30.4674   13.5442 H         1 UNK         0.1020 
    135 H135      -47.1032  -32.1403   10.3923 H         1 UNK         0.0694 
    136 H136      -47.6164  -31.9997   12.0425 H         1 UNK         0.0694 
    137 H137      -45.8189  -27.4059   11.9869 H         1 UNK         0.2989 
    138 H138      -46.1943  -23.8945   12.4805 H         1 UNK         0.1055 
    139 H139      -44.0877  -24.5545   13.6615 H         1 UNK         0.0806 
    140 H140      -43.7614  -23.9730   12.0386 H         1 UNK         0.0806 
    141 H141      -43.7172  -25.7025   12.3825 H         1 UNK         0.0806 
    142 H142      -45.0781  -25.2650   10.2954 H         1 UNK         0.3061 
    143 H143      -46.1179  -25.1647    8.3060 H         1 UNK         0.0734 
    144 H144      -48.3304  -27.2417    8.7838 H         1 UNK         0.0832 
    145 H145      -47.2871  -27.1367    7.3638 H         1 UNK         0.0832 
    146 H146      -46.6072  -27.5475    8.9258 H         1 UNK         0.0832 
    147 H147      -49.0438  -25.0337    7.9490 H         1 UNK         0.3156 
    148 H148      -49.9986  -22.6863    8.0661 H         1 UNK         0.0589 
    149 H149      -48.2572  -20.8894    6.2978 H         1 UNK         0.0808 
    150 H150      -49.9580  -20.6107    6.6712 H         1 UNK         0.0808 
    151 H151      -48.7548  -20.5725    7.9498 H         1 UNK         0.0808 
    152 H152      -50.6161  -23.8423    6.3141 H         1 UNK         0.3098 
    153 H153      -50.9832  -23.7571    3.6710 H         1 UNK         0.0720 
    154 H154      -49.8990  -25.1432    1.8879 H         1 UNK         0.0791 
    155 H155      -48.3432  -24.9763    2.7002 H         1 UNK         0.0791 
    156 H156      -49.1492  -23.5629    2.0414 H         1 UNK         0.0791 
    157 H157      -51.4270  -25.6873    4.6761 H         1 UNK         0.3028 
@<TRIPOS>BOND
     1    1    2 1    
     2    1   82 1    
     3    1   83 1    
     4    1   84 1    
     5    2    3 2    
     6    2    4 am   BACKBONE|DICT|INTERRES
     7    4    5 1    
     8    4   85 1    
     9    5    6 1    
    10    5   80 1    
    11    5   86 1    
    12    6    7 1    
    13    6   87 1    
    14    6   88 1    
    15    7    8 1    
    16    8    9 1    
    17    8   89 1    
    18    8   90 1    
    19    9   10 ar   
    20    9   14 ar   
    21   10   11 ar   
    22   10   91 1    
    23   11   12 ar   
    24   11   58 1    
    25   12   13 ar   
    26   12   92 1    
    27   13   14 ar   
    28   13   15 1    
    29   14   93 1    
    30   15   16 1    
    31   15   94 1    
    32   15   95 1    
    33   16   17 1    
    34   17   18 1    
    35   17   96 1    
    36   17   97 1    
    37   18   19 1    
    38   18   22 1    
    39   18   98 1    
    40   19   20 am   BACKBONE|DICT|INTERRES
    41   19   21 2    
    42   20   99 1    
    43   20  100 1    
    44   22   23 am   BACKBONE|DICT|INTERRES
    45   22  101 1    
    46   23   24 2    
    47   23   25 1    
    48   25   26 1    
    49   25   27 1    
    50   25  102 1    
    51   26  103 1    
    52   26  104 1    
    53   26  105 1    
    54   27   28 am   BACKBONE|DICT|INTERRES
    55   27  106 1    
    56   28   29 2    
    57   28   30 1    
    58   30   31 1    
    59   30   32 1    
    60   30  107 1    
    61   31  108 1    
    62   31  109 1    
    63   31  110 1    
    64   32   33 am   BACKBONE|DICT|INTERRES
    65   32  111 1    
    66   33   34 2    
    67   33   35 1    
    68   35   36 1    
    69   35   37 1    
    70   35  112 1    
    71   36  113 1    
    72   36  114 1    
    73   36  115 1    
    74   37   38 am   BACKBONE|DICT|INTERRES
    75   37  116 1    
    76   38   39 2    
    77   38   40 1    
    78   40   41 1    
    79   40   42 1    
    80   40  117 1    
    81   41  118 1    
    82   41  119 1    
    83   41  120 1    
    84   42   43 am   BACKBONE|DICT|INTERRES
    85   42  121 1    
    86   43   44 2    
    87   43   45 1    
    88   45   46 1    
    89   45   47 1    
    90   45  122 1    
    91   46  123 1    
    92   46  124 1    
    93   46  125 1    
    94   47   48 am   BACKBONE|DICT|INTERRES
    95   47  126 1    
    96   48   49 2    
    97   48   50 1    
    98   50   51 1    
    99   50   52 1    
   100   50  127 1    
   101   51  128 1    
   102   51  129 1    
   103   51  130 1    
   104   52   53 am   BACKBONE|DICT|INTERRES
   105   52  131 1    
   106   53   54 2    
   107   53   55 1    
   108   55   56 1    
   109   55   59 1    
   110   55  132 1    
   111   56   57 1    
   112   56  133 1    
   113   56  134 1    
   114   57   58 1    
   115   58  135 1    
   116   58  136 1    
   117   59   60 am   BACKBONE|DICT|INTERRES
   118   59  137 1    
   119   60   61 2    
   120   60   62 1    
   121   62   63 1    
   122   62   64 1    
   123   62  138 1    
   124   63  139 1    
   125   63  140 1    
   126   63  141 1    
   127   64   65 am   BACKBONE|DICT|INTERRES
   128   64  142 1    
   129   65   66 2    
   130   65   67 1    
   131   67   68 1    
   132   67   69 1    
   133   67  143 1    
   134   68  144 1    
   135   68  145 1    
   136   68  146 1    
   137   69   70 am   BACKBONE|DICT|INTERRES
   138   69  147 1    
   139   70   71 2    
   140   70   72 1    
   141   72   73 1    
   142   72   74 1    
   143   72  148 1    
   144   73  149 1    
   145   73  150 1    
   146   73  151 1    
   147   74   75 am   BACKBONE|DICT|INTERRES
   148   74  152 1    
   149   75   76 2    
   150   75   77 1    
   151   77   78 1    
   152   77   79 1    
   153   77  153 1    
   154   78  154 1    
   155   78  155 1    
   156   78  156 1    
   157   79   80 am   BACKBONE|DICT|INTERRES
   158   79  157 1    
   159   80   81 2    
@<TRIPOS>SUBSTRUCTURE
     1 UNK         1 GROUP             0       ****    0 ROOT    
