@<TRIPOS>MOLECULE
3R207
157   159    1
SMALL
USER_CHARGES


@<TRIPOS>ATOM
      1 CA        -45.0854  -30.9657    4.0256 C.3       0 UNK        -0.1975 
      2 C         -46.4578  -30.5300    4.5173 C.2       0 UNK         0.4852 
      3 O         -47.3611  -30.3288    3.7048 O.2       0 UNK        -0.5216 
      4 N         -46.6195  -30.3889    5.8408 N.am      1 UNK        -0.4461 
      5 CA        -47.8555  -29.9510    6.5024 C.3       1 UNK         0.0864 
      6 C6        -47.7915  -30.2628    8.0254 C.3       14 UNK        -0.0898 
      7 S7        -49.1242  -29.5834    9.0705 S.3       14 UNK        -0.2598 
      8 C8        -50.5829  -30.4698    8.4303 C.3       14 UNK         0.0286 
      9 C9        -51.8710  -29.8623    8.9636 C.ar      14 UNK        -0.0844 
     10 C10       -52.1498  -28.5145    8.7181 C.ar      14 UNK        -0.0881 
     11 C11       -53.3052  -27.9238    9.2315 C.ar      14 UNK        -0.0643 
     12 C12       -54.2082  -28.7026    9.9555 C.ar      14 UNK        -0.0930 
     13 C13       -53.9598  -30.0584   10.1836 C.ar      14 UNK        -0.0827 
     14 C14       -52.7833  -30.6342    9.6919 C.ar      14 UNK        -0.1249 
     15 C15       -54.9575  -30.8790   10.9862 C.3       14 UNK         0.0141 
     16 S16       -56.5176  -31.0778   10.0720 S.3       14 UNK        -0.2313 
     17 C17       -57.7633  -30.7701   11.3671 C.3       14 UNK        -0.0915 
     18 CA        -58.2725  -29.3032   11.3539 C.3       13 UNK         0.0968 
     19 C         -59.6588  -29.1907   12.0456 C.2       13 UNK         0.5732 
     20 N         -60.7382  -29.4033   11.3053 N.am      13 UNK        -0.7310 
     21 O         -59.7659  -28.9517   13.2477 O.2       13 UNK        -0.5035 
     22 N         -57.2964  -28.3865   11.9600 N.am      13 UNK        -0.4233 
     23 C         -57.2976  -27.0587   11.8094 C.2       13 UNK         0.4989 
     24 O         -58.0122  -26.4738   10.9944 O.2       13 UNK        -0.4996 
     25 CA        -56.3679  -26.2153   12.7093 C.3       12 UNK         0.0216 
     26 CB        -57.1348  -25.7360   13.9568 C.3       12 UNK        -0.1964 
     27 N         -55.0753  -26.8018   13.1048 N.am      12 UNK        -0.4276 
     28 C         -54.8207  -27.9136   13.8110 C.2       12 UNK         0.5020 
     29 O         -55.6725  -28.7386   14.1428 O.2       12 UNK        -0.5489 
     30 CA        -53.3625  -28.1293   14.2425 C.3       11 UNK         0.0294 
     31 CB        -52.4986  -28.6498   13.0842 C.3       11 UNK        -0.2019 
     32 N         -52.7510  -26.9248   14.8064 N.am      11 UNK        -0.4493 
     33 C         -53.0637  -26.3915   15.9967 C.2       11 UNK         0.4932 
     34 O         -53.9938  -26.7797   16.7055 O.2       11 UNK        -0.5029 
     35 CA        -52.1188  -25.2779   16.4912 C.3       10 UNK         0.0280 
     36 CB        -52.4008  -24.8261   17.9395 C.3       10 UNK        -0.1976 
     37 N         -50.7138  -25.6695   16.3167 N.am      10 UNK        -0.4242 
     38 C         -50.0898  -26.7333   16.8495 C.2       10 UNK         0.5072 
     39 O         -50.5731  -27.4552   17.7228 O.2       10 UNK        -0.5224 
     40 CA        -48.7040  -27.0909   16.2832 C.3       9 UNK         0.0343 
     41 CB        -48.8244  -28.2694   15.3032 C.3       9 UNK        -0.2003 
     42 N         -48.0490  -25.9723   15.6022 N.am      9 UNK        -0.4272 
     43 C         -47.4419  -24.9616   16.2387 C.2       9 UNK         0.4988 
     44 O         -47.3306  -24.8897   17.4633 O.2       9 UNK        -0.5108 
     45 CA        -46.8727  -23.8329   15.3650 C.3       8 UNK         0.0248 
     46 CB        -45.5127  -24.2413   14.7769 C.3       8 UNK        -0.2001 
     47 N         -47.7800  -23.4162   14.2904 N.am      8 UNK        -0.4140 
     48 C         -48.9832  -22.8557   14.4879 C.2       8 UNK         0.5028 
     49 O         -49.4632  -22.6355   15.6000 O.2       8 UNK        -0.5428 
     50 CA        -49.8027  -22.4870   13.2413 C.3       7 UNK         0.0264 
     51 CB        -49.2860  -21.1816   12.6156 C.3       7 UNK        -0.1988 
     52 N         -49.8235  -23.5419   12.2284 N.am      7 UNK        -0.4454 
     53 C         -50.3756  -24.7539   12.3936 C.2       7 UNK         0.5027 
     54 O         -50.9342  -25.1261   13.4266 O.2       7 UNK        -0.5083 
     55 CA        -50.2445  -25.7358   11.2118 C.3       6 UNK         0.0844 
     56 C56       -51.1745  -25.3336   10.0386 C.3       14 UNK        -0.0967 
     57 S57       -52.9575  -25.4621   10.4231 S.3       14 UNK        -0.2604 
     58 C58       -53.5779  -26.4448    9.0232 C.3       14 UNK         0.0134 
     59 N         -48.8495  -25.8680   10.7783 N.am      6 UNK        -0.4116 
     60 C         -47.8052  -26.1814   11.5620 C.2       5 UNK         0.5034 
     61 O         -47.8916  -26.4813   12.7526 O.2       5 UNK        -0.5045 
     62 CA        -46.4122  -26.0642   10.9259 C.3       5 UNK         0.0224 
     63 CB        -46.0726  -27.3100   10.0917 C.3       5 UNK        -0.1978 
     64 N         -46.2874  -24.8558   10.1059 N.am      5 UNK        -0.4737 
     65 C         -46.2821  -23.6076   10.5969 C.2       4 UNK         0.5027 
     66 O         -46.3392  -23.3446   11.7966 O.2       4 UNK        -0.5211 
     67 CA        -46.2541  -22.4584    9.5758 C.3       4 UNK         0.0297 
     68 CB        -44.8231  -22.2152    9.0710 C.3       4 UNK        -0.1993 
     69 N         -47.1456  -22.6987    8.4394 N.am      4 UNK        -0.4486 
     70 C         -48.4809  -22.7799    8.5297 C.2       3 UNK         0.4961 
     71 O         -49.1085  -22.5859    9.5704 O.2       3 UNK        -0.5105 
     72 CA        -49.2395  -23.2008    7.2567 C.3       3 UNK         0.0299 
     73 CB        -49.6005  -21.9679    6.4140 C.3       3 UNK        -0.1972 
     74 N         -48.5071  -24.1681    6.4293 N.am      3 UNK        -0.4305 
     75 C         -48.1068  -25.3789    6.8435 C.2       2 UNK         0.5006 
     76 O         -48.3218  -25.8153    7.9758 O.2       2 UNK        -0.5106 
     77 CA        -47.2555  -26.1878    5.8488 C.3       2 UNK         0.0296 
     78 CB        -45.8265  -25.6194    5.7897 C.3       2 UNK        -0.2002 
     79 N         -47.1708  -27.6120    6.1814 N.am      2 UNK        -0.4032 
     80 C         -48.1944  -28.4785    6.1643 C.2       1 UNK         0.5000 
     81 O         -49.3463  -28.1757    5.8438 O.2       1 UNK        -0.5238 
     82 H82       -45.1648  -31.9014    3.4727 H         1 UNK         0.0889 
     83 H83       -44.3853  -31.1163    4.8472 H         1 UNK         0.0889 
     84 H84       -44.6688  -30.2106    3.3595 H         1 UNK         0.0889 
     85 H85       -45.8403  -30.5895    6.4520 H         1 UNK         0.3028 
     86 H86       -48.6621  -30.5536    6.0805 H         1 UNK         0.0864 
     87 H87       -46.8551  -29.8840    8.4381 H         1 UNK         0.0720 
     88 H88       -47.7625  -31.3431    8.1764 H         1 UNK         0.0720 
     89 H89       -50.5057  -31.5259    8.6933 H         1 UNK         0.0814 
     90 H90       -50.6077  -30.4158    7.3420 H         1 UNK         0.0814 
     91 H91       -51.4472  -27.9243    8.1454 H         1 UNK         0.1469 
     92 H92       -55.1069  -28.2503   10.3456 H         1 UNK         0.1381 
     93 H93       -52.5773  -31.6794    9.8779 H         1 UNK         0.1206 
     94 H94       -54.5555  -31.8650   11.2236 H         1 UNK         0.0813 
     95 H95       -55.1354  -30.3826   11.9398 H         1 UNK         0.0813 
     96 H96       -57.3739  -31.0466   12.3486 H         1 UNK         0.0638 
     97 H97       -58.5823  -31.4637   11.1666 H         1 UNK         0.0638 
     98 H98       -58.4094  -28.9992   10.3139 H         1 UNK         0.0568 
     99 H99       -60.6635  -29.6134   10.3221 H         1 UNK         0.3450 
    100 H100      -61.6470  -29.3494   11.7382 H         1 UNK         0.3450 
    101 H101      -56.7379  -28.7562   12.7272 H         1 UNK         0.2987 
    102 H102      -56.1102  -25.3302   12.1251 H         1 UNK         0.0766 
    103 H103      -57.4189  -26.5694   14.6007 H         1 UNK         0.0798 
    104 H104      -58.0515  -25.2145   13.6778 H         1 UNK         0.0798 
    105 H105      -56.5361  -25.0443   14.5497 H         1 UNK         0.0798 
    106 H106      -54.2714  -26.2408   12.8561 H         1 UNK         0.3198 
    107 H107      -53.3619  -28.8914   15.0252 H         1 UNK         0.0843 
    108 H108      -51.4641  -28.7993   13.3912 H         1 UNK         0.0831 
    109 H109      -52.5002  -27.9690   12.2332 H         1 UNK         0.0831 
    110 H110      -52.8650  -29.6141   12.7341 H         1 UNK         0.0831 
    111 H111      -52.0007  -26.4849   14.2789 H         1 UNK         0.3133 
    112 H112      -52.2815  -24.4186   15.8389 H         1 UNK         0.0566 
    113 H113      -51.7155  -24.0361   18.2467 H         1 UNK         0.0814 
    114 H114      -52.3064  -25.6479   18.6498 H         1 UNK         0.0814 
    115 H115      -53.4135  -24.4323   18.0329 H         1 UNK         0.0814 
    116 H116      -50.2273  -25.1701   15.5827 H         1 UNK         0.3091 
    117 H117      -48.0773  -27.4077   17.1196 H         1 UNK         0.0702 
    118 H118      -49.2861  -29.1341   15.7818 H         1 UNK         0.0785 
    119 H119      -49.4351  -28.0087   14.4383 H         1 UNK         0.0785 
    120 H120      -47.8464  -28.5829   14.9378 H         1 UNK         0.0785 
    121 H121      -48.0575  -25.9890   14.5842 H         1 UNK         0.2998 
    122 H122      -46.7130  -22.9671   16.0110 H         1 UNK         0.0697 
    123 H123      -45.6090  -25.0743   14.0798 H         1 UNK         0.0825 
    124 H124      -44.8222  -24.5500   15.5630 H         1 UNK         0.0825 
    125 H125      -45.0463  -23.4121   14.2447 H         1 UNK         0.0825 
    126 H126      -47.4315  -23.5145   13.3391 H         1 UNK         0.3029 
    127 H127      -50.8334  -22.3233   13.5637 H         1 UNK         0.0897 
    128 H128      -48.2712  -21.2915   12.2311 H         1 UNK         0.0792 
    129 H129      -49.9210  -20.8607   11.7895 H         1 UNK         0.0792 
    130 H130      -49.2736  -20.3738   13.3486 H         1 UNK         0.0792 
    131 H131      -49.4156  -23.3090   11.3258 H         1 UNK         0.3086 
    132 H132      -50.5470  -26.7236   11.5637 H         1 UNK         0.0583 
    133 H133      -50.9841  -24.3087    9.7234 H         1 UNK         0.1020 
    134 H134      -50.9451  -25.9478    9.1685 H         1 UNK         0.1020 
    135 H135      -54.6524  -26.2798    8.9290 H         1 UNK         0.0694 
    136 H136      -53.1334  -26.0934    8.0906 H         1 UNK         0.0694 
    137 H137      -48.6619  -25.6961    9.7929 H         1 UNK         0.2989 
    138 H138      -45.6855  -25.9946   11.7383 H         1 UNK         0.1055 
    139 H139      -46.7597  -27.4428    9.2567 H         1 UNK         0.0806 
    140 H140      -45.0610  -27.2557    9.6896 H         1 UNK         0.0806 
    141 H141      -46.1311  -28.2123   10.7021 H         1 UNK         0.0806 
    142 H142      -46.3100  -24.9819    9.1048 H         1 UNK         0.3061 
    143 H143      -46.5951  -21.5543   10.0852 H         1 UNK         0.0734 
    144 H144      -44.4305  -23.0757    8.5277 H         1 UNK         0.0832 
    145 H145      -44.7770  -21.3498    8.4097 H         1 UNK         0.0832 
    146 H146      -44.1459  -22.0200    9.9039 H         1 UNK         0.0832 
    147 H147      -46.7151  -22.8592    7.5410 H         1 UNK         0.3156 
    148 H148      -50.1691  -23.6794    7.5693 H         1 UNK         0.0589 
    149 H149      -50.2207  -22.2383    5.5591 H         1 UNK         0.0808 
    150 H150      -50.1654  -21.2448    7.0045 H         1 UNK         0.0808 
    151 H151      -48.7124  -21.4581    6.0383 H         1 UNK         0.0808 
    152 H152      -48.2857  -23.8799    5.4866 H         1 UNK         0.3098 
    153 H153      -47.7132  -26.1027    4.8610 H         1 UNK         0.0720 
    154 H154      -45.8261  -24.5699    5.4927 H         1 UNK         0.0791 
    155 H155      -45.2178  -26.1546    5.0603 H         1 UNK         0.0791 
    156 H156      -45.3246  -25.6856    6.7561 H         1 UNK         0.0791 
    157 H157      -46.2638  -27.9569    6.4560 H         1 UNK         0.3028 
@<TRIPOS>BOND
     1    1    2 1    
     2    1   82 1    
     3    1   83 1    
     4    1   84 1    
     5    2    3 2    
     6    2    4 am   BACKBONE|DICT|INTERRES
     7    4    5 1    
     8    4   85 1    
     9    5    6 1    
    10    5   80 1    
    11    5   86 1    
    12    6    7 1    
    13    6   87 1    
    14    6   88 1    
    15    7    8 1    
    16    8    9 1    
    17    8   89 1    
    18    8   90 1    
    19    9   10 ar   
    20    9   14 ar   
    21   10   11 ar   
    22   10   91 1    
    23   11   12 ar   
    24   11   58 1    
    25   12   13 ar   
    26   12   92 1    
    27   13   14 ar   
    28   13   15 1    
    29   14   93 1    
    30   15   16 1    
    31   15   94 1    
    32   15   95 1    
    33   16   17 1    
    34   17   18 1    
    35   17   96 1    
    36   17   97 1    
    37   18   19 1    
    38   18   22 1    
    39   18   98 1    
    40   19   20 am   BACKBONE|DICT|INTERRES
    41   19   21 2    
    42   20   99 1    
    43   20  100 1    
    44   22   23 am   BACKBONE|DICT|INTERRES
    45   22  101 1    
    46   23   24 2    
    47   23   25 1    
    48   25   26 1    
    49   25   27 1    
    50   25  102 1    
    51   26  103 1    
    52   26  104 1    
    53   26  105 1    
    54   27   28 am   BACKBONE|DICT|INTERRES
    55   27  106 1    
    56   28   29 2    
    57   28   30 1    
    58   30   31 1    
    59   30   32 1    
    60   30  107 1    
    61   31  108 1    
    62   31  109 1    
    63   31  110 1    
    64   32   33 am   BACKBONE|DICT|INTERRES
    65   32  111 1    
    66   33   34 2    
    67   33   35 1    
    68   35   36 1    
    69   35   37 1    
    70   35  112 1    
    71   36  113 1    
    72   36  114 1    
    73   36  115 1    
    74   37   38 am   BACKBONE|DICT|INTERRES
    75   37  116 1    
    76   38   39 2    
    77   38   40 1    
    78   40   41 1    
    79   40   42 1    
    80   40  117 1    
    81   41  118 1    
    82   41  119 1    
    83   41  120 1    
    84   42   43 am   BACKBONE|DICT|INTERRES
    85   42  121 1    
    86   43   44 2    
    87   43   45 1    
    88   45   46 1    
    89   45   47 1    
    90   45  122 1    
    91   46  123 1    
    92   46  124 1    
    93   46  125 1    
    94   47   48 am   BACKBONE|DICT|INTERRES
    95   47  126 1    
    96   48   49 2    
    97   48   50 1    
    98   50   51 1    
    99   50   52 1    
   100   50  127 1    
   101   51  128 1    
   102   51  129 1    
   103   51  130 1    
   104   52   53 am   BACKBONE|DICT|INTERRES
   105   52  131 1    
   106   53   54 2    
   107   53   55 1    
   108   55   56 1    
   109   55   59 1    
   110   55  132 1    
   111   56   57 1    
   112   56  133 1    
   113   56  134 1    
   114   57   58 1    
   115   58  135 1    
   116   58  136 1    
   117   59   60 am   BACKBONE|DICT|INTERRES
   118   59  137 1    
   119   60   61 2    
   120   60   62 1    
   121   62   63 1    
   122   62   64 1    
   123   62  138 1    
   124   63  139 1    
   125   63  140 1    
   126   63  141 1    
   127   64   65 am   BACKBONE|DICT|INTERRES
   128   64  142 1    
   129   65   66 2    
   130   65   67 1    
   131   67   68 1    
   132   67   69 1    
   133   67  143 1    
   134   68  144 1    
   135   68  145 1    
   136   68  146 1    
   137   69   70 am   BACKBONE|DICT|INTERRES
   138   69  147 1    
   139   70   71 2    
   140   70   72 1    
   141   72   73 1    
   142   72   74 1    
   143   72  148 1    
   144   73  149 1    
   145   73  150 1    
   146   73  151 1    
   147   74   75 am   BACKBONE|DICT|INTERRES
   148   74  152 1    
   149   75   76 2    
   150   75   77 1    
   151   77   78 1    
   152   77   79 1    
   153   77  153 1    
   154   78  154 1    
   155   78  155 1    
   156   78  156 1    
   157   79   80 am   BACKBONE|DICT|INTERRES
   158   79  157 1    
   159   80   81 2    
@<TRIPOS>SUBSTRUCTURE
     1 UNK         1 GROUP             0       ****    0 ROOT    
