@<TRIPOS>MOLECULE
3R207
157   159    1
SMALL
USER_CHARGES


@<TRIPOS>ATOM
      1 CA        -52.4860  -25.1284    7.9001 C.3       0 UNK        -0.1975 
      2 C         -51.3267  -26.0310    7.5052 C.2       0 UNK         0.4852 
      3 O         -50.2644  -25.9688    8.1229 O.2       0 UNK        -0.5216 
      4 N         -51.5283  -26.8669    6.4788 N.am      1 UNK        -0.4461 
      5 CA        -50.5240  -27.7946    5.9512 C.3       1 UNK         0.0864 
      6 C6        -51.1918  -28.9683    5.1814 C.3       14 UNK        -0.0898 
      7 S7        -50.2604  -30.5276    5.3750 S.3       14 UNK        -0.2598 
      8 C8        -51.1891  -31.3569    6.7088 C.3       14 UNK         0.0286 
      9 C9        -51.2615  -30.5056    7.9694 C.ar      14 UNK        -0.0844 
     10 C10       -50.1165  -30.2928    8.7431 C.ar      14 UNK        -0.0881 
     11 C11       -50.1699  -29.4736    9.8740 C.ar      14 UNK        -0.0643 
     12 C12       -51.3801  -28.8758   10.2380 C.ar      14 UNK        -0.0930 
     13 C13       -52.5370  -29.1036    9.4887 C.ar      14 UNK        -0.0827 
     14 C14       -52.4706  -29.9167    8.3534 C.ar      14 UNK        -0.1249 
     15 C15       -53.8602  -28.4776    9.9001 C.3       14 UNK         0.0141 
     16 S16       -54.7916  -29.5985   10.9900 S.3       14 UNK        -0.2313 
     17 C17       -56.4853  -28.9282   10.8479 C.3       14 UNK        -0.0915 
     18 CA        -57.1347  -28.5227   12.2031 C.3       13 UNK         0.0968 
     19 C         -57.4427  -29.7134   13.1511 C.2       13 UNK         0.5732 
     20 N         -58.1147  -30.7472   12.6616 N.am      13 UNK        -0.7310 
     21 O         -57.1064  -29.7048   14.3328 O.2       13 UNK        -0.5035 
     22 N         -56.4013  -27.4481   12.8833 N.am      13 UNK        -0.4233 
     23 C         -56.4559  -26.1573   12.5407 C.2       13 UNK         0.4989 
     24 O         -57.1210  -25.7433   11.5893 O.2       13 UNK        -0.4996 
     25 CA        -55.6191  -25.1439   13.3475 C.3       12 UNK         0.0216 
     26 CB        -56.4104  -23.8543   13.6529 C.3       12 UNK        -0.1964 
     27 N         -54.9781  -25.6555   14.5655 N.am      12 UNK        -0.4276 
     28 C         -55.5524  -26.1034   15.6909 C.2       12 UNK         0.5020 
     29 O         -56.7676  -26.2436   15.8382 O.2       12 UNK        -0.5489 
     30 CA        -54.5836  -26.4269   16.8454 C.3       11 UNK         0.0294 
     31 CB        -55.2603  -27.1334   18.0402 C.3       11 UNK        -0.2019 
     32 N         -53.3925  -27.1513   16.3838 N.am      11 UNK        -0.4493 
     33 C         -53.3263  -28.4027   15.9051 C.2       11 UNK         0.4932 
     34 O         -54.2844  -29.1714   15.8541 O.2       11 UNK        -0.5029 
     35 CA        -51.9663  -28.8873   15.3661 C.3       10 UNK         0.0280 
     36 CB        -52.0092  -28.9724   13.8329 C.3       10 UNK        -0.1976 
     37 N         -50.8284  -28.0531   15.7650 N.am      10 UNK        -0.4242 
     38 C         -50.3064  -28.0029   16.9993 C.2       10 UNK         0.5072 
     39 O         -50.7156  -28.6743   17.9470 O.2       10 UNK        -0.5224 
     40 CA        -49.1421  -27.0230   17.2165 C.3       9 UNK         0.0343 
     41 CB        -47.8058  -27.6587   16.7985 C.3       9 UNK        -0.2003 
     42 N         -49.3424  -25.7707   16.4844 N.am      9 UNK        -0.4272 
     43 C         -50.1469  -24.7776   16.8903 C.2       9 UNK         0.4988 
     44 O         -50.7629  -24.7868   17.9560 O.2       9 UNK        -0.5108 
     45 CA        -50.3122  -23.5788   15.9388 C.3       8 UNK         0.0248 
     46 CB        -49.2030  -22.5420   16.1773 C.3       8 UNK        -0.2001 
     47 N         -50.3235  -23.9641   14.5258 N.am      8 UNK        -0.4140 
     48 C         -51.2791  -24.7108   13.9527 C.2       8 UNK         0.5028 
     49 O         -52.2769  -25.1174   14.5456 O.2       8 UNK        -0.5428 
     50 CA        -51.0690  -25.1215   12.4863 C.3       7 UNK         0.0264 
     51 CB        -51.6793  -24.0702   11.5497 C.3       7 UNK        -0.1988 
     52 N         -49.6635  -25.3331   12.1325 N.am      7 UNK        -0.4454 
     53 C         -48.8269  -26.1874   12.7465 C.2       7 UNK         0.5027 
     54 O         -49.1768  -26.9325   13.6633 O.2       7 UNK        -0.5083 
     55 CA        -47.3436  -26.1873   12.3082 C.3       6 UNK         0.0844 
     56 C56       -46.9356  -27.4838   11.5633 C.3       14 UNK        -0.0967 
     57 S57       -47.9374  -27.8541   10.0799 S.3       14 UNK        -0.2604 
     58 C58       -48.9267  -29.2435   10.7141 C.3       14 UNK         0.0134 
     59 N         -46.9562  -24.9806   11.5717 N.am      6 UNK        -0.4116 
     60 C         -46.9135  -23.7445   12.0919 C.2       5 UNK         0.5034 
     61 O         -47.1899  -23.4870   13.2645 O.2       5 UNK        -0.5045 
     62 CA        -46.5319  -22.5972   11.1414 C.3       5 UNK         0.0224 
     63 CB        -45.0405  -22.2559   11.2849 C.3       5 UNK        -0.1978 
     64 N         -46.8268  -22.8748    9.7324 N.am      5 UNK        -0.4737 
     65 C         -48.0476  -23.0311    9.2070 C.2       4 UNK         0.5027 
     66 O         -49.0798  -22.9700    9.8727 O.2       4 UNK        -0.5211 
     67 CA        -48.1312  -23.3265    7.6984 C.3       4 UNK         0.0297 
     68 CB        -47.9243  -22.0470    6.8650 C.3       4 UNK        -0.1993 
     69 N         -47.2550  -24.4198    7.2485 N.am      4 UNK        -0.4486 
     70 C         -45.9135  -24.4672    7.2116 C.2       3 UNK         0.4961 
     71 O         -45.1826  -23.5403    7.5632 O.2       3 UNK        -0.5105 
     72 CA        -45.2627  -25.7774    6.7372 C.3       3 UNK         0.0299 
     73 CB        -44.7922  -26.6078    7.9419 C.3       3 UNK        -0.1972 
     74 N         -46.1421  -26.5945    5.8970 N.am      3 UNK        -0.4305 
     75 C         -46.3742  -26.3568    4.5977 C.2       2 UNK         0.5006 
     76 O         -45.8746  -25.4222    3.9703 O.2       2 UNK        -0.5106 
     77 CA        -47.3162  -27.3302    3.8704 C.3       2 UNK         0.0296 
     78 CB        -46.5306  -28.5311    3.3185 C.3       2 UNK        -0.2002 
     79 N         -48.4118  -27.8130    4.7147 N.am      2 UNK        -0.4032 
     80 C         -49.4582  -27.0701    5.0992 C.2       1 UNK         0.5000 
     81 O         -49.6016  -25.8847    4.7854 O.2       1 UNK        -0.5238 
     82 H82       -52.1358  -24.1052    8.0349 H         1 UNK         0.0889 
     83 H83       -52.9219  -25.4700    8.8382 H         1 UNK         0.0889 
     84 H84       -53.2702  -25.1195    7.1434 H         1 UNK         0.0889 
     85 H85       -52.4074  -26.8429    5.9836 H         1 UNK         0.3028 
     86 H86       -49.9991  -28.1995    6.8192 H         1 UNK         0.0864 
     87 H87       -51.3005  -28.7450    4.1180 H         1 UNK         0.0720 
     88 H88       -52.2075  -29.1397    5.5412 H         1 UNK         0.0720 
     89 H89       -50.7060  -32.3070    6.9412 H         1 UNK         0.0814 
     90 H90       -52.1892  -31.6033    6.3486 H         1 UNK         0.0814 
     91 H91       -49.1792  -30.7475    8.4524 H         1 UNK         0.1469 
     92 H92       -51.4204  -28.2376   11.1083 H         1 UNK         0.1381 
     93 H93       -53.3624  -30.0856    7.7656 H         1 UNK         0.1206 
     94 H94       -53.6964  -27.5278   10.4117 H         1 UNK         0.0813 
     95 H95       -54.4468  -28.2534    9.0079 H         1 UNK         0.0813 
     96 H96       -56.4764  -28.0638   10.1831 H         1 UNK         0.0638 
     97 H97       -57.0980  -29.6701   10.3343 H         1 UNK         0.0638 
     98 H98       -58.1238  -28.1207   11.9752 H         1 UNK         0.0568 
     99 H99       -58.4088  -30.7717   11.6982 H         1 UNK         0.3450 
    100 H100      -58.3275  -31.5218   13.2703 H         1 UNK         0.3450 
    101 H101      -55.8993  -27.7308   13.7148 H         1 UNK         0.2987 
    102 H102      -54.7958  -24.8675   12.6884 H         1 UNK         0.0766 
    103 H103      -57.2859  -24.0546   14.2713 H         1 UNK         0.0798 
    104 H104      -55.7915  -23.1235   14.1735 H         1 UNK         0.0798 
    105 H105      -56.7629  -23.3800   12.7361 H         1 UNK         0.0798 
    106 H106      -53.9594  -25.5636   14.5758 H         1 UNK         0.3198 
    107 H107      -54.2205  -25.4630   17.2061 H         1 UNK         0.0843 
    108 H108      -55.7304  -28.0723   17.7467 H         1 UNK         0.0831 
    109 H109      -56.0410  -26.5047   18.4698 H         1 UNK         0.0831 
    110 H110      -54.5436  -27.3481   18.8328 H         1 UNK         0.0831 
    111 H111      -52.5536  -26.5904   16.3056 H         1 UNK         0.3133 
    112 H112      -51.7988  -29.8930   15.7571 H         1 UNK         0.0566 
    113 H113      -51.0611  -29.3226   13.4254 H         1 UNK         0.0814 
    114 H114      -52.7810  -29.6684   13.5010 H         1 UNK         0.0814 
    115 H115      -52.2359  -28.0046   13.3879 H         1 UNK         0.0814 
    116 H116      -50.3735  -27.5177   15.0296 H         1 UNK         0.3091 
    117 H117      -49.0877  -26.7991   18.2843 H         1 UNK         0.0702 
    118 H118      -46.9699  -26.9861   16.9911 H         1 UNK         0.0785 
    119 H119      -47.7897  -27.9192   15.7398 H         1 UNK         0.0785 
    120 H120      -47.6198  -28.5749   17.3607 H         1 UNK         0.0785 
    121 H121      -48.9147  -25.7076   15.5708 H         1 UNK         0.2998 
    122 H122      -51.2725  -23.1096   16.1636 H         1 UNK         0.0697 
    123 H123      -48.2163  -22.9424   15.9398 H         1 UNK         0.0825 
    124 H124      -49.1839  -22.2233   17.2205 H         1 UNK         0.0825 
    125 H125      -49.3566  -21.6498   15.5700 H         1 UNK         0.0825 
    126 H126      -49.5256  -23.6866   13.9690 H         1 UNK         0.3029 
    127 H127      -51.5910  -26.0647   12.3247 H         1 UNK         0.0897 
    128 H128      -51.5460  -24.3497   10.5057 H         1 UNK         0.0792 
    129 H129      -51.2198  -23.0907   11.6889 H         1 UNK         0.0792 
    130 H130      -52.7494  -23.9574   11.7254 H         1 UNK         0.0792 
    131 H131      -49.3035  -24.7642   11.3758 H         1 UNK         0.3086 
    132 H132      -46.7669  -26.1709   13.2357 H         1 UNK         0.0583 
    133 H133      -45.8893  -27.4215   11.2599 H         1 UNK         0.1020 
    134 H134      -46.9765  -28.3296   12.2522 H         1 UNK         0.1020 
    135 H135      -48.3116  -30.1444   10.7338 H         1 UNK         0.0694 
    136 H136      -49.2186  -29.0495   11.7470 H         1 UNK         0.0694 
    137 H137      -46.7464  -25.0972   10.5916 H         1 UNK         0.2989 
    138 H138      -47.1173  -21.7246   11.4395 H         1 UNK         0.1055 
    139 H139      -44.7897  -22.0238   12.3211 H         1 UNK         0.0806 
    140 H140      -44.7739  -21.3848   10.6860 H         1 UNK         0.0806 
    141 H141      -44.4044  -23.0851   10.9720 H         1 UNK         0.0806 
    142 H142      -46.0381  -22.9584    9.0933 H         1 UNK         0.3061 
    143 H143      -49.1485  -23.6682    7.5049 H         1 UNK         0.0734 
    144 H144      -46.9331  -21.6163    7.0086 H         1 UNK         0.0832 
    145 H145      -48.0532  -22.2444    5.8008 H         1 UNK         0.0832 
    146 H146      -48.6509  -21.2827    7.1434 H         1 UNK         0.0832 
    147 H147      -47.7511  -25.2546    6.9677 H         1 UNK         0.3156 
    148 H148      -44.3791  -25.5077    6.1543 H         1 UNK         0.0589 
    149 H149      -45.6269  -26.9240    8.5658 H         1 UNK         0.0808 
    150 H150      -44.2545  -27.5009    7.6230 H         1 UNK         0.0808 
    151 H151      -44.1138  -26.0321    8.5733 H         1 UNK         0.0808 
    152 H152      -46.5820  -27.3930    6.3310 H         1 UNK         0.3098 
    153 H153      -47.7522  -26.7947    3.0240 H         1 UNK         0.0720 
    154 H154      -47.1717  -29.1876    2.7298 H         1 UNK         0.0791 
    155 H155      -46.0830  -29.1254    4.1161 H         1 UNK         0.0791 
    156 H156      -45.7216  -28.2006    2.6652 H         1 UNK         0.0791 
    157 H157      -48.3950  -28.7899    4.9764 H         1 UNK         0.3028 
@<TRIPOS>BOND
     1    1    2 1    
     2    1   82 1    
     3    1   83 1    
     4    1   84 1    
     5    2    3 2    
     6    2    4 am   BACKBONE|DICT|INTERRES
     7    4    5 1    
     8    4   85 1    
     9    5    6 1    
    10    5   80 1    
    11    5   86 1    
    12    6    7 1    
    13    6   87 1    
    14    6   88 1    
    15    7    8 1    
    16    8    9 1    
    17    8   89 1    
    18    8   90 1    
    19    9   10 ar   
    20    9   14 ar   
    21   10   11 ar   
    22   10   91 1    
    23   11   12 ar   
    24   11   58 1    
    25   12   13 ar   
    26   12   92 1    
    27   13   14 ar   
    28   13   15 1    
    29   14   93 1    
    30   15   16 1    
    31   15   94 1    
    32   15   95 1    
    33   16   17 1    
    34   17   18 1    
    35   17   96 1    
    36   17   97 1    
    37   18   19 1    
    38   18   22 1    
    39   18   98 1    
    40   19   20 am   BACKBONE|DICT|INTERRES
    41   19   21 2    
    42   20   99 1    
    43   20  100 1    
    44   22   23 am   BACKBONE|DICT|INTERRES
    45   22  101 1    
    46   23   24 2    
    47   23   25 1    
    48   25   26 1    
    49   25   27 1    
    50   25  102 1    
    51   26  103 1    
    52   26  104 1    
    53   26  105 1    
    54   27   28 am   BACKBONE|DICT|INTERRES
    55   27  106 1    
    56   28   29 2    
    57   28   30 1    
    58   30   31 1    
    59   30   32 1    
    60   30  107 1    
    61   31  108 1    
    62   31  109 1    
    63   31  110 1    
    64   32   33 am   BACKBONE|DICT|INTERRES
    65   32  111 1    
    66   33   34 2    
    67   33   35 1    
    68   35   36 1    
    69   35   37 1    
    70   35  112 1    
    71   36  113 1    
    72   36  114 1    
    73   36  115 1    
    74   37   38 am   BACKBONE|DICT|INTERRES
    75   37  116 1    
    76   38   39 2    
    77   38   40 1    
    78   40   41 1    
    79   40   42 1    
    80   40  117 1    
    81   41  118 1    
    82   41  119 1    
    83   41  120 1    
    84   42   43 am   BACKBONE|DICT|INTERRES
    85   42  121 1    
    86   43   44 2    
    87   43   45 1    
    88   45   46 1    
    89   45   47 1    
    90   45  122 1    
    91   46  123 1    
    92   46  124 1    
    93   46  125 1    
    94   47   48 am   BACKBONE|DICT|INTERRES
    95   47  126 1    
    96   48   49 2    
    97   48   50 1    
    98   50   51 1    
    99   50   52 1    
   100   50  127 1    
   101   51  128 1    
   102   51  129 1    
   103   51  130 1    
   104   52   53 am   BACKBONE|DICT|INTERRES
   105   52  131 1    
   106   53   54 2    
   107   53   55 1    
   108   55   56 1    
   109   55   59 1    
   110   55  132 1    
   111   56   57 1    
   112   56  133 1    
   113   56  134 1    
   114   57   58 1    
   115   58  135 1    
   116   58  136 1    
   117   59   60 am   BACKBONE|DICT|INTERRES
   118   59  137 1    
   119   60   61 2    
   120   60   62 1    
   121   62   63 1    
   122   62   64 1    
   123   62  138 1    
   124   63  139 1    
   125   63  140 1    
   126   63  141 1    
   127   64   65 am   BACKBONE|DICT|INTERRES
   128   64  142 1    
   129   65   66 2    
   130   65   67 1    
   131   67   68 1    
   132   67   69 1    
   133   67  143 1    
   134   68  144 1    
   135   68  145 1    
   136   68  146 1    
   137   69   70 am   BACKBONE|DICT|INTERRES
   138   69  147 1    
   139   70   71 2    
   140   70   72 1    
   141   72   73 1    
   142   72   74 1    
   143   72  148 1    
   144   73  149 1    
   145   73  150 1    
   146   73  151 1    
   147   74   75 am   BACKBONE|DICT|INTERRES
   148   74  152 1    
   149   75   76 2    
   150   75   77 1    
   151   77   78 1    
   152   77   79 1    
   153   77  153 1    
   154   78  154 1    
   155   78  155 1    
   156   78  156 1    
   157   79   80 am   BACKBONE|DICT|INTERRES
   158   79  157 1    
   159   80   81 2    
@<TRIPOS>SUBSTRUCTURE
     1 UNK         1 GROUP             0       ****    0 ROOT    
