@<TRIPOS>MOLECULE
3R207
157   159    1
SMALL
USER_CHARGES


@<TRIPOS>ATOM
      1 CA        -51.9430  -29.8385    6.4554 C.3       0 UNK        -0.1975 
      2 C         -51.4948  -28.8800    5.3668 C.2       0 UNK         0.4852 
      3 O         -50.5995  -29.2018    4.5844 O.2       0 UNK        -0.5216 
      4 N         -52.1051  -27.6907    5.3176 N.am      1 UNK        -0.4461 
      5 CA        -51.9294  -26.6677    4.2768 C.3       1 UNK         0.0864 
      6 C6        -53.1763  -25.7446    4.1300 C.3       14 UNK        -0.0898 
      7 S7        -54.7817  -26.6064    4.2905 S.3       14 UNK        -0.2598 
      8 C8        -55.3882  -25.9586    5.8867 C.3       14 UNK         0.0286 
      9 C9        -54.5979  -26.4859    7.0803 C.ar      14 UNK        -0.0844 
     10 C10       -53.4585  -25.8117    7.5309 C.ar      14 UNK        -0.0881 
     11 C11       -52.7401  -26.2802    8.6336 C.ar      14 UNK        -0.0643 
     12 C12       -53.1875  -27.4144    9.3172 C.ar      14 UNK        -0.0930 
     13 C13       -54.3385  -28.0845    8.8924 C.ar      14 UNK        -0.0827 
     14 C14       -55.0291  -27.6260    7.7650 C.ar      14 UNK        -0.1249 
     15 C15       -54.8700  -29.2746    9.6759 C.3       14 UNK         0.0141 
     16 S16       -54.4175  -30.8553    8.9005 S.3       14 UNK        -0.2313 
     17 C17       -52.8311  -31.2537    9.7122 C.3       14 UNK        -0.0915 
     18 CA        -53.0153  -32.3779   10.7731 C.3       13 UNK         0.0968 
     19 C         -51.6866  -33.0947   11.1711 C.2       13 UNK         0.5732 
     20 N         -51.6097  -33.7225   12.3384 N.am      13 UNK        -0.7310 
     21 O         -50.7266  -33.1210   10.4042 O.2       13 UNK        -0.5035 
     22 N         -53.8693  -31.9381   11.8944 N.am      13 UNK        -0.4233 
     23 C         -53.5117  -31.1162   12.8910 C.2       13 UNK         0.4989 
     24 O         -52.3627  -30.7087   13.0709 O.2       13 UNK        -0.4996 
     25 CA        -54.6416  -30.7090   13.8592 C.3       12 UNK         0.0216 
     26 CB        -55.0986  -31.9134   14.7024 C.3       12 UNK        -0.1964 
     27 N         -54.2585  -29.6251   14.7700 N.am      12 UNK        -0.4276 
     28 C         -53.9623  -28.3679   14.4135 C.2       12 UNK         0.5020 
     29 O         -54.0610  -27.9423   13.2596 O.2       12 UNK        -0.5489 
     30 CA        -53.4674  -27.4513   15.5524 C.3       11 UNK         0.0294 
     31 CB        -52.2802  -28.0709   16.3174 C.3       11 UNK        -0.2019 
     32 N         -53.0541  -26.1342   15.0699 N.am      11 UNK        -0.4493 
     33 C         -53.8703  -25.1136   14.7775 C.2       11 UNK         0.4932 
     34 O         -55.0962  -25.1448   14.9019 O.2       11 UNK        -0.5029 
     35 CA        -53.1564  -23.8327   14.3060 C.3       10 UNK         0.0280 
     36 CB        -54.1021  -22.6361   14.0666 C.3       10 UNK        -0.1976 
     37 N         -52.0406  -23.4943   15.2062 N.am      10 UNK        -0.4242 
     38 C         -52.1348  -23.1396   16.4974 C.2       10 UNK         0.5072 
     39 O         -53.1995  -22.8436   17.0419 O.2       10 UNK        -0.5224 
     40 CA        -50.8570  -23.1411   17.3594 C.3       9 UNK         0.0343 
     41 CB        -51.0805  -23.9634   18.6494 C.3       9 UNK        -0.2003 
     42 N         -49.6405  -23.6190   16.6820 N.am      9 UNK        -0.4272 
     43 C         -48.4033  -23.3340   17.1208 C.2       9 UNK         0.4988 
     44 O         -48.1684  -22.5428   18.0358 O.2       9 UNK        -0.5108 
     45 CA        -47.2259  -24.0808   16.4701 C.3       8 UNK         0.0248 
     46 CB        -47.3755  -25.6068   16.6056 C.3       8 UNK        -0.2001 
     47 N         -47.0236  -23.7242   15.0685 N.am      8 UNK        -0.4140 
     48 C         -46.6267  -22.5243   14.6187 C.2       8 UNK         0.5028 
     49 O         -46.3500  -21.5684   15.3439 O.2       8 UNK        -0.5428 
     50 CA        -46.5337  -22.3614   13.0919 C.3       7 UNK         0.0264 
     51 CB        -45.1645  -22.8232   12.5650 C.3       7 UNK        -0.1988 
     52 N         -47.6057  -23.0983   12.4185 N.am      7 UNK        -0.4454 
     53 C         -48.8714  -22.6601   12.3584 C.2       7 UNK         0.5027 
     54 O         -49.2169  -21.5382   12.7310 O.2       7 UNK        -0.5083 
     55 CA        -49.9496  -23.6260   11.8341 C.3       6 UNK         0.0844 
     56 C56       -50.3308  -23.3119   10.3703 C.3       14 UNK        -0.0967 
     57 S57       -51.9623  -24.0135    9.9680 S.3       14 UNK        -0.2604 
     58 C58       -51.4988  -25.5354    9.0936 C.3       14 UNK         0.0134 
     59 N         -49.5870  -25.0346   12.0170 N.am      6 UNK        -0.4116 
     60 C         -49.6781  -25.7042   13.1752 C.2       5 UNK         0.5034 
     61 O         -50.0904  -25.2127   14.2274 O.2       5 UNK        -0.5045 
     62 CA        -49.1910  -27.1640   13.1767 C.3       5 UNK         0.0224 
     63 CB        -50.3278  -28.0961   12.7330 C.3       5 UNK        -0.1978 
     64 N         -48.0303  -27.4012   12.3168 N.am      5 UNK        -0.4737 
     65 C         -46.8801  -26.7147   12.3341 C.2       4 UNK         0.5027 
     66 O         -46.6187  -25.8529   13.1713 O.2       4 UNK        -0.5211 
     67 CA        -45.8877  -26.9769   11.1872 C.3       4 UNK         0.0297 
     68 CB        -44.6969  -27.8061   11.6922 C.3       4 UNK        -0.1993 
     69 N         -46.4805  -27.6367   10.0154 N.am      4 UNK        -0.4486 
     70 C         -47.4706  -27.1466    9.2549 C.2       3 UNK         0.4961 
     71 O         -48.0356  -26.0680    9.4594 O.2       3 UNK        -0.5105 
     72 CA        -47.9733  -28.0771    8.1416 C.3       3 UNK         0.0299 
     73 CB        -49.1551  -28.9215    8.6475 C.3       3 UNK        -0.1972 
     74 N         -48.3817  -27.3413    6.9457 N.am      3 UNK        -0.4305 
     75 C         -47.5397  -26.7450    6.0891 C.2       2 UNK         0.5006 
     76 O         -46.3148  -26.7567    6.2249 O.2       2 UNK        -0.5106 
     77 CA        -48.1602  -26.0442    4.8648 C.3       2 UNK         0.0296 
     78 CB        -47.2772  -26.1788    3.6096 C.3       2 UNK        -0.2002 
     79 N         -49.4934  -26.5753    4.5673 N.am      2 UNK        -0.4032 
     80 C         -50.6232  -25.8636    4.4890 C.2       1 UNK         0.5000 
     81 O         -50.6596  -24.6376    4.6132 O.2       1 UNK        -0.5238 
     82 H82       -52.0121  -29.3307    7.4164 H         1 UNK         0.0889 
     83 H83       -51.2430  -30.6672    6.5567 H         1 UNK         0.0889 
     84 H84       -52.9223  -30.2501    6.2133 H         1 UNK         0.0889 
     85 H85       -52.8298  -27.4820    5.9938 H         1 UNK         0.3028 
     86 H86       -51.8157  -27.1915    3.3249 H         1 UNK         0.0864 
     87 H87       -53.1580  -24.9203    4.8415 H         1 UNK         0.0720 
     88 H88       -53.1553  -25.2664    3.1492 H         1 UNK         0.0720 
     89 H89       -56.4389  -26.2324    5.9936 H         1 UNK         0.0814 
     90 H90       -55.3668  -24.8677    5.8716 H         1 UNK         0.0814 
     91 H91       -53.1267  -24.9099    7.0364 H         1 UNK         0.1469 
     92 H92       -52.6565  -27.7625   10.1927 H         1 UNK         0.1381 
     93 H93       -55.9190  -28.1455    7.4358 H         1 UNK         0.1206 
     94 H94       -54.5212  -29.2452   10.7091 H         1 UNK         0.0813 
     95 H95       -55.9579  -29.2124    9.7270 H         1 UNK         0.0813 
     96 H96       -52.3881  -30.3605   10.1552 H         1 UNK         0.0638 
     97 H97       -52.1499  -31.5709    8.9214 H         1 UNK         0.0638 
     98 H98       -53.5801  -33.1746   10.2876 H         1 UNK         0.0568 
     99 H99       -50.7553  -34.1938   12.5890 H         1 UNK         0.3450 
    100 H100      -52.3875  -33.7097   12.9778 H         1 UNK         0.3450 
    101 H101      -54.8273  -32.2526   11.8486 H         1 UNK         0.2987 
    102 H102      -55.4837  -30.3569   13.2596 H         1 UNK         0.0766 
    103 H103      -55.4620  -32.7274   14.0741 H         1 UNK         0.0798 
    104 H104      -55.9156  -31.6422   15.3716 H         1 UNK         0.0798 
    105 H105      -54.2852  -32.3111   15.3110 H         1 UNK         0.0798 
    106 H106      -54.1236  -29.8876   15.7350 H         1 UNK         0.3198 
    107 H107      -54.2967  -27.3175   16.2506 H         1 UNK         0.0843 
    108 H108      -51.9048  -27.3911   17.0829 H         1 UNK         0.0831 
    109 H109      -51.4500  -28.3142   15.6537 H         1 UNK         0.0831 
    110 H110      -52.5662  -28.9899   16.8294 H         1 UNK         0.0831 
    111 H111      -52.0656  -26.0076   14.8987 H         1 UNK         0.3133 
    112 H112      -52.7194  -24.0885   13.3417 H         1 UNK         0.0566 
    113 H113      -53.5508  -21.7560   13.7363 H         1 UNK         0.0814 
    114 H114      -54.6628  -22.3669   14.9617 H         1 UNK         0.0814 
    115 H115      -54.8315  -22.8721   13.2910 H         1 UNK         0.0814 
    116 H116      -51.1289  -23.7634   14.8537 H         1 UNK         0.3091 
    117 H117      -50.7026  -22.0974   17.6416 H         1 UNK         0.0702 
    118 H118      -50.2355  -23.8828   19.3329 H         1 UNK         0.0785 
    119 H119      -51.2298  -25.0204   18.4260 H         1 UNK         0.0785 
    120 H120      -51.9582  -23.6184   19.1974 H         1 UNK         0.0785 
    121 H121      -49.7509  -24.2820   15.9213 H         1 UNK         0.2998 
    122 H122      -46.3211  -23.7939   17.0102 H         1 UNK         0.0697 
    123 H123      -48.2384  -25.9871   16.0609 H         1 UNK         0.0825 
    124 H124      -47.4980  -25.8946   17.6506 H         1 UNK         0.0825 
    125 H125      -46.4928  -26.1243   16.2288 H         1 UNK         0.0825 
    126 H126      -47.1273  -24.4734   14.3898 H         1 UNK         0.3029 
    127 H127      -46.6375  -21.2982   12.8625 H         1 UNK         0.0897 
    128 H128      -44.9652  -23.8695   12.7959 H         1 UNK         0.0792 
    129 H129      -44.3615  -22.2362   13.0128 H         1 UNK         0.0792 
    130 H130      -45.0924  -22.6981   11.4845 H         1 UNK         0.0792 
    131 H131      -47.3979  -24.0480   12.1405 H         1 UNK         0.3086 
    132 H132      -50.8251  -23.4208   12.4485 H         1 UNK         0.0583 
    133 H133      -50.4041  -22.2343   10.2084 H         1 UNK         0.1020 
    134 H134      -49.5708  -23.6713    9.6733 H         1 UNK         0.1020 
    135 H135      -50.8736  -25.2911    8.2331 H         1 UNK         0.0694 
    136 H136      -50.8968  -26.1633    9.7507 H         1 UNK         0.0694 
    137 H137      -49.2006  -25.5078   11.2081 H         1 UNK         0.2989 
    138 H138      -48.9074  -27.4170   14.1998 H         1 UNK         0.1055 
    139 H139      -51.2341  -27.9195   13.3106 H         1 UNK         0.0806 
    140 H140      -50.5868  -27.9536   11.6835 H         1 UNK         0.0806 
    141 H141      -50.0602  -29.1438   12.8716 H         1 UNK         0.0806 
    142 H142      -48.1390  -28.0998   11.5972 H         1 UNK         0.3061 
    143 H143      -45.5142  -26.0038   10.8612 H         1 UNK         0.0734 
    144 H144      -45.0043  -28.8022   12.0129 H         1 UNK         0.0832 
    145 H145      -43.9346  -27.9194   10.9211 H         1 UNK         0.0832 
    146 H146      -44.2196  -27.3226   12.5461 H         1 UNK         0.0832 
    147 H147      -46.0971  -28.5402    9.7746 H         1 UNK         0.3156 
    148 H148      -47.1642  -28.7551    7.8607 H         1 UNK         0.0589 
    149 H149      -49.4420  -29.6702    7.9104 H         1 UNK         0.0808 
    150 H150      -48.8958  -29.4615    9.5592 H         1 UNK         0.0808 
    151 H151      -50.0303  -28.3103    8.8688 H         1 UNK         0.0808 
    152 H152      -49.3720  -27.2378    6.7906 H         1 UNK         0.3098 
    153 H153      -48.2233  -24.9855    5.1236 H         1 UNK         0.0720 
    154 H154      -46.2921  -25.7387    3.7699 H         1 UNK         0.0791 
    155 H155      -47.7223  -25.6657    2.7569 H         1 UNK         0.0791 
    156 H156      -47.1294  -27.2232    3.3326 H         1 UNK         0.0791 
    157 H157      -49.5750  -27.5865    4.4769 H         1 UNK         0.3028 
@<TRIPOS>BOND
     1    1    2 1    
     2    1   82 1    
     3    1   83 1    
     4    1   84 1    
     5    2    3 2    
     6    2    4 am   BACKBONE|DICT|INTERRES
     7    4    5 1    
     8    4   85 1    
     9    5    6 1    
    10    5   80 1    
    11    5   86 1    
    12    6    7 1    
    13    6   87 1    
    14    6   88 1    
    15    7    8 1    
    16    8    9 1    
    17    8   89 1    
    18    8   90 1    
    19    9   10 ar   
    20    9   14 ar   
    21   10   11 ar   
    22   10   91 1    
    23   11   12 ar   
    24   11   58 1    
    25   12   13 ar   
    26   12   92 1    
    27   13   14 ar   
    28   13   15 1    
    29   14   93 1    
    30   15   16 1    
    31   15   94 1    
    32   15   95 1    
    33   16   17 1    
    34   17   18 1    
    35   17   96 1    
    36   17   97 1    
    37   18   19 1    
    38   18   22 1    
    39   18   98 1    
    40   19   20 am   BACKBONE|DICT|INTERRES
    41   19   21 2    
    42   20   99 1    
    43   20  100 1    
    44   22   23 am   BACKBONE|DICT|INTERRES
    45   22  101 1    
    46   23   24 2    
    47   23   25 1    
    48   25   26 1    
    49   25   27 1    
    50   25  102 1    
    51   26  103 1    
    52   26  104 1    
    53   26  105 1    
    54   27   28 am   BACKBONE|DICT|INTERRES
    55   27  106 1    
    56   28   29 2    
    57   28   30 1    
    58   30   31 1    
    59   30   32 1    
    60   30  107 1    
    61   31  108 1    
    62   31  109 1    
    63   31  110 1    
    64   32   33 am   BACKBONE|DICT|INTERRES
    65   32  111 1    
    66   33   34 2    
    67   33   35 1    
    68   35   36 1    
    69   35   37 1    
    70   35  112 1    
    71   36  113 1    
    72   36  114 1    
    73   36  115 1    
    74   37   38 am   BACKBONE|DICT|INTERRES
    75   37  116 1    
    76   38   39 2    
    77   38   40 1    
    78   40   41 1    
    79   40   42 1    
    80   40  117 1    
    81   41  118 1    
    82   41  119 1    
    83   41  120 1    
    84   42   43 am   BACKBONE|DICT|INTERRES
    85   42  121 1    
    86   43   44 2    
    87   43   45 1    
    88   45   46 1    
    89   45   47 1    
    90   45  122 1    
    91   46  123 1    
    92   46  124 1    
    93   46  125 1    
    94   47   48 am   BACKBONE|DICT|INTERRES
    95   47  126 1    
    96   48   49 2    
    97   48   50 1    
    98   50   51 1    
    99   50   52 1    
   100   50  127 1    
   101   51  128 1    
   102   51  129 1    
   103   51  130 1    
   104   52   53 am   BACKBONE|DICT|INTERRES
   105   52  131 1    
   106   53   54 2    
   107   53   55 1    
   108   55   56 1    
   109   55   59 1    
   110   55  132 1    
   111   56   57 1    
   112   56  133 1    
   113   56  134 1    
   114   57   58 1    
   115   58  135 1    
   116   58  136 1    
   117   59   60 am   BACKBONE|DICT|INTERRES
   118   59  137 1    
   119   60   61 2    
   120   60   62 1    
   121   62   63 1    
   122   62   64 1    
   123   62  138 1    
   124   63  139 1    
   125   63  140 1    
   126   63  141 1    
   127   64   65 am   BACKBONE|DICT|INTERRES
   128   64  142 1    
   129   65   66 2    
   130   65   67 1    
   131   67   68 1    
   132   67   69 1    
   133   67  143 1    
   134   68  144 1    
   135   68  145 1    
   136   68  146 1    
   137   69   70 am   BACKBONE|DICT|INTERRES
   138   69  147 1    
   139   70   71 2    
   140   70   72 1    
   141   72   73 1    
   142   72   74 1    
   143   72  148 1    
   144   73  149 1    
   145   73  150 1    
   146   73  151 1    
   147   74   75 am   BACKBONE|DICT|INTERRES
   148   74  152 1    
   149   75   76 2    
   150   75   77 1    
   151   77   78 1    
   152   77   79 1    
   153   77  153 1    
   154   78  154 1    
   155   78  155 1    
   156   78  156 1    
   157   79   80 am   BACKBONE|DICT|INTERRES
   158   79  157 1    
   159   80   81 2    
@<TRIPOS>SUBSTRUCTURE
     1 UNK         1 GROUP             0       ****    0 ROOT    
