@<TRIPOS>MOLECULE
3R207
157   159    1
SMALL
USER_CHARGES


@<TRIPOS>ATOM
      1 CA        -46.9322  -30.3669    3.2251 C.3       0 UNK        -0.1975 
      2 C         -47.2750  -29.2482    4.1970 C.2       0 UNK         0.4852 
      3 O         -47.4092  -28.0949    3.7845 O.2       0 UNK        -0.5216 
      4 N         -47.4013  -29.5691    5.4918 N.am      1 UNK        -0.4461 
      5 CA        -47.7387  -28.6412    6.5806 C.3       1 UNK         0.0864 
      6 C6        -48.4526  -29.3965    7.7416 C.3       14 UNK        -0.0898 
      7 S7        -49.8660  -28.4675    8.4206 S.3       14 UNK        -0.2598 
      8 C8        -51.2352  -29.2005    7.4740 C.3       14 UNK         0.0286 
      9 C9        -52.5630  -28.5437    7.8177 C.ar      14 UNK        -0.0844 
     10 C10       -53.0718  -27.5136    7.0207 C.ar      14 UNK        -0.0881 
     11 C11       -54.2982  -26.9136    7.3300 C.ar      14 UNK        -0.0643 
     12 C12       -55.0240  -27.3687    8.4351 C.ar      14 UNK        -0.0930 
     13 C13       -54.5277  -28.4012    9.2365 C.ar      14 UNK        -0.0827 
     14 C14       -53.2965  -28.9839    8.9228 C.ar      14 UNK        -0.1249 
     15 C15       -55.3509  -28.9206   10.4052 C.3       14 UNK         0.0141 
     16 S16       -55.4725  -27.7188   11.7684 S.3       14 UNK        -0.2313 
     17 C17       -56.8527  -28.4749   12.6915 C.3       14 UNK        -0.0915 
     18 CA        -56.7592  -28.3253   14.2313 C.3       13 UNK         0.0968 
     19 C         -58.0457  -28.9088   14.8881 C.2       13 UNK         0.5732 
     20 N         -58.0031  -30.0865   15.5004 N.am      13 UNK        -0.7310 
     21 O         -59.1001  -28.2800   14.8363 O.2       13 UNK        -0.5035 
     22 N         -55.4883  -28.8480   14.7619 N.am      13 UNK        -0.4233 
     23 C         -55.0754  -28.7399   16.0308 C.2       13 UNK         0.4989 
     24 O         -55.7307  -28.1946   16.9194 O.2       13 UNK        -0.4996 
     25 CA        -53.6937  -29.3213   16.3769 C.3       12 UNK         0.0216 
     26 CB        -53.7537  -30.8494   16.5735 C.3       12 UNK        -0.1964 
     27 N         -52.6278  -28.9187   15.4474 N.am      12 UNK        -0.4276 
     28 C         -52.4335  -29.2855   14.1730 C.2       12 UNK         0.5020 
     29 O         -53.1688  -30.0739   13.5763 O.2       12 UNK        -0.5489 
     30 CA        -51.2501  -28.6503   13.4167 C.3       11 UNK         0.0294 
     31 CB        -51.7444  -27.9138   12.1611 C.3       11 UNK        -0.2019 
     32 N         -50.4489  -27.7192   14.2188 N.am      11 UNK        -0.4493 
     33 C         -49.4786  -28.0686   15.0750 C.2       11 UNK         0.4932 
     34 O         -49.1806  -29.2360   15.3254 O.2       11 UNK        -0.5029 
     35 CA        -48.7222  -26.9328   15.7832 C.3       10 UNK         0.0280 
     36 CB        -47.6408  -26.3477   14.8608 C.3       10 UNK        -0.1976 
     37 N         -49.6296  -25.8601   16.1936 N.am      10 UNK        -0.4242 
     38 C         -49.8945  -25.5073   17.4600 C.2       10 UNK         0.5072 
     39 O         -49.3640  -26.0262   18.4434 O.2       10 UNK        -0.5224 
     40 CA        -50.9311  -24.3842   17.6818 C.3       9 UNK         0.0343 
     41 CB        -50.2242  -23.0297   17.8517 C.3       9 UNK        -0.2003 
     42 N         -51.9217  -24.2756   16.6069 N.am      9 UNK        -0.4272 
     43 C         -52.7987  -25.2356   16.2816 C.2       9 UNK         0.4988 
     44 O         -52.9540  -26.2553   16.9495 O.2       9 UNK        -0.5108 
     45 CA        -53.5937  -25.0738   14.9692 C.3       8 UNK         0.0248 
     46 CB        -55.0503  -24.6827   15.2628 C.3       8 UNK        -0.2001 
     47 N         -53.0215  -24.1320   13.9946 N.am      8 UNK        -0.4140 
     48 C         -51.7860  -24.1992   13.4798 C.2       8 UNK         0.5028 
     49 O         -50.9530  -25.0440   13.8132 O.2       8 UNK        -0.5428 
     50 CA        -51.4232  -23.1635   12.4143 C.3       7 UNK         0.0264 
     51 CB        -49.9496  -22.7301   12.5217 C.3       7 UNK        -0.1988 
     52 N         -51.6471  -23.7716   11.1090 N.am      7 UNK        -0.4454 
     53 C         -52.7514  -23.6161   10.3663 C.2       7 UNK         0.5027 
     54 O         -53.6998  -22.9098   10.7154 O.2       7 UNK        -0.5083 
     55 CA        -52.8281  -24.3820    9.0242 C.3       6 UNK         0.0844 
     56 C56       -53.6921  -23.6397    7.9628 C.3       14 UNK        -0.0967 
     57 S57       -53.6792  -24.3946    6.2955 S.3       14 UNK        -0.2604 
     58 C58       -54.8485  -25.7822    6.4692 C.3       14 UNK         0.0134 
     59 N         -51.5207  -24.8231    8.5298 N.am      6 UNK        -0.4116 
     60 C         -50.4990  -24.0582    8.1247 C.2       5 UNK         0.5034 
     61 O         -50.5070  -22.8256    8.1092 O.2       5 UNK        -0.5045 
     62 CA        -49.2417  -24.8286    7.6809 C.3       5 UNK         0.0224 
     63 CB        -48.5896  -24.1683    6.4548 C.3       5 UNK        -0.1978 
     64 N         -48.2319  -25.0266    8.7348 N.am      5 UNK        -0.4737 
     65 C         -48.4442  -25.4457    9.9964 C.2       4 UNK         0.5027 
     66 O         -49.5592  -25.6031   10.4887 O.2       4 UNK        -0.5211 
     67 CA        -47.2280  -25.7855   10.8742 C.3       4 UNK         0.0297 
     68 CB        -47.3253  -27.2364   11.3806 C.3       4 UNK        -0.1993 
     69 N         -45.9559  -25.6198   10.1725 N.am      4 UNK        -0.4486 
     70 C         -45.1621  -24.5450   10.2751 C.2       3 UNK         0.4961 
     71 O         -45.4168  -23.5723   10.9858 O.2       3 UNK        -0.5105 
     72 CA        -43.8593  -24.5410    9.4511 C.3       3 UNK         0.0299 
     73 CB        -42.6612  -24.9052   10.3430 C.3       3 UNK        -0.1972 
     74 N         -43.8824  -25.4370    8.2916 N.am      3 UNK        -0.4305 
     75 C         -44.6854  -25.2932    7.2292 C.2       2 UNK         0.5006 
     76 O         -45.4815  -24.3635    7.1033 O.2       2 UNK        -0.5106 
     77 CA        -44.6218  -26.3755    6.1357 C.3       2 UNK         0.0296 
     78 CB        -43.4229  -27.3426    6.2706 C.3       2 UNK        -0.2002 
     79 N         -45.8732  -27.1358    6.0416 N.am      2 UNK        -0.4032 
     80 C         -46.4994  -27.8158    7.0151 C.2       1 UNK         0.5000 
     81 O         -46.1086  -27.8338    8.1848 O.2       1 UNK        -0.5238 
     82 H82       -46.8441  -31.3305    3.7266 H         1 UNK         0.0889 
     83 H83       -45.9860  -30.1549    2.7281 H         1 UNK         0.0889 
     84 H84       -47.7065  -30.4509    2.4630 H         1 UNK         0.0889 
     85 H85       -47.2354  -30.5247    5.7751 H         1 UNK         0.3028 
     86 H86       -48.4459  -27.9175    6.1688 H         1 UNK         0.0864 
     87 H87       -47.7736  -29.6522    8.5565 H         1 UNK         0.0720 
     88 H88       -48.8351  -30.3587    7.3970 H         1 UNK         0.0720 
     89 H89       -51.2889  -30.2703    7.6823 H         1 UNK         0.0814 
     90 H90       -51.0301  -29.1041    6.4065 H         1 UNK         0.0814 
     91 H91       -52.5114  -27.1700    6.1618 H         1 UNK         0.1469 
     92 H92       -55.9785  -26.9212    8.6765 H         1 UNK         0.1381 
     93 H93       -52.9102  -29.7897    9.5320 H         1 UNK         0.1206 
     94 H94       -54.9306  -29.8501   10.7933 H         1 UNK         0.0813 
     95 H95       -56.3516  -29.1616   10.0433 H         1 UNK         0.0813 
     96 H96       -56.9139  -29.5343   12.4344 H         1 UNK         0.0638 
     97 H97       -57.7728  -28.0198   12.3195 H         1 UNK         0.0638 
     98 H98       -56.7657  -27.2574   14.4564 H         1 UNK         0.0568 
     99 H99       -58.8407  -30.4535   15.9236 H         1 UNK         0.3450 
    100 H100      -57.1430  -30.6080   15.5454 H         1 UNK         0.3450 
    101 H101      -54.8696  -29.3101   14.1012 H         1 UNK         0.2987 
    102 H102      -53.4108  -28.8901   17.3385 H         1 UNK         0.0766 
    103 H103      -54.4665  -31.1103   17.3568 H         1 UNK         0.0798 
    104 H104      -52.7841  -31.2478   16.8722 H         1 UNK         0.0798 
    105 H105      -54.0656  -31.3711   15.6685 H         1 UNK         0.0798 
    106 H106      -52.0005  -28.2161   15.8153 H         1 UNK         0.3198 
    107 H107      -50.6073  -29.4710   13.0914 H         1 UNK         0.0843 
    108 H108      -52.3752  -27.0604   12.4097 H         1 UNK         0.0831 
    109 H109      -52.3328  -28.5754   11.5271 H         1 UNK         0.0831 
    110 H110      -50.9114  -27.5545   11.5583 H         1 UNK         0.0831 
    111 H111      -50.6146  -26.7270   14.0418 H         1 UNK         0.3133 
    112 H112      -48.2239  -27.3658   16.6529 H         1 UNK         0.0566 
    113 H113      -47.0373  -25.6053   15.3829 H         1 UNK         0.0814 
    114 H114      -48.0774  -25.8647   13.9858 H         1 UNK         0.0814 
    115 H115      -46.9633  -27.1259   14.5073 H         1 UNK         0.0814 
    116 H116      -50.1279  -25.3883   15.4420 H         1 UNK         0.3091 
    117 H117      -51.4663  -24.6109   18.6063 H         1 UNK         0.0702 
    118 H118      -50.9343  -22.2379   18.0914 H         1 UNK         0.0785 
    119 H119      -49.6862  -22.7387   16.9484 H         1 UNK         0.0785 
    120 H120      -49.4982  -23.0682   18.6651 H         1 UNK         0.0785 
    121 H121      -51.8604  -23.4637   16.0108 H         1 UNK         0.2998 
    122 H122      -53.6033  -26.0553   14.4903 H         1 UNK         0.0697 
    123 H123      -55.1208  -23.6859   15.6998 H         1 UNK         0.0825 
    124 H124      -55.5077  -25.3806   15.9661 H         1 UNK         0.0825 
    125 H125      -55.6561  -24.6994   14.3565 H         1 UNK         0.0825 
    126 H126      -53.6445  -23.4170   13.6450 H         1 UNK         0.3029 
    127 H127      -52.0474  -22.2764   12.5428 H         1 UNK         0.0897 
    128 H128      -49.7472  -22.2737   13.4913 H         1 UNK         0.0792 
    129 H129      -49.6979  -21.9960   11.7562 H         1 UNK         0.0792 
    130 H130      -49.2659  -23.5724   12.4101 H         1 UNK         0.0792 
    131 H131      -50.9325  -24.4311   10.7991 H         1 UNK         0.3086 
    132 H132      -53.3488  -25.3022    9.2834 H         1 UNK         0.0583 
    133 H133      -54.7265  -23.5622    8.3029 H         1 UNK         0.1020 
    134 H134      -53.3383  -22.6130    7.8516 H         1 UNK         0.1020 
    135 H135      -55.7918  -25.4054    6.8677 H         1 UNK         0.0694 
    136 H136      -55.0699  -26.1777    5.4772 H         1 UNK         0.0694 
    137 H137      -51.3727  -25.8224    8.5681 H         1 UNK         0.2989 
    138 H138      -49.5672  -25.8189    7.3621 H         1 UNK         0.1055 
    139 H139      -48.0968  -23.2310    6.7161 H         1 UNK         0.0806 
    140 H140      -49.3318  -23.9442    5.6871 H         1 UNK         0.0806 
    141 H141      -47.8491  -24.8239    5.9976 H         1 UNK         0.0806 
    142 H142      -47.2710  -24.8861    8.4492 H         1 UNK         0.3061 
    143 H143      -47.2658  -25.1244   11.7421 H         1 UNK         0.0734 
    144 H144      -47.3541  -27.9498   10.5566 H         1 UNK         0.0832 
    145 H145      -46.4804  -27.4936   12.0188 H         1 UNK         0.0832 
    146 H146      -48.2332  -27.3887   11.9662 H         1 UNK         0.0832 
    147 H147      -45.7052  -26.3683    9.5317 H         1 UNK         0.3156 
    148 H148      -43.7123  -23.5239    9.0816 H         1 UNK         0.0589 
    149 H149      -42.7404  -25.9219   10.7304 H         1 UNK         0.0808 
    150 H150      -42.5952  -24.2346   11.2010 H         1 UNK         0.0808 
    151 H151      -41.7201  -24.8237    9.7987 H         1 UNK         0.0808 
    152 H152      -43.2754  -26.2434    8.3252 H         1 UNK         0.3098 
    153 H153      -44.5113  -25.8430    5.1900 H         1 UNK         0.0720 
    154 H154      -42.4761  -26.8009    6.2925 H         1 UNK         0.0791 
    155 H155      -43.3770  -28.0224    5.4195 H         1 UNK         0.0791 
    156 H156      -43.4819  -27.9549    7.1713 H         1 UNK         0.0791 
    157 H157      -46.2901  -27.1898    5.1160 H         1 UNK         0.3028 
@<TRIPOS>BOND
     1    1    2 1    
     2    1   82 1    
     3    1   83 1    
     4    1   84 1    
     5    2    3 2    
     6    2    4 am   BACKBONE|DICT|INTERRES
     7    4    5 1    
     8    4   85 1    
     9    5    6 1    
    10    5   80 1    
    11    5   86 1    
    12    6    7 1    
    13    6   87 1    
    14    6   88 1    
    15    7    8 1    
    16    8    9 1    
    17    8   89 1    
    18    8   90 1    
    19    9   10 ar   
    20    9   14 ar   
    21   10   11 ar   
    22   10   91 1    
    23   11   12 ar   
    24   11   58 1    
    25   12   13 ar   
    26   12   92 1    
    27   13   14 ar   
    28   13   15 1    
    29   14   93 1    
    30   15   16 1    
    31   15   94 1    
    32   15   95 1    
    33   16   17 1    
    34   17   18 1    
    35   17   96 1    
    36   17   97 1    
    37   18   19 1    
    38   18   22 1    
    39   18   98 1    
    40   19   20 am   BACKBONE|DICT|INTERRES
    41   19   21 2    
    42   20   99 1    
    43   20  100 1    
    44   22   23 am   BACKBONE|DICT|INTERRES
    45   22  101 1    
    46   23   24 2    
    47   23   25 1    
    48   25   26 1    
    49   25   27 1    
    50   25  102 1    
    51   26  103 1    
    52   26  104 1    
    53   26  105 1    
    54   27   28 am   BACKBONE|DICT|INTERRES
    55   27  106 1    
    56   28   29 2    
    57   28   30 1    
    58   30   31 1    
    59   30   32 1    
    60   30  107 1    
    61   31  108 1    
    62   31  109 1    
    63   31  110 1    
    64   32   33 am   BACKBONE|DICT|INTERRES
    65   32  111 1    
    66   33   34 2    
    67   33   35 1    
    68   35   36 1    
    69   35   37 1    
    70   35  112 1    
    71   36  113 1    
    72   36  114 1    
    73   36  115 1    
    74   37   38 am   BACKBONE|DICT|INTERRES
    75   37  116 1    
    76   38   39 2    
    77   38   40 1    
    78   40   41 1    
    79   40   42 1    
    80   40  117 1    
    81   41  118 1    
    82   41  119 1    
    83   41  120 1    
    84   42   43 am   BACKBONE|DICT|INTERRES
    85   42  121 1    
    86   43   44 2    
    87   43   45 1    
    88   45   46 1    
    89   45   47 1    
    90   45  122 1    
    91   46  123 1    
    92   46  124 1    
    93   46  125 1    
    94   47   48 am   BACKBONE|DICT|INTERRES
    95   47  126 1    
    96   48   49 2    
    97   48   50 1    
    98   50   51 1    
    99   50   52 1    
   100   50  127 1    
   101   51  128 1    
   102   51  129 1    
   103   51  130 1    
   104   52   53 am   BACKBONE|DICT|INTERRES
   105   52  131 1    
   106   53   54 2    
   107   53   55 1    
   108   55   56 1    
   109   55   59 1    
   110   55  132 1    
   111   56   57 1    
   112   56  133 1    
   113   56  134 1    
   114   57   58 1    
   115   58  135 1    
   116   58  136 1    
   117   59   60 am   BACKBONE|DICT|INTERRES
   118   59  137 1    
   119   60   61 2    
   120   60   62 1    
   121   62   63 1    
   122   62   64 1    
   123   62  138 1    
   124   63  139 1    
   125   63  140 1    
   126   63  141 1    
   127   64   65 am   BACKBONE|DICT|INTERRES
   128   64  142 1    
   129   65   66 2    
   130   65   67 1    
   131   67   68 1    
   132   67   69 1    
   133   67  143 1    
   134   68  144 1    
   135   68  145 1    
   136   68  146 1    
   137   69   70 am   BACKBONE|DICT|INTERRES
   138   69  147 1    
   139   70   71 2    
   140   70   72 1    
   141   72   73 1    
   142   72   74 1    
   143   72  148 1    
   144   73  149 1    
   145   73  150 1    
   146   73  151 1    
   147   74   75 am   BACKBONE|DICT|INTERRES
   148   74  152 1    
   149   75   76 2    
   150   75   77 1    
   151   77   78 1    
   152   77   79 1    
   153   77  153 1    
   154   78  154 1    
   155   78  155 1    
   156   78  156 1    
   157   79   80 am   BACKBONE|DICT|INTERRES
   158   79  157 1    
   159   80   81 2    
@<TRIPOS>SUBSTRUCTURE
     1 UNK         1 GROUP             0       ****    0 ROOT    
