@<TRIPOS>MOLECULE
3R207
157   159    1
SMALL
USER_CHARGES


@<TRIPOS>ATOM
      1 CA        -46.9476  -30.8532    7.0632 C.3       0 UNK        -0.1975 
      2 C         -47.9085  -29.7845    6.5654 C.2       0 UNK         0.4852 
      3 O         -47.6959  -29.2220    5.4899 O.2       0 UNK        -0.5216 
      4 N         -48.9598  -29.4993    7.3452 N.am      1 UNK        -0.4461 
      5 CA        -49.9945  -28.4923    7.0839 C.3       1 UNK         0.0864 
      6 C6        -51.0299  -28.4551    8.2295 C.3       14 UNK        -0.0898 
      7 S7        -52.1371  -29.9070    8.2100 S.3       14 UNK        -0.2598 
      8 C8        -53.4305  -29.3964    7.0222 C.3       14 UNK         0.0286 
      9 C9        -54.0782  -28.0800    7.4239 C.ar      14 UNK        -0.0844 
     10 C10       -53.7217  -26.8924    6.7774 C.ar      14 UNK        -0.0881 
     11 C11       -54.2057  -25.6643    7.2350 C.ar      14 UNK        -0.0643 
     12 C12       -55.0898  -25.6328    8.3176 C.ar      14 UNK        -0.0930 
     13 C13       -55.4722  -26.8174    8.9535 C.ar      14 UNK        -0.0827 
     14 C14       -54.9762  -28.0396    8.4922 C.ar      14 UNK        -0.1249 
     15 C15       -56.3808  -26.7725   10.1711 C.3       14 UNK         0.0141 
     16 S16       -55.4332  -26.4316   11.6877 S.3       14 UNK        -0.2313 
     17 C17       -54.5220  -27.9996   11.9022 C.3       14 UNK        -0.0915 
     18 CA        -53.5842  -27.9916   13.1421 C.3       13 UNK         0.0968 
     19 C         -54.2860  -28.1787   14.5192 C.2       13 UNK         0.5732 
     20 N         -55.5681  -27.8602   14.6400 N.am      13 UNK        -0.7310 
     21 O         -53.6687  -28.5766   15.5053 O.2       13 UNK        -0.5035 
     22 N         -52.4925  -28.9569   13.0065 N.am      13 UNK        -0.4233 
     23 C         -51.3581  -28.7876   12.3177 C.2       13 UNK         0.4989 
     24 O         -51.0921  -27.7846   11.6532 O.2       13 UNK        -0.4996 
     25 CA        -50.3566  -29.9602   12.4122 C.3       12 UNK         0.0216 
     26 CB        -48.9875  -29.6581   11.7658 C.3       12 UNK        -0.1964 
     27 N         -50.2097  -30.4304   13.7994 N.am      12 UNK        -0.4276 
     28 C         -49.7280  -29.7178   14.8279 C.2       12 UNK         0.5020 
     29 O         -49.1487  -28.6345   14.7201 O.2       12 UNK        -0.5489 
     30 CA        -49.9461  -30.2968   16.2284 C.3       11 UNK         0.0294 
     31 CB        -48.6985  -31.0470   16.7227 C.3       11 UNK        -0.2019 
     32 N         -50.2107  -29.1545   17.0944 N.am      11 UNK        -0.4493 
     33 C         -51.2387  -29.0260   17.9364 C.2       11 UNK         0.4932 
     34 O         -52.0105  -29.9427   18.2230 O.2       11 UNK        -0.5029 
     35 CA        -51.4587  -27.6422   18.5633 C.3       10 UNK         0.0280 
     36 CB        -50.3366  -26.6162   18.2849 C.3       10 UNK        -0.1976 
     37 N         -52.7415  -27.1268   18.0912 N.am      10 UNK        -0.4242 
     38 C         -53.5265  -26.2876   18.7777 C.2       10 UNK         0.5072 
     39 O         -53.2408  -25.8457   19.8933 O.2       10 UNK        -0.5224 
     40 CA        -54.8553  -25.8813   18.1071 C.3       9 UNK         0.0343 
     41 CB        -55.6244  -24.7964   18.8920 C.3       9 UNK        -0.2003 
     42 N         -54.6969  -25.4862   16.7026 N.am      9 UNK        -0.4272 
     43 C         -53.9444  -24.4917   16.2098 C.2       9 UNK         0.4988 
     44 O         -53.2821  -23.7036   16.8887 O.2       9 UNK        -0.5108 
     45 CA        -53.9840  -24.3337   14.6796 C.3       8 UNK         0.0248 
     46 CB        -54.9284  -23.1895   14.2789 C.3       8 UNK        -0.2001 
     47 N         -52.6706  -24.1052   14.0743 N.am      8 UNK        -0.4140 
     48 C         -51.5777  -24.8653   14.2217 C.2       8 UNK         0.5028 
     49 O         -51.5371  -25.8837   14.9126 O.2       8 UNK        -0.5428 
     50 CA        -50.3327  -24.4165   13.4321 C.3       7 UNK         0.0264 
     51 CB        -49.0476  -25.1059   13.9239 C.3       7 UNK        -0.1988 
     52 N         -50.4614  -24.6494   11.9907 N.am      7 UNK        -0.4454 
     53 C         -51.2441  -23.9616   11.1477 C.2       7 UNK         0.5027 
     54 O         -52.0110  -23.0656   11.5109 O.2       7 UNK        -0.5083 
     55 CA        -51.0796  -24.2853    9.6435 C.3       6 UNK         0.0844 
     56 C56       -52.1169  -23.5349    8.7599 C.3       14 UNK        -0.0967 
     57 S57       -52.0074  -23.9886    6.9922 S.3       14 UNK        -0.2604 
     58 C58       -53.7408  -24.3738    6.5781 C.3       14 UNK         0.0134 
     59 N         -49.6909  -24.0575    9.2125 N.am      6 UNK        -0.4116 
     60 C         -49.0132  -22.8981    9.2806 C.2       5 UNK         0.5034 
     61 O         -49.4895  -21.8505    9.7215 O.2       5 UNK        -0.5045 
     62 CA        -47.5682  -22.8826    8.7414 C.3       5 UNK         0.0224 
     63 CB        -46.6863  -21.8148    9.4246 C.3       5 UNK        -0.1978 
     64 N         -46.9037  -24.1900    8.7533 N.am      5 UNK        -0.4737 
     65 C         -46.5895  -24.9519    9.8136 C.2       4 UNK         0.5027 
     66 O         -46.8150  -24.6254   10.9783 O.2       4 UNK        -0.5211 
     67 CA        -45.9291  -26.3173    9.5311 C.3       4 UNK         0.0297 
     68 CB        -46.6693  -27.4488   10.2648 C.3       4 UNK        -0.1993 
     69 N         -45.9124  -26.6210    8.0984 N.am      4 UNK        -0.4486 
     70 C         -44.8715  -26.4333    7.2748 C.2       3 UNK         0.4961 
     71 O         -43.7497  -26.0985    7.6547 O.2       3 UNK        -0.5105 
     72 CA        -45.1266  -26.6152    5.7652 C.3       3 UNK         0.0299 
     73 CB        -44.5734  -27.9635    5.2776 C.3       3 UNK        -0.1972 
     74 N         -46.5447  -26.4977    5.4026 N.am      3 UNK        -0.4305 
     75 C         -47.2249  -25.3393    5.4110 C.2       2 UNK         0.5006 
     76 O         -46.7053  -24.2529    5.6642 O.2       2 UNK        -0.5106 
     77 CA        -48.7445  -25.3917    5.1673 C.3       2 UNK         0.0296 
     78 CB        -49.0648  -25.1453    3.6852 C.3       2 UNK        -0.2002 
     79 N         -49.3690  -26.6437    5.6001 N.am      2 UNK        -0.4032 
     80 C         -49.3820  -27.0964    6.8615 C.2       1 UNK         0.5000 
     81 O         -48.8932  -26.4846    7.8142 O.2       1 UNK        -0.5238 
     82 H82       -47.3764  -31.4367    7.8774 H         1 UNK         0.0889 
     83 H83       -46.0275  -30.3936    7.4218 H         1 UNK         0.0889 
     84 H84       -46.6955  -31.5383    6.2546 H         1 UNK         0.0889 
     85 H85       -49.0772  -30.0095    8.2080 H         1 UNK         0.3028 
     86 H86       -50.5068  -28.7822    6.1645 H         1 UNK         0.0864 
     87 H87       -50.5183  -28.4291    9.1908 H         1 UNK         0.0720 
     88 H88       -51.6200  -27.5402    8.2155 H         1 UNK         0.0720 
     89 H89       -52.9972  -29.3254    6.0236 H         1 UNK         0.0814 
     90 H90       -54.1917  -30.1761    6.9689 H         1 UNK         0.0814 
     91 H91       -53.0188  -26.9131    5.9559 H         1 UNK         0.1469 
     92 H92       -55.4592  -24.6855    8.6860 H         1 UNK         0.1381 
     93 H93       -55.2437  -28.9561    9.0004 H         1 UNK         0.1206 
     94 H94       -57.1331  -25.9932   10.0405 H         1 UNK         0.0813 
     95 H95       -56.9277  -27.7101   10.2814 H         1 UNK         0.0813 
     96 H96       -55.2205  -28.8372   11.9379 H         1 UNK         0.0638 
     97 H97       -53.9228  -28.1421   11.0025 H         1 UNK         0.0638 
     98 H98       -53.1195  -27.0093   13.1895 H         1 UNK         0.0568 
     99 H99       -56.0481  -28.0536   15.5043 H         1 UNK         0.3450 
    100 H100      -56.0836  -27.5349   13.8352 H         1 UNK         0.3450 
    101 H101      -52.5951  -29.7811   13.5805 H         1 UNK         0.2987 
    102 H102      -50.8022  -30.7844   11.8530 H         1 UNK         0.0766 
    103 H103      -49.0926  -29.4847   10.6958 H         1 UNK         0.0798 
    104 H104      -48.2947  -30.4897   11.8918 H         1 UNK         0.0798 
    105 H105      -48.5255  -28.7683   12.1935 H         1 UNK         0.0798 
    106 H106      -50.6241  -31.3310   13.9991 H         1 UNK         0.3198 
    107 H107      -50.8028  -30.9743   16.2117 H         1 UNK         0.0843 
    108 H108      -47.8159  -30.4059   16.7243 H         1 UNK         0.0831 
    109 H109      -48.4796  -31.9036   16.0841 H         1 UNK         0.0831 
    110 H110      -48.8401  -31.4238   17.7357 H         1 UNK         0.0831 
    111 H111      -49.6889  -28.3252   16.8363 H         1 UNK         0.3133 
    112 H112      -51.5123  -27.8040   19.6419 H         1 UNK         0.0566 
    113 H113      -50.2567  -26.3753   17.2241 H         1 UNK         0.0814 
    114 H114      -49.3673  -26.9861   18.6216 H         1 UNK         0.0814 
    115 H115      -50.5206  -25.6821   18.8160 H         1 UNK         0.0814 
    116 H116      -53.0546  -27.4870   17.1936 H         1 UNK         0.3091 
    117 H117      -55.4741  -26.7799   18.1026 H         1 UNK         0.0702 
    118 H118      -56.5743  -24.5585   18.4133 H         1 UNK         0.0785 
    119 H119      -55.0503  -23.8730   18.9755 H         1 UNK         0.0785 
    120 H120      -55.8487  -25.1321   19.9052 H         1 UNK         0.0785 
    121 H121      -55.1887  -26.0676   16.0376 H         1 UNK         0.2998 
    122 H122      -54.3743  -25.2522   14.2449 H         1 UNK         0.0697 
    123 H123      -54.5695  -22.2260   14.6432 H         1 UNK         0.0825 
    124 H124      -55.9268  -23.3432   14.6907 H         1 UNK         0.0825 
    125 H125      -55.0333  -23.1228   13.1955 H         1 UNK         0.0825 
    126 H126      -52.6067  -23.3449   13.4054 H         1 UNK         0.3029 
    127 H127      -50.2137  -23.3432   13.5962 H         1 UNK         0.0897 
    128 H128      -49.0670  -26.1772   13.7206 H         1 UNK         0.0792 
    129 H129      -48.9200  -24.9799   14.9998 H         1 UNK         0.0792 
    130 H130      -48.1635  -24.6902   13.4403 H         1 UNK         0.0792 
    131 H131      -49.9040  -25.4045   11.6154 H         1 UNK         0.3086 
    132 H132      -51.2649  -25.3557    9.5371 H         1 UNK         0.0583 
    133 H133      -53.1257  -23.7358    9.1225 H         1 UNK         0.1020 
    134 H134      -51.9846  -22.4547    8.8418 H         1 UNK         0.1020 
    135 H135      -54.3779  -23.5355    6.8644 H         1 UNK         0.0694 
    136 H136      -53.8305  -24.4703    5.4952 H         1 UNK         0.0694 
    137 H137      -49.2258  -24.8660    8.8081 H         1 UNK         0.2989 
    138 H138      -47.6568  -22.6043    7.6900 H         1 UNK         0.1055 
    139 H139      -46.6142  -21.9776   10.5004 H         1 UNK         0.0806 
    140 H140      -47.0936  -20.8142    9.2751 H         1 UNK         0.0806 
    141 H141      -45.6758  -21.8139    9.0161 H         1 UNK         0.0806 
    142 H142      -46.6731  -24.5502    7.8355 H         1 UNK         0.3061 
    143 H143      -44.9091  -26.2707    9.9178 H         1 UNK         0.0734 
    144 H144      -47.7198  -27.4962    9.9766 H         1 UNK         0.0832 
    145 H145      -46.2195  -28.4200   10.0588 H         1 UNK         0.0832 
    146 H146      -46.6363  -27.3001   11.3449 H         1 UNK         0.0832 
    147 H147      -46.8159  -26.8492    7.6999 H         1 UNK         0.3156 
    148 H148      -44.5804  -25.8249    5.2456 H         1 UNK         0.0589 
    149 H149      -45.0379  -28.8038    5.7918 H         1 UNK         0.0808 
    150 H150      -44.7316  -28.0954    4.2072 H         1 UNK         0.0808 
    151 H151      -43.4994  -28.0296    5.4566 H         1 UNK         0.0808 
    152 H152      -47.0410  -27.3667    5.2202 H         1 UNK         0.3098 
    153 H153      -49.1924  -24.5848    5.7511 H         1 UNK         0.0720 
    154 H154      -50.1403  -25.0818    3.5177 H         1 UNK         0.0791 
    155 H155      -48.6696  -25.9378    3.0484 H         1 UNK         0.0791 
    156 H156      -48.6302  -24.2046    3.3436 H         1 UNK         0.0791 
    157 H157      -49.7490  -27.2301    4.8709 H         1 UNK         0.3028 
@<TRIPOS>BOND
     1    1    2 1    
     2    1   82 1    
     3    1   83 1    
     4    1   84 1    
     5    2    3 2    
     6    2    4 am   BACKBONE|DICT|INTERRES
     7    4    5 1    
     8    4   85 1    
     9    5    6 1    
    10    5   80 1    
    11    5   86 1    
    12    6    7 1    
    13    6   87 1    
    14    6   88 1    
    15    7    8 1    
    16    8    9 1    
    17    8   89 1    
    18    8   90 1    
    19    9   10 ar   
    20    9   14 ar   
    21   10   11 ar   
    22   10   91 1    
    23   11   12 ar   
    24   11   58 1    
    25   12   13 ar   
    26   12   92 1    
    27   13   14 ar   
    28   13   15 1    
    29   14   93 1    
    30   15   16 1    
    31   15   94 1    
    32   15   95 1    
    33   16   17 1    
    34   17   18 1    
    35   17   96 1    
    36   17   97 1    
    37   18   19 1    
    38   18   22 1    
    39   18   98 1    
    40   19   20 am   BACKBONE|DICT|INTERRES
    41   19   21 2    
    42   20   99 1    
    43   20  100 1    
    44   22   23 am   BACKBONE|DICT|INTERRES
    45   22  101 1    
    46   23   24 2    
    47   23   25 1    
    48   25   26 1    
    49   25   27 1    
    50   25  102 1    
    51   26  103 1    
    52   26  104 1    
    53   26  105 1    
    54   27   28 am   BACKBONE|DICT|INTERRES
    55   27  106 1    
    56   28   29 2    
    57   28   30 1    
    58   30   31 1    
    59   30   32 1    
    60   30  107 1    
    61   31  108 1    
    62   31  109 1    
    63   31  110 1    
    64   32   33 am   BACKBONE|DICT|INTERRES
    65   32  111 1    
    66   33   34 2    
    67   33   35 1    
    68   35   36 1    
    69   35   37 1    
    70   35  112 1    
    71   36  113 1    
    72   36  114 1    
    73   36  115 1    
    74   37   38 am   BACKBONE|DICT|INTERRES
    75   37  116 1    
    76   38   39 2    
    77   38   40 1    
    78   40   41 1    
    79   40   42 1    
    80   40  117 1    
    81   41  118 1    
    82   41  119 1    
    83   41  120 1    
    84   42   43 am   BACKBONE|DICT|INTERRES
    85   42  121 1    
    86   43   44 2    
    87   43   45 1    
    88   45   46 1    
    89   45   47 1    
    90   45  122 1    
    91   46  123 1    
    92   46  124 1    
    93   46  125 1    
    94   47   48 am   BACKBONE|DICT|INTERRES
    95   47  126 1    
    96   48   49 2    
    97   48   50 1    
    98   50   51 1    
    99   50   52 1    
   100   50  127 1    
   101   51  128 1    
   102   51  129 1    
   103   51  130 1    
   104   52   53 am   BACKBONE|DICT|INTERRES
   105   52  131 1    
   106   53   54 2    
   107   53   55 1    
   108   55   56 1    
   109   55   59 1    
   110   55  132 1    
   111   56   57 1    
   112   56  133 1    
   113   56  134 1    
   114   57   58 1    
   115   58  135 1    
   116   58  136 1    
   117   59   60 am   BACKBONE|DICT|INTERRES
   118   59  137 1    
   119   60   61 2    
   120   60   62 1    
   121   62   63 1    
   122   62   64 1    
   123   62  138 1    
   124   63  139 1    
   125   63  140 1    
   126   63  141 1    
   127   64   65 am   BACKBONE|DICT|INTERRES
   128   64  142 1    
   129   65   66 2    
   130   65   67 1    
   131   67   68 1    
   132   67   69 1    
   133   67  143 1    
   134   68  144 1    
   135   68  145 1    
   136   68  146 1    
   137   69   70 am   BACKBONE|DICT|INTERRES
   138   69  147 1    
   139   70   71 2    
   140   70   72 1    
   141   72   73 1    
   142   72   74 1    
   143   72  148 1    
   144   73  149 1    
   145   73  150 1    
   146   73  151 1    
   147   74   75 am   BACKBONE|DICT|INTERRES
   148   74  152 1    
   149   75   76 2    
   150   75   77 1    
   151   77   78 1    
   152   77   79 1    
   153   77  153 1    
   154   78  154 1    
   155   78  155 1    
   156   78  156 1    
   157   79   80 am   BACKBONE|DICT|INTERRES
   158   79  157 1    
   159   80   81 2    
@<TRIPOS>SUBSTRUCTURE
     1 UNK         1 GROUP             0       ****    0 ROOT    
