@<TRIPOS>MOLECULE
3R207
157   159    1
SMALL
USER_CHARGES


@<TRIPOS>ATOM
      1 CA        -49.7715  -31.9297    2.9764 C.3       0 UNK        -0.1975 
      2 C         -49.1086  -30.6574    3.4832 C.2       0 UNK         0.4852 
      3 O         -47.9907  -30.3453    3.0718 O.2       0 UNK        -0.5216 
      4 N         -49.7890  -29.9218    4.3744 N.am      1 UNK        -0.4461 
      5 CA        -49.3050  -28.6719    4.9774 C.3       1 UNK         0.0864 
      6 C6        -50.4720  -27.8783    5.6184 C.3       14 UNK        -0.0898 
      7 S7        -50.1684  -26.0804    5.6479 S.3       14 UNK        -0.2598 
      8 C8        -49.8585  -25.7904    7.4158 C.3       14 UNK         0.0286 
      9 C9        -51.1393  -25.8214    8.2350 C.ar      14 UNK        -0.0844 
     10 C10       -52.0047  -24.7258    8.2125 C.ar      14 UNK        -0.0881 
     11 C11       -53.1539  -24.7091    9.0089 C.ar      14 UNK        -0.0643 
     12 C12       -53.4496  -25.8134    9.8141 C.ar      14 UNK        -0.0930 
     13 C13       -52.5952  -26.9196    9.8374 C.ar      14 UNK        -0.0827 
     14 C14       -51.4435  -26.9195    9.0444 C.ar      14 UNK        -0.1249 
     15 C15       -52.8979  -28.1052   10.7378 C.3       14 UNK         0.0141 
     16 S16       -54.1645  -29.1836   10.0103 S.3       14 UNK        -0.2313 
     17 C17       -53.9338  -30.7047   10.9887 C.3       14 UNK        -0.0915 
     18 CA        -55.0834  -30.9645   11.9955 C.3       13 UNK         0.0968 
     19 C         -54.9884  -32.4131   12.5622 C.2       13 UNK         0.5732 
     20 N         -54.6706  -32.6138   13.8361 N.am      13 UNK        -0.7310 
     21 O         -55.2142  -33.3734   11.8296 O.2       13 UNK        -0.5035 
     22 N         -55.1717  -29.9098   13.0223 N.am      13 UNK        -0.4233 
     23 C         -56.2359  -29.7259   13.8153 C.2       13 UNK         0.4989 
     24 O         -57.2872  -30.3593   13.7108 O.2       13 UNK        -0.4996 
     25 CA        -56.1073  -28.6809   14.9323 C.3       12 UNK         0.0216 
     26 CB        -55.5276  -29.3229   16.2036 C.3       12 UNK        -0.1964 
     27 N         -55.2925  -27.5217   14.5623 N.am      12 UNK        -0.4276 
     28 C         -55.7543  -26.4746   13.8611 C.2       12 UNK         0.5020 
     29 O         -56.8651  -26.4613   13.3274 O.2       12 UNK        -0.5489 
     30 CA        -54.8513  -25.2228   13.7488 C.3       11 UNK         0.0294 
     31 CB        -55.6690  -23.9147   13.7142 C.3       11 UNK        -0.2019 
     32 N         -53.8029  -25.1416   14.7732 N.am      11 UNK        -0.4493 
     33 C         -53.9414  -25.1430   16.1087 C.2       11 UNK         0.4932 
     34 O         -55.0282  -25.0651   16.6833 O.2       11 UNK        -0.5029 
     35 CA        -52.6489  -25.3084   16.9418 C.3       10 UNK         0.0280 
     36 CB        -52.9107  -26.0404   18.2745 C.3       10 UNK        -0.1976 
     37 N         -51.5381  -25.9579   16.2260 N.am      10 UNK        -0.4242 
     38 C         -51.5495  -27.1446   15.5917 C.2       10 UNK         0.5072 
     39 O         -52.5423  -27.8738   15.5371 O.2       10 UNK        -0.5224 
     40 CA        -50.2683  -27.5686   14.8475 C.3       9 UNK         0.0343 
     41 CB        -50.5880  -28.1892   13.4772 C.3       9 UNK        -0.2003 
     42 N         -49.3699  -26.4327   14.6376 N.am      9 UNK        -0.4272 
     43 C         -48.1311  -26.3147   15.1337 C.2       9 UNK         0.4988 
     44 O         -47.5572  -27.2017   15.7664 O.2       9 UNK        -0.5108 
     45 CA        -47.4116  -24.9681   14.9183 C.3       8 UNK         0.0248 
     46 CB        -46.3752  -25.0733   13.7890 C.3       8 UNK        -0.2001 
     47 N         -48.3180  -23.8486   14.6415 N.am      8 UNK        -0.4140 
     48 C         -49.2065  -23.3550   15.5166 C.2       8 UNK         0.5028 
     49 O         -49.3536  -23.7903   16.6587 O.2       8 UNK        -0.5428 
     50 CA        -50.1347  -22.2326   15.0234 C.3       7 UNK         0.0264 
     51 CB        -49.5230  -20.8570   15.3320 C.3       7 UNK        -0.1988 
     52 N         -50.4693  -22.3063   13.5979 N.am      7 UNK        -0.4454 
     53 C         -51.0839  -23.3348   12.9941 C.2       7 UNK         0.5027 
     54 O         -51.3808  -24.3881   13.5600 O.2       7 UNK        -0.5083 
     55 CA        -51.3929  -23.1641   11.4960 C.3       6 UNK         0.0844 
     56 C56       -52.7427  -22.4184   11.3121 C.3       14 UNK        -0.0967 
     57 S57       -53.1431  -21.9971    9.5804 S.3       14 UNK        -0.2604 
     58 C58       -54.0489  -23.4792    9.0267 C.3       14 UNK         0.0134 
     59 N         -50.2848  -22.5546   10.7501 N.am      6 UNK        -0.4116 
     60 C         -49.0592  -23.0849   10.6427 C.2       5 UNK         0.5034 
     61 O         -48.6860  -24.0902   11.2520 O.2       5 UNK        -0.5045 
     62 CA        -48.0747  -22.3584    9.7216 C.3       5 UNK         0.0224 
     63 CB        -47.2993  -21.2799   10.4960 C.3       5 UNK        -0.1978 
     64 N         -47.1364  -23.3446    9.1953 N.am      5 UNK        -0.4737 
     65 C         -46.7249  -23.4497    7.9300 C.2       4 UNK         0.5027 
     66 O         -47.0171  -22.6374    7.0524 O.2       4 UNK        -0.5211 
     67 CA        -45.8729  -24.6790    7.5560 C.3       4 UNK         0.0297 
     68 CB        -44.3698  -24.3930    7.7427 C.3       4 UNK        -0.1993 
     69 N         -46.2797  -25.9372    8.2064 N.am      4 UNK        -0.4486 
     70 C         -46.1832  -26.2813    9.5049 C.2       3 UNK         0.4961 
     71 O         -45.6935  -25.5494   10.3636 O.2       3 UNK        -0.5105 
     72 CA        -46.7361  -27.6484    9.9437 C.3       3 UNK         0.0299 
     73 CB        -48.0696  -27.4786   10.6967 C.3       3 UNK        -0.1972 
     74 N         -46.8962  -28.5591    8.8117 N.am      3 UNK        -0.4305 
     75 C         -46.9711  -29.8899    8.8494 C.2       2 UNK         0.5006 
     76 O         -46.9788  -30.5477    9.8914 O.2       2 UNK        -0.5106 
     77 CA        -47.0333  -30.5951    7.4758 C.3       2 UNK         0.0296 
     78 CB        -47.1812  -32.1234    7.6028 C.3       2 UNK        -0.2002 
     79 N         -48.0883  -30.0953    6.5832 N.am      2 UNK        -0.4032 
     80 C         -48.1444  -28.8984    5.9753 C.2       1 UNK         0.5000 
     81 O         -47.3255  -27.9949    6.1744 O.2       1 UNK        -0.5238 
     82 H82       -49.1553  -32.7954    3.2180 H         1 UNK         0.0889 
     83 H83       -49.8881  -31.8859    1.8938 H         1 UNK         0.0889 
     84 H84       -50.7566  -32.0810    3.4172 H         1 UNK         0.0889 
     85 H85       -50.7100  -30.2230    4.6613 H         1 UNK         0.3028 
     86 H86       -48.8970  -28.0732    4.1595 H         1 UNK         0.0864 
     87 H87       -51.3812  -28.0136    5.0302 H         1 UNK         0.0720 
     88 H88       -50.7139  -28.2524    6.6144 H         1 UNK         0.0720 
     89 H89       -49.3837  -24.8158    7.5335 H         1 UNK         0.0814 
     90 H90       -49.1429  -26.5241    7.7856 H         1 UNK         0.0814 
     91 H91       -51.7691  -23.8697    7.5952 H         1 UNK         0.1469 
     92 H92       -54.3385  -25.8114   10.4292 H         1 UNK         0.1381 
     93 H93       -50.7780  -27.7714    9.0671 H         1 UNK         0.1206 
     94 H94       -53.2349  -27.7566   11.7148 H         1 UNK         0.0813 
     95 H95       -51.9855  -28.6791   10.9058 H         1 UNK         0.0813 
     96 H96       -52.9727  -30.6838   11.5049 H         1 UNK         0.0638 
     97 H97       -53.8659  -31.5231   10.2692 H         1 UNK         0.0638 
     98 H98       -56.0174  -30.9362   11.4307 H         1 UNK         0.0568 
     99 H99       -54.6180  -33.5573   14.1863 H         1 UNK         0.3450 
    100 H100      -54.4789  -31.8375   14.4471 H         1 UNK         0.3450 
    101 H101      -54.3439  -29.3573   13.1809 H         1 UNK         0.2987 
    102 H102      -57.1148  -28.3315   15.1698 H         1 UNK         0.0766 
    103 H103      -55.4930  -28.6080   17.0261 H         1 UNK         0.0798 
    104 H104      -54.5154  -29.6969   16.0456 H         1 UNK         0.0798 
    105 H105      -56.1399  -30.1643   16.5314 H         1 UNK         0.0798 
    106 H106      -54.3542  -27.4801   14.9548 H         1 UNK         0.3198 
    107 H107      -54.3273  -25.3136   12.7970 H         1 UNK         0.0843 
    108 H108      -56.3037  -23.8155   14.5954 H         1 UNK         0.0831 
    109 H109      -56.3201  -23.8822   12.8398 H         1 UNK         0.0831 
    110 H110      -55.0228  -23.0385   13.6703 H         1 UNK         0.0831 
    111 H111      -52.8513  -25.1273   14.4101 H         1 UNK         0.3133 
    112 H112      -52.3087  -24.2988   17.1756 H         1 UNK         0.0566 
    113 H113      -51.9979  -26.1306   18.8633 H         1 UNK         0.0814 
    114 H114      -53.3052  -27.0440   18.1109 H         1 UNK         0.0814 
    115 H115      -53.6349  -25.5010   18.8862 H         1 UNK         0.0814 
    116 H116      -50.6738  -25.4280   16.2176 H         1 UNK         0.3091 
    117 H117      -49.7921  -28.3307   15.4671 H         1 UNK         0.0702 
    118 H118      -49.6876  -28.5908   13.0144 H         1 UNK         0.0785 
    119 H119      -51.0112  -27.4470   12.8001 H         1 UNK         0.0785 
    120 H120      -51.2974  -29.0135   13.5610 H         1 UNK         0.0785 
    121 H121      -49.7688  -25.6491   14.1316 H         1 UNK         0.2998 
    122 H122      -46.8788  -24.7405   15.8440 H         1 UNK         0.0697 
    123 H123      -46.8486  -25.2408   12.8224 H         1 UNK         0.0825 
    124 H124      -45.6862  -25.9012   13.9614 H         1 UNK         0.0825 
    125 H125      -45.7765  -24.1657   13.7119 H         1 UNK         0.0825 
    126 H126      -48.3007  -23.4727   13.7030 H         1 UNK         0.3029 
    127 H127      -51.0701  -22.3228   15.5802 H         1 UNK         0.0897 
    128 H128      -48.6007  -20.6897   14.7741 H         1 UNK         0.0792 
    129 H129      -49.2834  -20.7654   16.3926 H         1 UNK         0.0792 
    130 H130      -50.2148  -20.0502   15.0890 H         1 UNK         0.0792 
    131 H131      -50.2499  -21.4926   13.0414 H         1 UNK         0.3086 
    132 H132      -51.5053  -24.1734   11.0994 H         1 UNK         0.0583 
    133 H133      -53.5593  -23.0128   11.7243 H         1 UNK         0.1020 
    134 H134      -52.7435  -21.4821   11.8739 H         1 UNK         0.1020 
    135 H135      -54.9184  -23.6315    9.6681 H         1 UNK         0.0694 
    136 H136      -54.4324  -23.3049    8.0206 H         1 UNK         0.0694 
    137 H137      -50.5178  -21.7297   10.2162 H         1 UNK         0.2989 
    138 H138      -48.6342  -21.8968    8.9046 H         1 UNK         0.1055 
    139 H139      -46.5888  -20.7648    9.8492 H         1 UNK         0.0806 
    140 H140      -46.7414  -21.7063   11.3311 H         1 UNK         0.0806 
    141 H141      -47.9734  -20.5248   10.9024 H         1 UNK         0.0806 
    142 H142      -46.8606  -24.0734    9.8506 H         1 UNK         0.3061 
    143 H143      -46.0367  -24.8483    6.4902 H         1 UNK         0.0734 
    144 H144      -44.1202  -24.1691    8.7801 H         1 UNK         0.0832 
    145 H145      -43.7618  -25.2400    7.4253 H         1 UNK         0.0832 
    146 H146      -44.0636  -23.5323    7.1468 H         1 UNK         0.0832 
    147 H147      -46.7158  -26.5851    7.5622 H         1 UNK         0.3156 
    148 H148      -46.0045  -28.0873   10.6252 H         1 UNK         0.0589 
    149 H149      -48.7872  -26.8943   10.1230 H         1 UNK         0.0808 
    150 H150      -47.9191  -26.9535   11.6397 H         1 UNK         0.0808 
    151 H151      -48.5272  -28.4385   10.9328 H         1 UNK         0.0808 
    152 H152      -46.9020  -28.1565    7.8783 H         1 UNK         0.3098 
    153 H153      -46.0755  -30.4008    6.9886 H         1 UNK         0.0720 
    154 H154      -46.3747  -32.5476    8.2027 H         1 UNK         0.0791 
    155 H155      -47.1427  -32.6094    6.6276 H         1 UNK         0.0791 
    156 H156      -48.1226  -32.3988    8.0799 H         1 UNK         0.0791 
    157 H157      -48.8256  -30.7508    6.3701 H         1 UNK         0.3028 
@<TRIPOS>BOND
     1    1    2 1    
     2    1   82 1    
     3    1   83 1    
     4    1   84 1    
     5    2    3 2    
     6    2    4 am   BACKBONE|DICT|INTERRES
     7    4    5 1    
     8    4   85 1    
     9    5    6 1    
    10    5   80 1    
    11    5   86 1    
    12    6    7 1    
    13    6   87 1    
    14    6   88 1    
    15    7    8 1    
    16    8    9 1    
    17    8   89 1    
    18    8   90 1    
    19    9   10 ar   
    20    9   14 ar   
    21   10   11 ar   
    22   10   91 1    
    23   11   12 ar   
    24   11   58 1    
    25   12   13 ar   
    26   12   92 1    
    27   13   14 ar   
    28   13   15 1    
    29   14   93 1    
    30   15   16 1    
    31   15   94 1    
    32   15   95 1    
    33   16   17 1    
    34   17   18 1    
    35   17   96 1    
    36   17   97 1    
    37   18   19 1    
    38   18   22 1    
    39   18   98 1    
    40   19   20 am   BACKBONE|DICT|INTERRES
    41   19   21 2    
    42   20   99 1    
    43   20  100 1    
    44   22   23 am   BACKBONE|DICT|INTERRES
    45   22  101 1    
    46   23   24 2    
    47   23   25 1    
    48   25   26 1    
    49   25   27 1    
    50   25  102 1    
    51   26  103 1    
    52   26  104 1    
    53   26  105 1    
    54   27   28 am   BACKBONE|DICT|INTERRES
    55   27  106 1    
    56   28   29 2    
    57   28   30 1    
    58   30   31 1    
    59   30   32 1    
    60   30  107 1    
    61   31  108 1    
    62   31  109 1    
    63   31  110 1    
    64   32   33 am   BACKBONE|DICT|INTERRES
    65   32  111 1    
    66   33   34 2    
    67   33   35 1    
    68   35   36 1    
    69   35   37 1    
    70   35  112 1    
    71   36  113 1    
    72   36  114 1    
    73   36  115 1    
    74   37   38 am   BACKBONE|DICT|INTERRES
    75   37  116 1    
    76   38   39 2    
    77   38   40 1    
    78   40   41 1    
    79   40   42 1    
    80   40  117 1    
    81   41  118 1    
    82   41  119 1    
    83   41  120 1    
    84   42   43 am   BACKBONE|DICT|INTERRES
    85   42  121 1    
    86   43   44 2    
    87   43   45 1    
    88   45   46 1    
    89   45   47 1    
    90   45  122 1    
    91   46  123 1    
    92   46  124 1    
    93   46  125 1    
    94   47   48 am   BACKBONE|DICT|INTERRES
    95   47  126 1    
    96   48   49 2    
    97   48   50 1    
    98   50   51 1    
    99   50   52 1    
   100   50  127 1    
   101   51  128 1    
   102   51  129 1    
   103   51  130 1    
   104   52   53 am   BACKBONE|DICT|INTERRES
   105   52  131 1    
   106   53   54 2    
   107   53   55 1    
   108   55   56 1    
   109   55   59 1    
   110   55  132 1    
   111   56   57 1    
   112   56  133 1    
   113   56  134 1    
   114   57   58 1    
   115   58  135 1    
   116   58  136 1    
   117   59   60 am   BACKBONE|DICT|INTERRES
   118   59  137 1    
   119   60   61 2    
   120   60   62 1    
   121   62   63 1    
   122   62   64 1    
   123   62  138 1    
   124   63  139 1    
   125   63  140 1    
   126   63  141 1    
   127   64   65 am   BACKBONE|DICT|INTERRES
   128   64  142 1    
   129   65   66 2    
   130   65   67 1    
   131   67   68 1    
   132   67   69 1    
   133   67  143 1    
   134   68  144 1    
   135   68  145 1    
   136   68  146 1    
   137   69   70 am   BACKBONE|DICT|INTERRES
   138   69  147 1    
   139   70   71 2    
   140   70   72 1    
   141   72   73 1    
   142   72   74 1    
   143   72  148 1    
   144   73  149 1    
   145   73  150 1    
   146   73  151 1    
   147   74   75 am   BACKBONE|DICT|INTERRES
   148   74  152 1    
   149   75   76 2    
   150   75   77 1    
   151   77   78 1    
   152   77   79 1    
   153   77  153 1    
   154   78  154 1    
   155   78  155 1    
   156   78  156 1    
   157   79   80 am   BACKBONE|DICT|INTERRES
   158   79  157 1    
   159   80   81 2    
@<TRIPOS>SUBSTRUCTURE
     1 UNK         1 GROUP             0       ****    0 ROOT    
