@<TRIPOS>MOLECULE
3R207
157   159    1
SMALL
USER_CHARGES


@<TRIPOS>ATOM
      1 CA        -46.6016  -30.3977    7.1640 C.3       0 UNK        -0.1975 
      2 C         -47.3920  -29.1588    6.7744 C.2       0 UNK         0.4852 
      3 O         -47.7019  -28.3384    7.6367 O.2       0 UNK        -0.5216 
      4 N         -47.7061  -29.0045    5.4810 N.am      1 UNK        -0.4461 
      5 CA        -48.5288  -27.9449    4.8694 C.3       1 UNK         0.0864 
      6 C6        -49.9847  -27.9056    5.4068 C.3       14 UNK        -0.0898 
      7 S7        -50.8917  -29.4367    5.0229 S.3       14 UNK        -0.2598 
      8 C8        -52.5123  -29.0760    5.7841 C.3       14 UNK         0.0286 
      9 C9        -52.6226  -29.3269    7.2908 C.ar      14 UNK        -0.0844 
     10 C10       -51.6874  -30.0859    8.0114 C.ar      14 UNK        -0.0881 
     11 C11       -51.8778  -30.3490    9.3726 C.ar      14 UNK        -0.0643 
     12 C12       -53.0112  -29.8497   10.0157 C.ar      14 UNK        -0.0930 
     13 C13       -53.9480  -29.0888    9.3165 C.ar      14 UNK        -0.0827 
     14 C14       -53.7461  -28.8268    7.9589 C.ar      14 UNK        -0.1249 
     15 C15       -55.1926  -28.5883   10.0289 C.3       14 UNK         0.0141 
     16 S16       -54.8858  -27.0053   10.8640 S.3       14 UNK        -0.2313 
     17 C17       -56.4337  -26.8214   11.8125 C.3       14 UNK        -0.0915 
     18 CA        -56.2232  -26.5687   13.3363 C.3       13 UNK         0.0968 
     19 C         -57.5813  -26.3942   14.0798 C.2       13 UNK         0.5732 
     20 N         -57.8330  -27.0576   15.2030 N.am      13 UNK        -0.7310 
     21 O         -58.4200  -25.6084   13.6450 O.2       13 UNK        -0.5035 
     22 N         -55.2810  -27.4897   13.9944 N.am      13 UNK        -0.4233 
     23 C         -55.3413  -28.8269   14.0239 C.2       13 UNK         0.4989 
     24 O         -56.1777  -29.5033   13.4250 O.2       13 UNK        -0.4996 
     25 CA        -54.3144  -29.5294   14.9285 C.3       12 UNK         0.0216 
     26 CB        -52.9090  -29.4849   14.3055 C.3       12 UNK        -0.1964 
     27 N         -54.2644  -28.9704   16.2833 N.am      12 UNK        -0.4276 
     28 C         -55.2867  -28.8915   17.1458 C.2       12 UNK         0.5020 
     29 O         -56.4277  -29.2765   16.8893 O.2       12 UNK        -0.5489 
     30 CA        -55.0113  -28.2509   18.5197 C.3       11 UNK         0.0294 
     31 CB        -54.3405  -29.2509   19.4826 C.3       11 UNK        -0.2019 
     32 N         -54.2810  -26.9767   18.4485 N.am      11 UNK        -0.4493 
     33 C         -53.0193  -26.7585   18.0562 C.2       11 UNK         0.4932 
     34 O         -52.2178  -27.6484   17.7610 O.2       11 UNK        -0.5029 
     35 CA        -52.5972  -25.2850   17.9385 C.3       10 UNK         0.0280 
     36 CB        -51.7561  -24.8685   19.1556 C.3       10 UNK        -0.1976 
     37 N         -51.8429  -25.0157   16.7106 N.am      10 UNK        -0.4242 
     38 C         -52.2627  -25.2740   15.4636 C.2       10 UNK         0.5072 
     39 O         -53.3544  -25.7829   15.1896 O.2       10 UNK        -0.5224 
     40 CA        -51.2738  -24.9217   14.3396 C.3       9 UNK         0.0343 
     41 CB        -50.2098  -26.0207   14.1884 C.3       9 UNK        -0.2003 
     42 N         -51.9551  -24.7247   13.0582 N.am      9 UNK        -0.4272 
     43 C         -52.7324  -23.6683   12.7720 C.2       9 UNK         0.4988 
     44 O         -52.8898  -22.7172   13.5410 O.2       9 UNK        -0.5108 
     45 CA        -53.4701  -23.6723   11.4156 C.3       8 UNK         0.0248 
     46 CB        -53.7906  -22.2524   10.8998 C.3       8 UNK        -0.2001 
     47 N         -52.8009  -24.4733   10.3828 N.am      8 UNK        -0.4140 
     48 C         -51.5858  -24.2612    9.8599 C.2       8 UNK         0.5028 
     49 O         -50.8733  -23.2960   10.1362 O.2       8 UNK        -0.5428 
     50 CA        -51.0700  -25.3310    8.8801 C.3       7 UNK         0.0264 
     51 CB        -50.6671  -24.6999    7.5363 C.3       7 UNK        -0.1988 
     52 N         -49.9463  -26.0927    9.4417 N.am      7 UNK        -0.4454 
     53 C         -50.0557  -26.8828   10.5233 C.2       7 UNK         0.5027 
     54 O         -51.0913  -26.9636   11.1869 O.2       7 UNK        -0.5083 
     55 CA        -48.8443  -27.7343   10.9555 C.3       6 UNK         0.0844 
     56 C56       -48.9511  -29.1889   10.4161 C.3       14 UNK        -0.0967 
     57 S57       -50.0092  -30.2653   11.4364 S.3       14 UNK        -0.2604 
     58 C58       -50.8869  -31.2073   10.1478 C.3       14 UNK         0.0134 
     59 N         -47.5452  -27.1285   10.6365 N.am      6 UNK        -0.4116 
     60 C         -46.4125  -27.4723   11.2673 C.2       5 UNK         0.5034 
     61 O         -46.3754  -28.2022   12.2590 O.2       5 UNK        -0.5045 
     62 CA        -45.0879  -26.9546   10.6939 C.3       5 UNK         0.0224 
     63 CB        -44.7800  -27.6018    9.3337 C.3       5 UNK        -0.1978 
     64 N         -45.0784  -25.5004   10.5565 N.am      5 UNK        -0.4737 
     65 C         -44.4342  -24.6662   11.3847 C.2       4 UNK         0.5027 
     66 O         -43.8350  -25.0354   12.3953 O.2       4 UNK        -0.5211 
     67 CA        -44.4109  -23.1703   11.0180 C.3       4 UNK         0.0297 
     68 CB        -43.0144  -22.7652   10.5169 C.3       4 UNK        -0.1993 
     69 N         -45.3982  -22.8147    9.9986 N.am      4 UNK        -0.4486 
     70 C         -46.7021  -22.6342   10.2399 C.2       3 UNK         0.4961 
     71 O         -47.2035  -22.6731   11.3633 O.2       3 UNK        -0.5105 
     72 CA        -47.5972  -22.3899    9.0145 C.3       3 UNK         0.0299 
     73 CB        -47.7564  -20.8840    8.7518 C.3       3 UNK        -0.1972 
     74 N         -47.1354  -23.0549    7.7895 N.am      3 UNK        -0.4305 
     75 C         -47.0602  -24.3816    7.6201 C.2       2 UNK         0.5006 
     76 O         -47.3027  -25.2077    8.5065 O.2       2 UNK        -0.5106 
     77 CA        -46.6181  -24.8642    6.2366 C.3       2 UNK         0.0296 
     78 CB        -45.0870  -24.9903    6.1710 C.3       2 UNK        -0.2002 
     79 N         -47.2232  -26.1682    5.9864 N.am      2 UNK        -0.4032 
     80 C         -47.8901  -26.5358    4.8886 C.2       1 UNK         0.5000 
     81 O         -48.0129  -25.8139    3.8969 O.2       1 UNK        -0.5238 
     82 H82       -46.5251  -31.1071    6.3404 H         1 UNK         0.0889 
     83 H83       -47.0859  -30.9010    8.0003 H         1 UNK         0.0889 
     84 H84       -45.5941  -30.1186    7.4698 H         1 UNK         0.0889 
     85 H85       -47.3841  -29.7041    4.8268 H         1 UNK         0.3028 
     86 H86       -48.5855  -28.2128    3.8128 H         1 UNK         0.0864 
     87 H87       -50.5372  -27.0766    4.9599 H         1 UNK         0.0720 
     88 H88       -50.0047  -27.7471    6.4862 H         1 UNK         0.0720 
     89 H89       -53.2579  -29.6986    5.2879 H         1 UNK         0.0814 
     90 H90       -52.7840  -28.0427    5.5624 H         1 UNK         0.0814 
     91 H91       -50.8183  -30.4954    7.5174 H         1 UNK         0.1469 
     92 H92       -53.1659  -30.0577   11.0641 H         1 UNK         0.1381 
     93 H93       -54.4815  -28.2501    7.4143 H         1 UNK         0.1206 
     94 H94       -56.0155  -28.4707    9.3223 H         1 UNK         0.0813 
     95 H95       -55.5173  -29.3303   10.7598 H         1 UNK         0.0813 
     96 H96       -56.9813  -25.9883   11.3687 H         1 UNK         0.0638 
     97 H97       -57.0628  -27.6997   11.6606 H         1 UNK         0.0638 
     98 H98       -55.7407  -25.5950   13.4264 H         1 UNK         0.0568 
     99 H99       -57.1833  -27.7421   15.5668 H         1 UNK         0.3450 
    100 H100      -58.7159  -26.9127   15.6659 H         1 UNK         0.3450 
    101 H101      -54.5490  -27.0225   14.5268 H         1 UNK         0.2987 
    102 H102      -54.6138  -30.5753   15.0209 H         1 UNK         0.0766 
    103 H103      -52.9015  -29.9604   13.3255 H         1 UNK         0.0798 
    104 H104      -52.1815  -30.0119   14.9229 H         1 UNK         0.0798 
    105 H105      -52.5565  -28.4614   14.1728 H         1 UNK         0.0798 
    106 H106      -53.3728  -28.5966   16.6003 H         1 UNK         0.3198 
    107 H107      -55.9856  -28.0024   18.9444 H         1 UNK         0.0843 
    108 H108      -53.3684  -29.5859   19.1200 H         1 UNK         0.0831 
    109 H109      -54.9595  -30.1402   19.6080 H         1 UNK         0.0831 
    110 H110      -54.1973  -28.8144   20.4710 H         1 UNK         0.0831 
    111 H111      -54.8475  -26.1614   18.6417 H         1 UNK         0.3133 
    112 H112      -53.4936  -24.6622   17.9079 H         1 UNK         0.0566 
    113 H113      -51.4991  -23.8096   19.1199 H         1 UNK         0.0814 
    114 H114      -52.3032  -25.0358   20.0845 H         1 UNK         0.0814 
    115 H115      -50.8282  -25.4389   19.2181 H         1 UNK         0.0814 
    116 H116      -50.9181  -24.6298   16.8330 H         1 UNK         0.3091 
    117 H117      -50.7712  -23.9887   14.6032 H         1 UNK         0.0702 
    118 H118      -49.4684  -25.7485   13.4371 H         1 UNK         0.0785 
    119 H119      -50.6525  -26.9734   13.8960 H         1 UNK         0.0785 
    120 H120      -49.6739  -26.1856   15.1238 H         1 UNK         0.0785 
    121 H121      -51.8774  -25.4784   12.3825 H         1 UNK         0.2998 
    122 H122      -54.4240  -24.1645   11.6059 H         1 UNK         0.0697 
    123 H123      -52.8873  -21.6577   10.7615 H         1 UNK         0.0825 
    124 H124      -54.4268  -21.7146   11.6037 H         1 UNK         0.0825 
    125 H125      -54.3205  -22.2858    9.9480 H         1 UNK         0.0825 
    126 H126      -53.2782  -25.3327   10.1386 H         1 UNK         0.3029 
    127 H127      -51.8722  -26.0460    8.6804 H         1 UNK         0.0897 
    128 H128      -50.2310  -25.4310    6.8591 H         1 UNK         0.0792 
    129 H129      -49.9466  -23.8938    7.6647 H         1 UNK         0.0792 
    130 H130      -51.5372  -24.2726    7.0367 H         1 UNK         0.0792 
    131 H131      -49.0550  -26.0005    8.9684 H         1 UNK         0.3086 
    132 H132      -48.9018  -27.7732   12.0454 H         1 UNK         0.0583 
    133 H133      -49.3042  -29.1905    9.3848 H         1 UNK         0.1020 
    134 H134      -47.9709  -29.6656   10.3815 H         1 UNK         0.1020 
    135 H135      -50.1574  -31.6661    9.4784 H         1 UNK         0.0694 
    136 H136      -51.4258  -32.0290   10.6215 H         1 UNK         0.0694 
    137 H137      -47.4953  -26.5138    9.8292 H         1 UNK         0.2989 
    138 H138      -44.2991  -27.2695   11.3814 H         1 UNK         0.1055 
    139 H139      -45.4894  -27.2949    8.5669 H         1 UNK         0.0806 
    140 H140      -44.8207  -28.6896    9.4011 H         1 UNK         0.0806 
    141 H141      -43.7812  -27.3357    8.9877 H         1 UNK         0.0806 
    142 H142      -45.6170  -25.1136    9.7916 H         1 UNK         0.3061 
    143 H143      -44.6234  -22.6057   11.9286 H         1 UNK         0.0734 
    144 H144      -42.9623  -21.6972   10.3043 H         1 UNK         0.0832 
    145 H145      -42.2528  -22.9806   11.2678 H         1 UNK         0.0832 
    146 H146      -42.7375  -23.3041    9.6099 H         1 UNK         0.0832 
    147 H147      -45.0720  -22.7499    9.0453 H         1 UNK         0.3156 
    148 H148      -48.5777  -22.7966    9.2549 H         1 UNK         0.0589 
    149 H149      -48.4732  -20.6944    7.9527 H         1 UNK         0.0808 
    150 H150      -48.1255  -20.3714    9.6414 H         1 UNK         0.0808 
    151 H151      -46.8099  -20.4178    8.4754 H         1 UNK         0.0808 
    152 H152      -46.9067  -22.4527    7.0111 H         1 UNK         0.3098 
    153 H153      -46.9550  -24.1404    5.4916 H         1 UNK         0.0720 
    154 H154      -44.7640  -25.3444    5.1918 H         1 UNK         0.0791 
    155 H155      -44.7033  -25.6855    6.9181 H         1 UNK         0.0791 
    156 H156      -44.6042  -24.0273    6.3412 H         1 UNK         0.0791 
    157 H157      -47.2536  -26.8063    6.7817 H         1 UNK         0.3028 
@<TRIPOS>BOND
     1    1    2 1    
     2    1   82 1    
     3    1   83 1    
     4    1   84 1    
     5    2    3 2    
     6    2    4 am   BACKBONE|DICT|INTERRES
     7    4    5 1    
     8    4   85 1    
     9    5    6 1    
    10    5   80 1    
    11    5   86 1    
    12    6    7 1    
    13    6   87 1    
    14    6   88 1    
    15    7    8 1    
    16    8    9 1    
    17    8   89 1    
    18    8   90 1    
    19    9   10 ar   
    20    9   14 ar   
    21   10   11 ar   
    22   10   91 1    
    23   11   12 ar   
    24   11   58 1    
    25   12   13 ar   
    26   12   92 1    
    27   13   14 ar   
    28   13   15 1    
    29   14   93 1    
    30   15   16 1    
    31   15   94 1    
    32   15   95 1    
    33   16   17 1    
    34   17   18 1    
    35   17   96 1    
    36   17   97 1    
    37   18   19 1    
    38   18   22 1    
    39   18   98 1    
    40   19   20 am   BACKBONE|DICT|INTERRES
    41   19   21 2    
    42   20   99 1    
    43   20  100 1    
    44   22   23 am   BACKBONE|DICT|INTERRES
    45   22  101 1    
    46   23   24 2    
    47   23   25 1    
    48   25   26 1    
    49   25   27 1    
    50   25  102 1    
    51   26  103 1    
    52   26  104 1    
    53   26  105 1    
    54   27   28 am   BACKBONE|DICT|INTERRES
    55   27  106 1    
    56   28   29 2    
    57   28   30 1    
    58   30   31 1    
    59   30   32 1    
    60   30  107 1    
    61   31  108 1    
    62   31  109 1    
    63   31  110 1    
    64   32   33 am   BACKBONE|DICT|INTERRES
    65   32  111 1    
    66   33   34 2    
    67   33   35 1    
    68   35   36 1    
    69   35   37 1    
    70   35  112 1    
    71   36  113 1    
    72   36  114 1    
    73   36  115 1    
    74   37   38 am   BACKBONE|DICT|INTERRES
    75   37  116 1    
    76   38   39 2    
    77   38   40 1    
    78   40   41 1    
    79   40   42 1    
    80   40  117 1    
    81   41  118 1    
    82   41  119 1    
    83   41  120 1    
    84   42   43 am   BACKBONE|DICT|INTERRES
    85   42  121 1    
    86   43   44 2    
    87   43   45 1    
    88   45   46 1    
    89   45   47 1    
    90   45  122 1    
    91   46  123 1    
    92   46  124 1    
    93   46  125 1    
    94   47   48 am   BACKBONE|DICT|INTERRES
    95   47  126 1    
    96   48   49 2    
    97   48   50 1    
    98   50   51 1    
    99   50   52 1    
   100   50  127 1    
   101   51  128 1    
   102   51  129 1    
   103   51  130 1    
   104   52   53 am   BACKBONE|DICT|INTERRES
   105   52  131 1    
   106   53   54 2    
   107   53   55 1    
   108   55   56 1    
   109   55   59 1    
   110   55  132 1    
   111   56   57 1    
   112   56  133 1    
   113   56  134 1    
   114   57   58 1    
   115   58  135 1    
   116   58  136 1    
   117   59   60 am   BACKBONE|DICT|INTERRES
   118   59  137 1    
   119   60   61 2    
   120   60   62 1    
   121   62   63 1    
   122   62   64 1    
   123   62  138 1    
   124   63  139 1    
   125   63  140 1    
   126   63  141 1    
   127   64   65 am   BACKBONE|DICT|INTERRES
   128   64  142 1    
   129   65   66 2    
   130   65   67 1    
   131   67   68 1    
   132   67   69 1    
   133   67  143 1    
   134   68  144 1    
   135   68  145 1    
   136   68  146 1    
   137   69   70 am   BACKBONE|DICT|INTERRES
   138   69  147 1    
   139   70   71 2    
   140   70   72 1    
   141   72   73 1    
   142   72   74 1    
   143   72  148 1    
   144   73  149 1    
   145   73  150 1    
   146   73  151 1    
   147   74   75 am   BACKBONE|DICT|INTERRES
   148   74  152 1    
   149   75   76 2    
   150   75   77 1    
   151   77   78 1    
   152   77   79 1    
   153   77  153 1    
   154   78  154 1    
   155   78  155 1    
   156   78  156 1    
   157   79   80 am   BACKBONE|DICT|INTERRES
   158   79  157 1    
   159   80   81 2    
@<TRIPOS>SUBSTRUCTURE
     1 UNK         1 GROUP             0       ****    0 ROOT    
