@<TRIPOS>MOLECULE
3R207
157   159    1
SMALL
USER_CHARGES


@<TRIPOS>ATOM
      1 CA        -48.1265  -27.3115   10.1948 C.3       0 UNK        -0.1975 
      2 C         -48.1408  -27.7314    8.7339 C.2       0 UNK         0.4852 
      3 O         -47.1118  -28.1683    8.2159 O.2       0 UNK        -0.5216 
      4 N         -49.3014  -27.6179    8.0737 N.am      1 UNK        -0.4461 
      5 CA        -49.5601  -28.0434    6.6942 C.3       1 UNK         0.0864 
      6 C6        -51.0557  -27.9125    6.3000 C.3       14 UNK        -0.0898 
      7 S7        -51.8494  -26.3262    6.7562 S.3       14 UNK        -0.2598 
      8 C8        -53.2316  -26.8790    7.8075 C.3       14 UNK         0.0286 
      9 C9        -52.8416  -26.9796    9.2761 C.ar      14 UNK        -0.0844 
     10 C10       -53.2276  -25.9782   10.1705 C.ar      14 UNK        -0.0881 
     11 C11       -52.9345  -26.0853   11.5331 C.ar      14 UNK        -0.0643 
     12 C12       -52.2220  -27.1976   11.9993 C.ar      14 UNK        -0.0930 
     13 C13       -51.8158  -28.2013   11.1106 C.ar      14 UNK        -0.0827 
     14 C14       -52.1368  -28.0871    9.7540 C.ar      14 UNK        -0.1249 
     15 C15       -50.9928  -29.3904   11.5946 C.3       14 UNK         0.0141 
     16 S16       -51.7737  -31.0003   11.2333 S.3       14 UNK        -0.2313 
     17 C17       -52.7134  -31.3317   12.7609 C.3       14 UNK        -0.0915 
     18 CA        -54.2505  -31.2578   12.5754 C.3       13 UNK         0.0968 
     19 C         -54.9542  -31.6553   13.9059 C.2       13 UNK         0.5732 
     20 N         -55.4064  -30.7081   14.7187 N.am      13 UNK        -0.7310 
     21 O         -55.0880  -32.8410   14.1997 O.2       13 UNK        -0.5035 
     22 N         -54.6584  -29.9545   12.0357 N.am      13 UNK        -0.4233 
     23 C         -55.9007  -29.6010   11.6889 C.2       13 UNK         0.4989 
     24 O         -56.8642  -30.3694   11.6599 O.2       13 UNK        -0.4996 
     25 CA        -56.0916  -28.1135   11.3442 C.3       12 UNK         0.0216 
     26 CB        -57.0874  -27.9196   10.1871 C.3       12 UNK        -0.1964 
     27 N         -56.5097  -27.2859   12.4848 N.am      12 UNK        -0.4276 
     28 C         -55.9305  -27.2237   13.6929 C.2       12 UNK         0.5020 
     29 O         -54.9924  -27.9360   14.0610 O.2       12 UNK        -0.5489 
     30 CA        -56.4837  -26.1761   14.6649 C.3       11 UNK         0.0294 
     31 CB        -57.7524  -26.6937   15.3622 C.3       11 UNK        -0.2019 
     32 N         -55.4542  -25.9249   15.6694 N.am      11 UNK        -0.4493 
     33 C         -54.9735  -24.7330   16.0362 C.2       11 UNK         0.4932 
     34 O         -55.4276  -23.6617   15.6334 O.2       11 UNK        -0.5029 
     35 CA        -53.7914  -24.7223   17.0264 C.3       10 UNK         0.0280 
     36 CB        -54.2158  -24.0871   18.3619 C.3       10 UNK        -0.1976 
     37 N         -53.2427  -26.0579   17.2937 N.am      10 UNK        -0.4242 
     38 C         -52.2866  -26.6539   16.5699 C.2       10 UNK         0.5072 
     39 O         -51.7412  -26.1439   15.5890 O.2       10 UNK        -0.5224 
     40 CA        -51.8962  -28.0709   17.0079 C.3       9 UNK         0.0343 
     41 CB        -52.8218  -29.1098   16.3554 C.3       9 UNK        -0.2003 
     42 N         -50.5215  -28.3379   16.5969 N.am      9 UNK        -0.4272 
     43 C         -49.5547  -28.8613   17.3559 C.2       9 UNK         0.4988 
     44 O         -49.7294  -29.2426   18.5142 O.2       9 UNK        -0.5108 
     45 CA        -48.1430  -28.9744   16.7432 C.3       8 UNK         0.0248 
     46 CB        -47.9795  -30.3067   15.9838 C.3       8 UNK        -0.2001 
     47 N         -47.7199  -27.8261   15.9218 N.am      8 UNK        -0.4140 
     48 C         -48.2152  -27.4200   14.7455 C.2       8 UNK         0.5028 
     49 O         -49.1411  -27.9822   14.1532 O.2       8 UNK        -0.5428 
     50 CA        -47.5922  -26.1636   14.1292 C.3       7 UNK         0.0264 
     51 CB        -46.2961  -26.4926   13.3665 C.3       7 UNK        -0.1988 
     52 N         -48.5927  -25.6120   13.2260 N.am      7 UNK        -0.4454 
     53 C         -48.6932  -24.3442   12.8238 C.2       7 UNK         0.5027 
     54 O         -47.8717  -23.4640   13.0927 O.2       7 UNK        -0.5083 
     55 CA        -49.9768  -23.9981   12.0459 C.3       6 UNK         0.0844 
     56 C56       -51.0921  -23.5870   13.0338 C.3       14 UNK        -0.0967 
     57 S57       -52.7038  -23.3873   12.2127 S.3       14 UNK        -0.2604 
     58 C58       -53.4506  -25.0237   12.4963 C.3       14 UNK         0.0134 
     59 N         -49.7295  -22.9705   11.0321 N.am      6 UNK        -0.4116 
     60 C         -49.0232  -23.1783    9.9168 C.2       5 UNK         0.5034 
     61 O         -48.5314  -24.2671    9.6061 O.2       5 UNK        -0.5045 
     62 CA        -48.8243  -21.9737    8.9895 C.3       5 UNK         0.0224 
     63 CB        -47.7652  -21.0072    9.5537 C.3       5 UNK        -0.1978 
     64 N         -48.3891  -22.5022    7.7042 N.am      5 UNK        -0.4737 
     65 C         -48.3696  -21.8852    6.5213 C.2       4 UNK         0.5027 
     66 O         -48.7318  -20.7200    6.3515 O.2       4 UNK        -0.5211 
     67 CA        -47.8821  -22.7314    5.3274 C.3       4 UNK         0.0297 
     68 CB        -47.2377  -21.8829    4.2106 C.3       4 UNK        -0.1993 
     69 N         -47.0133  -23.8503    5.7252 N.am      4 UNK        -0.4486 
     70 C         -45.7835  -23.7825    6.2663 C.2       3 UNK         0.4961 
     71 O         -45.1844  -22.7276    6.4766 O.2       3 UNK        -0.5105 
     72 CA        -45.0984  -25.1079    6.6665 C.3       3 UNK         0.0299 
     73 CB        -45.1171  -25.2698    8.1955 C.3       3 UNK        -0.1972 
     74 N         -45.6977  -26.2978    6.0562 N.am      3 UNK        -0.4305 
     75 C         -45.6904  -26.5735    4.7428 C.2       2 UNK         0.5006 
     76 O         -45.0426  -25.9299    3.9164 O.2       2 UNK        -0.5106 
     77 CA        -46.5807  -27.7320    4.2498 C.3       2 UNK         0.0296 
     78 CB        -45.7202  -28.9553    3.8925 C.3       2 UNK        -0.2002 
     79 N         -47.6350  -28.1460    5.1840 N.am      2 UNK        -0.4032 
     80 C         -48.6119  -27.3691    5.6786 C.2       1 UNK         0.5000 
     81 O         -48.7423  -26.1743    5.4014 O.2       1 UNK        -0.5238 
     82 H82       -49.0842  -26.8939   10.5040 H         1 UNK         0.0889 
     83 H83       -47.3587  -26.5573   10.3626 H         1 UNK         0.0889 
     84 H84       -47.9055  -28.1683   10.8298 H         1 UNK         0.0889 
     85 H85       -50.0939  -27.1917    8.5355 H         1 UNK         0.3028 
     86 H86       -49.3365  -29.1123    6.6708 H         1 UNK         0.0864 
     87 H87       -51.1861  -28.0611    5.2263 H         1 UNK         0.0720 
     88 H88       -51.6094  -28.7308    6.7605 H         1 UNK         0.0720 
     89 H89       -53.6220  -27.8350    7.4560 H         1 UNK         0.0814 
     90 H90       -54.0513  -26.1686    7.6899 H         1 UNK         0.0814 
     91 H91       -53.7841  -25.1222    9.8135 H         1 UNK         0.1469 
     92 H92       -51.9919  -27.2832   13.0535 H         1 UNK         0.1381 
     93 H93       -51.8368  -28.8694    9.0712 H         1 UNK         0.1206 
     94 H94       -50.0271  -29.3664   11.0907 H         1 UNK         0.0813 
     95 H95       -50.7745  -29.3130   12.6596 H         1 UNK         0.0813 
     96 H96       -52.3920  -30.6452   13.5452 H         1 UNK         0.0638 
     97 H97       -52.4242  -32.3278   13.1015 H         1 UNK         0.0638 
     98 H98       -54.5375  -32.0071   11.8357 H         1 UNK         0.0568 
     99 H99       -55.2694  -29.7284   14.4809 H         1 UNK         0.3450 
    100 H100      -55.8645  -30.9663   15.5769 H         1 UNK         0.3450 
    101 H101      -53.9491  -29.2357   12.0634 H         1 UNK         0.2987 
    102 H102      -55.1292  -27.7346   11.0054 H         1 UNK         0.0766 
    103 H103      -56.8051  -28.5255    9.3249 H         1 UNK         0.0798 
    104 H104      -57.1135  -26.8817    9.8547 H         1 UNK         0.0798 
    105 H105      -58.1001  -28.2088   10.4714 H         1 UNK         0.0798 
    106 H106      -57.2973  -26.6783   12.3116 H         1 UNK         0.3198 
    107 H107      -56.7104  -25.2641   14.1082 H         1 UNK         0.0843 
    108 H108      -57.5671  -27.6265   15.8969 H         1 UNK         0.0831 
    109 H109      -58.5492  -26.8828   14.6419 H         1 UNK         0.0831 
    110 H110      -58.1318  -25.9669   16.0806 H         1 UNK         0.0831 
    111 H111      -54.9453  -26.7534   15.9475 H         1 UNK         0.3133 
    112 H112      -53.0106  -24.0965   16.5885 H         1 UNK         0.0566 
    113 H113      -55.0099  -24.6564   18.8468 H         1 UNK         0.0814 
    114 H114      -54.5881  -23.0725   18.2123 H         1 UNK         0.0814 
    115 H115      -53.3768  -24.0215   19.0548 H         1 UNK         0.0814 
    116 H116      -53.6368  -26.5548   18.0806 H         1 UNK         0.3091 
    117 H117      -51.9858  -28.1360   18.0943 H         1 UNK         0.0702 
    118 H118      -52.5390  -30.1257   16.6313 H         1 UNK         0.0785 
    119 H119      -52.7943  -29.0388   15.2675 H         1 UNK         0.0785 
    120 H120      -53.8576  -28.9663   16.6645 H         1 UNK         0.0785 
    121 H121      -50.2758  -28.0321   15.6572 H         1 UNK         0.2998 
    122 H122      -47.4468  -28.9966   17.5833 H         1 UNK         0.0697 
    123 H123      -48.1824  -31.1542   16.6398 H         1 UNK         0.0825 
    124 H124      -46.9646  -30.4259   15.6048 H         1 UNK         0.0825 
    125 H125      -48.6645  -30.3838   15.1388 H         1 UNK         0.0825 
    126 H126      -46.9780  -27.2723   16.3281 H         1 UNK         0.3029 
    127 H127      -47.3877  -25.4404   14.9219 H         1 UNK         0.0897 
    128 H128      -46.4517  -27.2751   12.6239 H         1 UNK         0.0792 
    129 H129      -45.5214  -26.8440   14.0488 H         1 UNK         0.0792 
    130 H130      -45.9007  -25.6163   12.8524 H         1 UNK         0.0792 
    131 H131      -49.3355  -26.2730   13.0246 H         1 UNK         0.3086 
    132 H132      -50.3014  -24.9000   11.5221 H         1 UNK         0.0583 
    133 H133      -51.1960  -24.3219   13.8335 H         1 UNK         0.1020 
    134 H134      -50.8393  -22.6473   13.5289 H         1 UNK         0.1020 
    135 H135      -53.3022  -25.3287   13.5325 H         1 UNK         0.0694 
    136 H136      -54.5284  -24.9285   12.3617 H         1 UNK         0.0694 
    137 H137      -50.0889  -22.0493   11.2315 H         1 UNK         0.2989 
    138 H138      -49.7793  -21.4596    8.8619 H         1 UNK         0.1055 
    139 H139      -47.6174  -20.1491    8.8979 H         1 UNK         0.0806 
    140 H140      -46.8004  -21.5007    9.6796 H         1 UNK         0.0806 
    141 H141      -48.0636  -20.6192   10.5283 H         1 UNK         0.0806 
    142 H142      -48.1153  -23.4774    7.7519 H         1 UNK         0.3061 
    143 H143      -48.7778  -23.1928    4.9086 H         1 UNK         0.0734 
    144 H144      -46.3820  -21.3139    4.5746 H         1 UNK         0.0832 
    145 H145      -46.9003  -22.5065    3.3828 H         1 UNK         0.0832 
    146 H146      -47.9521  -21.1657    3.8048 H         1 UNK         0.0832 
    147 H147      -47.4412  -24.7682    5.6191 H         1 UNK         0.3156 
    148 H148      -44.0581  -25.0517    6.3396 H         1 UNK         0.0589 
    149 H149      -44.6107  -26.1833    8.5079 H         1 UNK         0.0808 
    150 H150      -46.1358  -25.3009    8.5828 H         1 UNK         0.0808 
    151 H151      -44.6113  -24.4354    8.6834 H         1 UNK         0.0808 
    152 H152      -46.2273  -26.9057    6.6719 H         1 UNK         0.3098 
    153 H153      -47.0756  -27.3847    3.3406 H         1 UNK         0.0720 
    154 H154      -44.9446  -28.6916    3.1717 H         1 UNK         0.0791 
    155 H155      -46.3200  -29.7466    3.4423 H         1 UNK         0.0791 
    156 H156      -45.2217  -29.3675    4.7709 H         1 UNK         0.0791 
    157 H157      -47.5774  -29.0990    5.5142 H         1 UNK         0.3028 
@<TRIPOS>BOND
     1    1    2 1    
     2    1   82 1    
     3    1   83 1    
     4    1   84 1    
     5    2    3 2    
     6    2    4 am   BACKBONE|DICT|INTERRES
     7    4    5 1    
     8    4   85 1    
     9    5    6 1    
    10    5   80 1    
    11    5   86 1    
    12    6    7 1    
    13    6   87 1    
    14    6   88 1    
    15    7    8 1    
    16    8    9 1    
    17    8   89 1    
    18    8   90 1    
    19    9   10 ar   
    20    9   14 ar   
    21   10   11 ar   
    22   10   91 1    
    23   11   12 ar   
    24   11   58 1    
    25   12   13 ar   
    26   12   92 1    
    27   13   14 ar   
    28   13   15 1    
    29   14   93 1    
    30   15   16 1    
    31   15   94 1    
    32   15   95 1    
    33   16   17 1    
    34   17   18 1    
    35   17   96 1    
    36   17   97 1    
    37   18   19 1    
    38   18   22 1    
    39   18   98 1    
    40   19   20 am   BACKBONE|DICT|INTERRES
    41   19   21 2    
    42   20   99 1    
    43   20  100 1    
    44   22   23 am   BACKBONE|DICT|INTERRES
    45   22  101 1    
    46   23   24 2    
    47   23   25 1    
    48   25   26 1    
    49   25   27 1    
    50   25  102 1    
    51   26  103 1    
    52   26  104 1    
    53   26  105 1    
    54   27   28 am   BACKBONE|DICT|INTERRES
    55   27  106 1    
    56   28   29 2    
    57   28   30 1    
    58   30   31 1    
    59   30   32 1    
    60   30  107 1    
    61   31  108 1    
    62   31  109 1    
    63   31  110 1    
    64   32   33 am   BACKBONE|DICT|INTERRES
    65   32  111 1    
    66   33   34 2    
    67   33   35 1    
    68   35   36 1    
    69   35   37 1    
    70   35  112 1    
    71   36  113 1    
    72   36  114 1    
    73   36  115 1    
    74   37   38 am   BACKBONE|DICT|INTERRES
    75   37  116 1    
    76   38   39 2    
    77   38   40 1    
    78   40   41 1    
    79   40   42 1    
    80   40  117 1    
    81   41  118 1    
    82   41  119 1    
    83   41  120 1    
    84   42   43 am   BACKBONE|DICT|INTERRES
    85   42  121 1    
    86   43   44 2    
    87   43   45 1    
    88   45   46 1    
    89   45   47 1    
    90   45  122 1    
    91   46  123 1    
    92   46  124 1    
    93   46  125 1    
    94   47   48 am   BACKBONE|DICT|INTERRES
    95   47  126 1    
    96   48   49 2    
    97   48   50 1    
    98   50   51 1    
    99   50   52 1    
   100   50  127 1    
   101   51  128 1    
   102   51  129 1    
   103   51  130 1    
   104   52   53 am   BACKBONE|DICT|INTERRES
   105   52  131 1    
   106   53   54 2    
   107   53   55 1    
   108   55   56 1    
   109   55   59 1    
   110   55  132 1    
   111   56   57 1    
   112   56  133 1    
   113   56  134 1    
   114   57   58 1    
   115   58  135 1    
   116   58  136 1    
   117   59   60 am   BACKBONE|DICT|INTERRES
   118   59  137 1    
   119   60   61 2    
   120   60   62 1    
   121   62   63 1    
   122   62   64 1    
   123   62  138 1    
   124   63  139 1    
   125   63  140 1    
   126   63  141 1    
   127   64   65 am   BACKBONE|DICT|INTERRES
   128   64  142 1    
   129   65   66 2    
   130   65   67 1    
   131   67   68 1    
   132   67   69 1    
   133   67  143 1    
   134   68  144 1    
   135   68  145 1    
   136   68  146 1    
   137   69   70 am   BACKBONE|DICT|INTERRES
   138   69  147 1    
   139   70   71 2    
   140   70   72 1    
   141   72   73 1    
   142   72   74 1    
   143   72  148 1    
   144   73  149 1    
   145   73  150 1    
   146   73  151 1    
   147   74   75 am   BACKBONE|DICT|INTERRES
   148   74  152 1    
   149   75   76 2    
   150   75   77 1    
   151   77   78 1    
   152   77   79 1    
   153   77  153 1    
   154   78  154 1    
   155   78  155 1    
   156   78  156 1    
   157   79   80 am   BACKBONE|DICT|INTERRES
   158   79  157 1    
   159   80   81 2    
@<TRIPOS>SUBSTRUCTURE
     1 UNK         1 GROUP             0       ****    0 ROOT    
