@<TRIPOS>MOLECULE
3R207
157   159    1
SMALL
USER_CHARGES


@<TRIPOS>ATOM
      1 CA        -47.4496  -29.2145    9.1964 C.3       0 UNK        -0.1975 
      2 C         -47.9146  -30.2199    8.1456 C.2       0 UNK         0.4852 
      3 O         -47.7163  -31.4171    8.3441 O.2       0 UNK        -0.5216 
      4 N         -48.5302  -29.8182    7.0213 N.am      1 UNK        -0.4461 
      5 CA        -48.8552  -28.4563    6.5598 C.3       1 UNK         0.0864 
      6 C6        -49.8359  -27.6722    7.4799 C.3       14 UNK        -0.0898 
      7 S7        -51.3690  -28.6114    7.7887 S.3       14 UNK        -0.2598 
      8 C8        -52.6281  -27.6617    6.8633 C.3       14 UNK         0.0286 
      9 C9        -53.4505  -26.7230    7.7439 C.ar      14 UNK        -0.0844 
     10 C10       -53.7654  -25.4318    7.3073 C.ar      14 UNK        -0.0881 
     11 C11       -54.5674  -24.5922    8.0892 C.ar      14 UNK        -0.0643 
     12 C12       -55.0574  -25.0547    9.3155 C.ar      14 UNK        -0.0930 
     13 C13       -54.7603  -26.3456    9.7645 C.ar      14 UNK        -0.0827 
     14 C14       -53.9551  -27.1669    8.9697 C.ar      14 UNK        -0.1249 
     15 C15       -55.2859  -26.8118   11.1220 C.3       14 UNK         0.0141 
     16 S16       -55.8983  -28.5318   11.1643 S.3       14 UNK        -0.2313 
     17 C17       -54.3710  -29.4889   11.4730 C.3       14 UNK        -0.0915 
     18 CA        -54.5001  -30.4755   12.6642 C.3       13 UNK         0.0968 
     19 C         -53.3104  -31.4800   12.7264 C.2       13 UNK         0.5732 
     20 N         -52.7373  -31.7822   13.8860 N.am      13 UNK        -0.7310 
     21 O         -52.9066  -32.0220   11.7003 O.2       13 UNK        -0.5035 
     22 N         -54.7259  -29.7740   13.9381 N.am      13 UNK        -0.4233 
     23 C         -55.6343  -30.1383   14.8524 C.2       13 UNK         0.4989 
     24 O         -56.4540  -31.0428   14.6794 O.2       13 UNK        -0.4996 
     25 CA        -55.6166  -29.3728   16.1924 C.3       12 UNK         0.0216 
     26 CB        -56.4103  -30.0916   17.3041 C.3       12 UNK        -0.1964 
     27 N         -54.2667  -29.0413   16.6667 N.am      12 UNK        -0.4276 
     28 C         -53.2458  -29.8864   16.8902 C.2       12 UNK         0.5020 
     29 O         -53.3227  -31.1026   16.7119 O.2       12 UNK        -0.5489 
     30 CA        -51.9010  -29.2863   17.3478 C.3       11 UNK         0.0294 
     31 CB        -50.7316  -29.8590   16.5257 C.3       11 UNK        -0.2019 
     32 N         -51.8884  -27.8293   17.2187 N.am      11 UNK        -0.4493 
     33 C         -52.0697  -26.9535   18.2168 C.2       11 UNK         0.4932 
     34 O         -52.1689  -27.2732   19.4012 O.2       11 UNK        -0.5029 
     35 CA        -52.1984  -25.4682   17.8244 C.3       10 UNK         0.0280 
     36 CB        -50.8614  -24.7403   18.0330 C.3       10 UNK        -0.1976 
     37 N         -52.6545  -25.2761   16.4418 N.am      10 UNK        -0.4242 
     38 C         -53.8772  -25.6168   15.9993 C.2       10 UNK         0.5072 
     39 O         -54.7624  -26.0557   16.7331 O.2       10 UNK        -0.5224 
     40 CA        -54.1457  -25.5442   14.4852 C.3       9 UNK         0.0343 
     41 CB        -54.8415  -24.2248   14.1208 C.3       9 UNK        -0.2003 
     42 N         -52.9359  -25.7035   13.6746 N.am      9 UNK        -0.4272 
     43 C         -52.1711  -26.8078   13.6508 C.2       9 UNK         0.4988 
     44 O         -52.4940  -27.8534   14.2158 O.2       9 UNK        -0.5108 
     45 CA        -50.8071  -26.7380   12.9303 C.3       8 UNK         0.0248 
     46 CB        -50.8600  -27.5161   11.6059 C.3       8 UNK        -0.2001 
     47 N         -50.3284  -25.3776   12.6620 N.am      8 UNK        -0.4140 
     48 C         -50.1482  -24.4087   13.5764 C.2       8 UNK         0.5028 
     49 O         -50.2500  -24.5912   14.7896 O.2       8 UNK        -0.5428 
     50 CA        -49.9180  -22.9770   13.0531 C.3       7 UNK         0.0264 
     51 CB        -48.4339  -22.5994   13.1653 C.3       7 UNK        -0.1988 
     52 N         -50.3863  -22.7836   11.6733 N.am      7 UNK        -0.4454 
     53 C         -51.6628  -22.9371   11.2764 C.2       7 UNK         0.5027 
     54 O         -52.5872  -23.1178   12.0695 O.2       7 UNK        -0.5083 
     55 CA        -51.9684  -22.9911    9.7631 C.3       6 UNK         0.0844 
     56 C56       -53.0413  -21.9537    9.3497 C.3       14 UNK        -0.0967 
     57 S57       -53.4760  -22.0746    7.5782 S.3       14 UNK        -0.2604 
     58 C58       -54.9176  -23.1898    7.6056 C.3       14 UNK         0.0134 
     59 N         -50.7804  -22.9454    8.9051 N.am      6 UNK        -0.4116 
     60 C         -49.8814  -23.9292    8.7916 C.2       5 UNK         0.5034 
     61 O         -49.9174  -24.9577    9.4723 O.2       5 UNK        -0.5045 
     62 CA        -48.7376  -23.7263    7.7767 C.3       5 UNK         0.0224 
     63 CB        -48.5953  -22.2802    7.2469 C.3       5 UNK        -0.1978 
     64 N         -47.4621  -24.2123    8.3143 N.am      5 UNK        -0.4737 
     65 C         -46.8691  -23.7908    9.4419 C.2       4 UNK         0.5027 
     66 O         -47.2638  -22.8328   10.1073 O.2       4 UNK        -0.5211 
     67 CA        -45.6493  -24.5856    9.9314 C.3       4 UNK         0.0297 
     68 CB        -46.1059  -25.7635   10.8079 C.3       4 UNK        -0.1993 
     69 N         -44.8081  -25.0832    8.8416 N.am      4 UNK        -0.4486 
     70 C         -43.9967  -24.3261    8.0941 C.2       3 UNK         0.4961 
     71 O         -43.8777  -23.1086    8.2348 O.2       3 UNK        -0.5105 
     72 CA        -43.1607  -25.0368    7.0124 C.3       3 UNK         0.0299 
     73 CB        -41.9399  -25.7462    7.6314 C.3       3 UNK        -0.1972 
     74 N         -43.9216  -25.9376    6.1339 N.am      3 UNK        -0.4305 
     75 C         -44.5545  -27.0778    6.4416 C.2       2 UNK         0.5006 
     76 O         -44.5875  -27.5755    7.5702 O.2       2 UNK        -0.5106 
     77 CA        -45.2724  -27.7828    5.2785 C.3       2 UNK         0.0296 
     78 CB        -44.3865  -28.8987    4.7015 C.3       2 UNK        -0.2002 
     79 N         -46.5611  -28.3509    5.6804 N.am      2 UNK        -0.4032 
     80 C         -47.5974  -27.6504    6.1656 C.2       1 UNK         0.5000 
     81 O         -47.5774  -26.4273    6.3096 O.2       1 UNK        -0.5238 
     82 H82       -47.0632  -28.2973    8.7596 H         1 UNK         0.0889 
     83 H83       -46.6469  -29.6432    9.7958 H         1 UNK         0.0889 
     84 H84       -48.2700  -28.9677    9.8688 H         1 UNK         0.0889 
     85 H85       -48.8327  -30.5435    6.3858 H         1 UNK         0.3028 
     86 H86       -49.3795  -28.6020    5.6138 H         1 UNK         0.0864 
     87 H87       -49.3784  -27.4324    8.4390 H         1 UNK         0.0720 
     88 H88       -50.0959  -26.7103    7.0359 H         1 UNK         0.0720 
     89 H89       -53.3147  -28.3720    6.4012 H         1 UNK         0.0814 
     90 H90       -52.1581  -27.1203    6.0413 H         1 UNK         0.0814 
     91 H91       -53.3940  -25.0766    6.3558 H         1 UNK         0.1469 
     92 H92       -55.6711  -24.4044    9.9238 H         1 UNK         0.1381 
     93 H93       -53.7166  -28.1658    9.2963 H         1 UNK         0.1206 
     94 H94       -56.1011  -26.1647   11.4490 H         1 UNK         0.0813 
     95 H95       -54.4947  -26.6968   11.8548 H         1 UNK         0.0813 
     96 H96       -54.1527  -30.0328   10.5525 H         1 UNK         0.0638 
     97 H97       -53.5313  -28.8136   11.6349 H         1 UNK         0.0638 
     98 H98       -55.3654  -31.1033   12.4459 H         1 UNK         0.0568 
     99 H99       -53.0799  -31.4089   14.7645 H         1 UNK         0.3450 
    100 H100      -51.9771  -32.4424   13.8914 H         1 UNK         0.3450 
    101 H101      -54.0430  -29.0578   14.1672 H         1 UNK         0.2987 
    102 H102      -56.1129  -28.4210   15.9975 H         1 UNK         0.0766 
    103 H103      -55.9950  -31.0758   17.5239 H         1 UNK         0.0798 
    104 H104      -56.4100  -29.5135   18.2282 H         1 UNK         0.0798 
    105 H105      -57.4522  -30.2343   17.0146 H         1 UNK         0.0798 
    106 H106      -54.1111  -28.0542   16.8371 H         1 UNK         0.3198 
    107 H107      -51.7587  -29.5745   18.3914 H         1 UNK         0.0843 
    108 H108      -50.6563  -30.9401   16.6499 H         1 UNK         0.0831 
    109 H109      -49.7790  -29.4329   16.8403 H         1 UNK         0.0831 
    110 H110      -50.8520  -29.6624   15.4595 H         1 UNK         0.0831 
    111 H111      -51.8469  -27.4810   16.2686 H         1 UNK         0.3133 
    112 H112      -52.9388  -25.0146   18.4867 H         1 UNK         0.0566 
    113 H113      -50.9400  -23.6823   17.7824 H         1 UNK         0.0814 
    114 H114      -50.5411  -24.8044   19.0738 H         1 UNK         0.0814 
    115 H115      -50.0673  -25.1714   17.4219 H         1 UNK         0.0814 
    116 H116      -51.9562  -24.9499   15.7782 H         1 UNK         0.3091 
    117 H117      -54.8221  -26.3652   14.2385 H         1 UNK         0.0702 
    118 H118      -55.0935  -24.1878   13.0607 H         1 UNK         0.0785 
    119 H119      -54.2117  -23.3626   14.3440 H         1 UNK         0.0785 
    120 H120      -55.7706  -24.1052   14.6797 H         1 UNK         0.0785 
    121 H121      -52.6296  -24.8808   13.1656 H         1 UNK         0.2998 
    122 H122      -50.0751  -27.2168   13.5833 H         1 UNK         0.0697 
    123 H123      -51.5906  -27.0914   10.9154 H         1 UNK         0.0825 
    124 H124      -51.1308  -28.5594   11.7731 H         1 UNK         0.0825 
    125 H125      -49.8926  -27.5120   11.1040 H         1 UNK         0.0825 
    126 H126      -50.2105  -25.1358   11.6843 H         1 UNK         0.3029 
    127 H127      -50.4920  -22.3015   13.6910 H         1 UNK         0.0897 
    128 H128      -48.2429  -21.5989   12.7769 H         1 UNK         0.0792 
    129 H129      -48.1100  -22.6110   14.2069 H         1 UNK         0.0792 
    130 H130      -47.7978  -23.2995   12.6237 H         1 UNK         0.0792 
    131 H131      -49.6709  -22.6606   10.9681 H         1 UNK         0.3086 
    132 H132      -52.4054  -23.9794    9.6152 H         1 UNK         0.0583 
    133 H133      -53.9477  -22.0754    9.9465 H         1 UNK         0.1020 
    134 H134      -52.6857  -20.9405    9.5457 H         1 UNK         0.1020 
    135 H135      -55.7011  -22.7471    8.2228 H         1 UNK         0.0694 
    136 H136      -55.3276  -23.2557    6.5968 H         1 UNK         0.0694 
    137 H137      -50.6846  -22.1277    8.3213 H         1 UNK         0.2989 
    138 H138      -48.9826  -24.3628    6.9263 H         1 UNK         0.1055 
    139 H139      -47.7511  -22.1995    6.5619 H         1 UNK         0.0806 
    140 H140      -48.4347  -21.5595    8.0497 H         1 UNK         0.0806 
    141 H141      -49.4808  -21.9703    6.6904 H         1 UNK         0.0806 
    142 H142      -47.0904  -25.0286    7.8414 H         1 UNK         0.3061 
    143 H143      -45.0444  -23.9180   10.5490 H         1 UNK         0.0734 
    144 H144      -46.6811  -25.4105   11.6649 H         1 UNK         0.0832 
    145 H145      -46.7438  -26.4534   10.2555 H         1 UNK         0.0832 
    146 H146      -45.2566  -26.3254   11.1969 H         1 UNK         0.0832 
    147 H147      -44.8376  -26.0788    8.6304 H         1 UNK         0.3156 
    148 H148      -42.7765  -24.2539    6.3563 H         1 UNK         0.0589 
    149 H149      -42.2304  -26.5469    8.3121 H         1 UNK         0.0808 
    150 H150      -41.2999  -26.1774    6.8617 H         1 UNK         0.0808 
    151 H151      -41.3312  -25.0435    8.2021 H         1 UNK         0.0808 
    152 H152      -43.9907  -25.6202    5.1763 H         1 UNK         0.3098 
    153 H153      -45.4695  -27.0523    4.4909 H         1 UNK         0.0720 
    154 H154      -44.8556  -29.3749    3.8402 H         1 UNK         0.0791 
    155 H155      -44.1794  -29.6720    5.4428 H         1 UNK         0.0791 
    156 H156      -43.4262  -28.5031    4.3675 H         1 UNK         0.0791 
    157 H157      -46.6481  -29.3554    5.6306 H         1 UNK         0.3028 
@<TRIPOS>BOND
     1    1    2 1    
     2    1   82 1    
     3    1   83 1    
     4    1   84 1    
     5    2    3 2    
     6    2    4 am   BACKBONE|DICT|INTERRES
     7    4    5 1    
     8    4   85 1    
     9    5    6 1    
    10    5   80 1    
    11    5   86 1    
    12    6    7 1    
    13    6   87 1    
    14    6   88 1    
    15    7    8 1    
    16    8    9 1    
    17    8   89 1    
    18    8   90 1    
    19    9   10 ar   
    20    9   14 ar   
    21   10   11 ar   
    22   10   91 1    
    23   11   12 ar   
    24   11   58 1    
    25   12   13 ar   
    26   12   92 1    
    27   13   14 ar   
    28   13   15 1    
    29   14   93 1    
    30   15   16 1    
    31   15   94 1    
    32   15   95 1    
    33   16   17 1    
    34   17   18 1    
    35   17   96 1    
    36   17   97 1    
    37   18   19 1    
    38   18   22 1    
    39   18   98 1    
    40   19   20 am   BACKBONE|DICT|INTERRES
    41   19   21 2    
    42   20   99 1    
    43   20  100 1    
    44   22   23 am   BACKBONE|DICT|INTERRES
    45   22  101 1    
    46   23   24 2    
    47   23   25 1    
    48   25   26 1    
    49   25   27 1    
    50   25  102 1    
    51   26  103 1    
    52   26  104 1    
    53   26  105 1    
    54   27   28 am   BACKBONE|DICT|INTERRES
    55   27  106 1    
    56   28   29 2    
    57   28   30 1    
    58   30   31 1    
    59   30   32 1    
    60   30  107 1    
    61   31  108 1    
    62   31  109 1    
    63   31  110 1    
    64   32   33 am   BACKBONE|DICT|INTERRES
    65   32  111 1    
    66   33   34 2    
    67   33   35 1    
    68   35   36 1    
    69   35   37 1    
    70   35  112 1    
    71   36  113 1    
    72   36  114 1    
    73   36  115 1    
    74   37   38 am   BACKBONE|DICT|INTERRES
    75   37  116 1    
    76   38   39 2    
    77   38   40 1    
    78   40   41 1    
    79   40   42 1    
    80   40  117 1    
    81   41  118 1    
    82   41  119 1    
    83   41  120 1    
    84   42   43 am   BACKBONE|DICT|INTERRES
    85   42  121 1    
    86   43   44 2    
    87   43   45 1    
    88   45   46 1    
    89   45   47 1    
    90   45  122 1    
    91   46  123 1    
    92   46  124 1    
    93   46  125 1    
    94   47   48 am   BACKBONE|DICT|INTERRES
    95   47  126 1    
    96   48   49 2    
    97   48   50 1    
    98   50   51 1    
    99   50   52 1    
   100   50  127 1    
   101   51  128 1    
   102   51  129 1    
   103   51  130 1    
   104   52   53 am   BACKBONE|DICT|INTERRES
   105   52  131 1    
   106   53   54 2    
   107   53   55 1    
   108   55   56 1    
   109   55   59 1    
   110   55  132 1    
   111   56   57 1    
   112   56  133 1    
   113   56  134 1    
   114   57   58 1    
   115   58  135 1    
   116   58  136 1    
   117   59   60 am   BACKBONE|DICT|INTERRES
   118   59  137 1    
   119   60   61 2    
   120   60   62 1    
   121   62   63 1    
   122   62   64 1    
   123   62  138 1    
   124   63  139 1    
   125   63  140 1    
   126   63  141 1    
   127   64   65 am   BACKBONE|DICT|INTERRES
   128   64  142 1    
   129   65   66 2    
   130   65   67 1    
   131   67   68 1    
   132   67   69 1    
   133   67  143 1    
   134   68  144 1    
   135   68  145 1    
   136   68  146 1    
   137   69   70 am   BACKBONE|DICT|INTERRES
   138   69  147 1    
   139   70   71 2    
   140   70   72 1    
   141   72   73 1    
   142   72   74 1    
   143   72  148 1    
   144   73  149 1    
   145   73  150 1    
   146   73  151 1    
   147   74   75 am   BACKBONE|DICT|INTERRES
   148   74  152 1    
   149   75   76 2    
   150   75   77 1    
   151   77   78 1    
   152   77   79 1    
   153   77  153 1    
   154   78  154 1    
   155   78  155 1    
   156   78  156 1    
   157   79   80 am   BACKBONE|DICT|INTERRES
   158   79  157 1    
   159   80   81 2    
@<TRIPOS>SUBSTRUCTURE
     1 UNK         1 GROUP             0       ****    0 ROOT    
