@<TRIPOS>MOLECULE
3R207
157   159    1
SMALL
USER_CHARGES


@<TRIPOS>ATOM
      1 CA        -44.9945  -28.8139   10.6241 C.3       0 UNK        -0.1975 
      2 C         -45.5150  -28.9081    9.1983 C.2       0 UNK         0.4852 
      3 O         -44.7194  -28.9721    8.2595 O.2       0 UNK        -0.5216 
      4 N         -46.8436  -28.9074    9.0219 N.am      1 UNK        -0.4461 
      5 CA        -47.5171  -28.9605    7.7206 C.3       1 UNK         0.0864 
      6 C6        -49.0486  -29.1537    7.8570 C.3       14 UNK        -0.0898 
      7 S7        -49.8936  -27.9035    8.8847 S.3       14 UNK        -0.2598 
      8 C8        -51.5408  -28.6615    9.0278 C.3       14 UNK         0.0286 
      9 C9        -52.5871  -27.6018    9.3230 C.ar      14 UNK        -0.0844 
     10 C10       -53.0668  -26.8004    8.2840 C.ar      14 UNK        -0.0881 
     11 C11       -53.9763  -25.7728    8.5429 C.ar      14 UNK        -0.0643 
     12 C12       -54.4376  -25.5769    9.8480 C.ar      14 UNK        -0.0930 
     13 C13       -53.9908  -26.3948   10.8917 C.ar      14 UNK        -0.0827 
     14 C14       -53.0558  -27.4002   10.6245 C.ar      14 UNK        -0.1249 
     15 C15       -54.4960  -26.1793   12.3135 C.3       14 UNK         0.0141 
     16 S16       -56.3161  -26.1920   12.4264 S.3       14 UNK        -0.2313 
     17 C17       -56.7173  -27.8710   11.8309 C.3       14 UNK        -0.0915 
     18 CA        -57.6167  -28.6576   12.8172 C.3       13 UNK         0.0968 
     19 C         -58.0428  -30.0151   12.1944 C.2       13 UNK         0.5732 
     20 N         -59.2364  -30.0900   11.6213 N.am      13 UNK        -0.7310 
     21 O         -57.2830  -30.9815   12.1838 O.2       13 UNK        -0.5035 
     22 N         -56.9627  -28.8116   14.1227 N.am      13 UNK        -0.4233 
     23 C         -57.5240  -29.3232   15.2251 C.2       13 UNK         0.4989 
     24 O         -58.6989  -29.6908   15.2896 O.2       13 UNK        -0.4996 
     25 CA        -56.6237  -29.4005   16.4749 C.3       12 UNK         0.0216 
     26 CB        -57.1219  -30.4228   17.5194 C.3       12 UNK        -0.1964 
     27 N         -55.2047  -29.6117   16.1569 N.am      12 UNK        -0.4276 
     28 C         -54.6500  -30.6851   15.5666 C.2       12 UNK         0.5020 
     29 O         -55.2823  -31.6857   15.2278 O.2       12 UNK        -0.5489 
     30 CA        -53.1336  -30.6428   15.2859 C.3       11 UNK         0.0294 
     31 CB        -52.8805  -30.4270   13.7838 C.3       11 UNK        -0.2019 
     32 N         -52.4256  -29.6085   16.0461 N.am      11 UNK        -0.4493 
     33 C         -52.2278  -29.6436   17.3742 C.2       11 UNK         0.4932 
     34 O         -52.5130  -30.6143   18.0758 O.2       11 UNK        -0.5029 
     35 CA        -51.6492  -28.3844   18.0526 C.3       10 UNK         0.0280 
     36 CB        -50.1640  -28.5942   18.3894 C.3       10 UNK        -0.1976 
     37 N         -51.7907  -27.1507   17.2732 N.am      10 UNK        -0.4242 
     38 C         -52.9403  -26.6125   16.8383 C.2       10 UNK         0.5072 
     39 O         -54.0539  -27.0677   17.1028 O.2       10 UNK        -0.5224 
     40 CA        -52.8245  -25.4097   15.8831 C.3       9 UNK         0.0343 
     41 CB        -52.9685  -24.0899   16.6557 C.3       9 UNK        -0.2003 
     42 N         -51.5815  -25.3799   15.1005 N.am      9 UNK        -0.4272 
     43 C         -51.1450  -26.3429   14.2770 C.2       9 UNK         0.4988 
     44 O         -51.7530  -27.3989   14.0965 O.2       9 UNK        -0.5108 
     45 CA        -49.7942  -26.0992   13.5733 C.3       8 UNK         0.0248 
     46 CB        -49.4157  -27.2552   12.6279 C.3       8 UNK        -0.2001 
     47 N         -49.7528  -24.8409   12.8224 N.am      8 UNK        -0.4140 
     48 C         -49.6635  -23.6065   13.3406 C.2       8 UNK         0.5028 
     49 O         -49.6313  -23.3839   14.5522 O.2       8 UNK        -0.5428 
     50 CA        -49.5931  -22.4195   12.3593 C.3       7 UNK         0.0264 
     51 CB        -48.1956  -21.7812   12.3963 C.3       7 UNK        -0.1988 
     52 N         -49.9301  -22.7846   10.9769 N.am      7 UNK        -0.4454 
     53 C         -51.1834  -22.9991   10.5460 C.2       7 UNK         0.5027 
     54 O         -52.1692  -22.8284   11.2646 O.2       7 UNK        -0.5083 
     55 CA        -51.3867  -23.5623    9.1216 C.3       6 UNK         0.0844 
     56 C56       -52.5949  -22.9061    8.3900 C.3       14 UNK        -0.0967 
     57 S57       -53.0435  -23.7819    6.8510 S.3       14 UNK        -0.2604 
     58 C58       -54.4144  -24.8435    7.4202 C.3       14 UNK         0.0134 
     59 N         -50.1561  -23.6447    8.3231 N.am      6 UNK        -0.4116 
     60 C         -49.5028  -22.6345    7.7338 C.2       5 UNK         0.5034 
     61 O         -49.8405  -21.4519    7.8083 O.2       5 UNK        -0.5045 
     62 CA        -48.2285  -23.0376    6.9665 C.3       5 UNK         0.0224 
     63 CB        -47.4910  -21.8382    6.3340 C.3       5 UNK        -0.1978 
     64 N         -47.3146  -23.8304    7.7995 N.am      5 UNK        -0.4737 
     65 C         -46.7465  -23.4572    8.9566 C.2       4 UNK         0.5027 
     66 O         -46.9194  -22.3616    9.4861 O.2       4 UNK        -0.5211 
     67 CA        -45.8497  -24.4872    9.6556 C.3       4 UNK         0.0297 
     68 CB        -46.6975  -25.4315   10.5233 C.3       4 UNK        -0.1993 
     69 N         -45.0698  -25.2619    8.6888 N.am      4 UNK        -0.4486 
     70 C         -43.8625  -24.9005    8.2298 C.2       3 UNK         0.4961 
     71 O         -43.2502  -23.9086    8.6267 O.2       3 UNK        -0.5105 
     72 CA        -43.2124  -25.7886    7.1525 C.3       3 UNK         0.0299 
     73 CB        -42.1782  -26.7333    7.7864 C.3       3 UNK        -0.1972 
     74 N         -44.1919  -26.5698    6.3923 N.am      3 UNK        -0.4305 
     75 C         -44.9291  -26.0684    5.3880 C.2       2 UNK         0.5006 
     76 O         -44.7974  -24.9242    4.9526 O.2       2 UNK        -0.5106 
     77 CA        -46.0147  -26.9742    4.7704 C.3       2 UNK         0.0296 
     78 CB        -45.4856  -27.6525    3.4963 C.3       2 UNK        -0.2002 
     79 N         -46.5439  -27.9972    5.6793 N.am      2 UNK        -0.4032 
     80 C         -47.1408  -27.7416    6.8516 C.2       1 UNK         0.5000 
     81 O         -47.3253  -26.6005    7.2823 O.2       1 UNK        -0.5238 
     82 H82       -44.4182  -29.7050   10.8707 H         1 UNK         0.0889 
     83 H83       -45.8035  -28.7207   11.3485 H         1 UNK         0.0889 
     84 H84       -44.3419  -27.9474   10.7275 H         1 UNK         0.0889 
     85 H85       -47.4590  -28.8207    9.8178 H         1 UNK         0.3028 
     86 H86       -47.1349  -29.8513    7.2172 H         1 UNK         0.0864 
     87 H87       -49.2451  -30.1343    8.2938 H         1 UNK         0.0720 
     88 H88       -49.5187  -29.1704    6.8718 H         1 UNK         0.0720 
     89 H89       -51.5242  -29.4226    9.8094 H         1 UNK         0.0814 
     90 H90       -51.7981  -29.1738    8.0994 H         1 UNK         0.0814 
     91 H91       -52.6936  -26.9431    7.2788 H         1 UNK         0.1469 
     92 H92       -55.1386  -24.7807   10.0576 H         1 UNK         0.1381 
     93 H93       -52.6833  -28.0177   11.4308 H         1 UNK         0.1206 
     94 H94       -54.1028  -26.9423   12.9859 H         1 UNK         0.0813 
     95 H95       -54.1215  -25.2214   12.6772 H         1 UNK         0.0813 
     96 H96       -57.2136  -27.7612   10.8648 H         1 UNK         0.0638 
     97 H97       -55.7971  -28.4254   11.6368 H         1 UNK         0.0638 
     98 H98       -58.5207  -28.0696   12.9879 H         1 UNK         0.0568 
     99 H99       -59.8621  -29.2995   11.6129 H         1 UNK         0.3450 
    100 H100      -59.5215  -30.9587   11.1969 H         1 UNK         0.3450 
    101 H101      -55.9928  -28.5420   14.1619 H         1 UNK         0.2987 
    102 H102      -56.6775  -28.4138   16.9375 H         1 UNK         0.0766 
    103 H103      -57.1737  -31.4313   17.1082 H         1 UNK         0.0798 
    104 H104      -56.4684  -30.4487   18.3915 H         1 UNK         0.0798 
    105 H105      -58.1213  -30.1658   17.8725 H         1 UNK         0.0798 
    106 H106      -54.5973  -28.8362   16.4104 H         1 UNK         0.3198 
    107 H107      -52.7205  -31.6138   15.5675 H         1 UNK         0.0843 
    108 H108      -53.3226  -31.2316   13.1945 H         1 UNK         0.0831 
    109 H109      -51.8146  -30.4054   13.5563 H         1 UNK         0.0831 
    110 H110      -53.3170  -29.4918   13.4316 H         1 UNK         0.0831 
    111 H111      -52.1462  -28.7825   15.5243 H         1 UNK         0.3133 
    112 H112      -52.1965  -28.2422   18.9866 H         1 UNK         0.0566 
    113 H113      -49.7609  -27.7541   18.9554 H         1 UNK         0.0814 
    114 H114      -50.0239  -29.4881   18.9993 H         1 UNK         0.0814 
    115 H115      -49.5595  -28.7166   17.4897 H         1 UNK         0.0814 
    116 H116      -50.9334  -26.6974   16.9932 H         1 UNK         0.3091 
    117 H117      -53.6524  -25.4825   15.1758 H         1 UNK         0.0702 
    118 H118      -52.9897  -23.2352   15.9791 H         1 UNK         0.0785 
    119 H119      -52.1472  -23.9417   17.3580 H         1 UNK         0.0785 
    120 H120      -53.8969  -24.0712   17.2286 H         1 UNK         0.0785 
    121 H121      -51.0059  -24.5439   15.1729 H         1 UNK         0.2998 
    122 H122      -49.0349  -26.0516   14.3564 H         1 UNK         0.0697 
    123 H123      -50.1410  -27.3651   11.8214 H         1 UNK         0.0825 
    124 H124      -49.3815  -28.2050   13.1635 H         1 UNK         0.0825 
    125 H125      -48.4333  -27.1050   12.1820 H         1 UNK         0.0825 
    126 H126      -49.8180  -24.9219   11.8196 H         1 UNK         0.3029 
    127 H127      -50.3115  -21.6726   12.7047 H         1 UNK         0.0897 
    128 H128      -48.1244  -20.9366   11.7105 H         1 UNK         0.0792 
    129 H129      -47.9649  -21.4069   13.3947 H         1 UNK         0.0792 
    130 H130      -47.4159  -22.4958   12.1319 H         1 UNK         0.0792 
    131 H131      -49.1611  -22.8805   10.3269 H         1 UNK         0.3086 
    132 H132      -51.6461  -24.6039    9.3036 H         1 UNK         0.0583 
    133 H133      -53.4747  -22.8783    9.0353 H         1 UNK         0.1020 
    134 H134      -52.3828  -21.8639    8.1486 H         1 UNK         0.1020 
    135 H135      -55.2488  -24.2154    7.7364 H         1 UNK         0.0694 
    136 H136      -54.7771  -25.4375    6.5802 H         1 UNK         0.0694 
    137 H137      -49.7842  -24.5771    8.2037 H         1 UNK         0.2989 
    138 H138      -48.5527  -23.6890    6.1530 H         1 UNK         0.1055 
    139 H139      -46.6147  -22.1651    5.7740 H         1 UNK         0.0806 
    140 H140      -47.1603  -21.1205    7.0855 H         1 UNK         0.0806 
    141 H141      -48.1402  -21.3043    5.6390 H         1 UNK         0.0806 
    142 H142      -47.1808  -24.7962    7.5020 H         1 UNK         0.3061 
    143 H143      -45.1729  -23.9441   10.3191 H         1 UNK         0.0734 
    144 H144      -46.0688  -26.1198   11.0862 H         1 UNK         0.0832 
    145 H145      -47.2810  -24.8685   11.2517 H         1 UNK         0.0832 
    146 H146      -47.3971  -26.0197    9.9284 H         1 UNK         0.0832 
    147 H147      -45.5410  -26.0457    8.2545 H         1 UNK         0.3156 
    148 H148      -42.6795  -25.1312    6.4619 H         1 UNK         0.0589 
    149 H149      -42.6270  -27.3861    8.5351 H         1 UNK         0.0808 
    150 H150      -41.6994  -27.3617    7.0353 H         1 UNK         0.0808 
    151 H151      -41.3900  -26.1668    8.2841 H         1 UNK         0.0808 
    152 H152      -44.3636  -27.5170    6.7135 H         1 UNK         0.3098 
    153 H153      -46.8491  -26.3274    4.4907 H         1 UNK         0.0720 
    154 H154      -46.2702  -28.2146    2.9894 H         1 UNK         0.0791 
    155 H155      -44.6660  -28.3384    3.7145 H         1 UNK         0.0791 
    156 H156      -45.1111  -26.9128    2.7870 H         1 UNK         0.0791 
    157 H157      -46.3976  -28.9588    5.4068 H         1 UNK         0.3028 
@<TRIPOS>BOND
     1    1    2 1    
     2    1   82 1    
     3    1   83 1    
     4    1   84 1    
     5    2    3 2    
     6    2    4 am   BACKBONE|DICT|INTERRES
     7    4    5 1    
     8    4   85 1    
     9    5    6 1    
    10    5   80 1    
    11    5   86 1    
    12    6    7 1    
    13    6   87 1    
    14    6   88 1    
    15    7    8 1    
    16    8    9 1    
    17    8   89 1    
    18    8   90 1    
    19    9   10 ar   
    20    9   14 ar   
    21   10   11 ar   
    22   10   91 1    
    23   11   12 ar   
    24   11   58 1    
    25   12   13 ar   
    26   12   92 1    
    27   13   14 ar   
    28   13   15 1    
    29   14   93 1    
    30   15   16 1    
    31   15   94 1    
    32   15   95 1    
    33   16   17 1    
    34   17   18 1    
    35   17   96 1    
    36   17   97 1    
    37   18   19 1    
    38   18   22 1    
    39   18   98 1    
    40   19   20 am   BACKBONE|DICT|INTERRES
    41   19   21 2    
    42   20   99 1    
    43   20  100 1    
    44   22   23 am   BACKBONE|DICT|INTERRES
    45   22  101 1    
    46   23   24 2    
    47   23   25 1    
    48   25   26 1    
    49   25   27 1    
    50   25  102 1    
    51   26  103 1    
    52   26  104 1    
    53   26  105 1    
    54   27   28 am   BACKBONE|DICT|INTERRES
    55   27  106 1    
    56   28   29 2    
    57   28   30 1    
    58   30   31 1    
    59   30   32 1    
    60   30  107 1    
    61   31  108 1    
    62   31  109 1    
    63   31  110 1    
    64   32   33 am   BACKBONE|DICT|INTERRES
    65   32  111 1    
    66   33   34 2    
    67   33   35 1    
    68   35   36 1    
    69   35   37 1    
    70   35  112 1    
    71   36  113 1    
    72   36  114 1    
    73   36  115 1    
    74   37   38 am   BACKBONE|DICT|INTERRES
    75   37  116 1    
    76   38   39 2    
    77   38   40 1    
    78   40   41 1    
    79   40   42 1    
    80   40  117 1    
    81   41  118 1    
    82   41  119 1    
    83   41  120 1    
    84   42   43 am   BACKBONE|DICT|INTERRES
    85   42  121 1    
    86   43   44 2    
    87   43   45 1    
    88   45   46 1    
    89   45   47 1    
    90   45  122 1    
    91   46  123 1    
    92   46  124 1    
    93   46  125 1    
    94   47   48 am   BACKBONE|DICT|INTERRES
    95   47  126 1    
    96   48   49 2    
    97   48   50 1    
    98   50   51 1    
    99   50   52 1    
   100   50  127 1    
   101   51  128 1    
   102   51  129 1    
   103   51  130 1    
   104   52   53 am   BACKBONE|DICT|INTERRES
   105   52  131 1    
   106   53   54 2    
   107   53   55 1    
   108   55   56 1    
   109   55   59 1    
   110   55  132 1    
   111   56   57 1    
   112   56  133 1    
   113   56  134 1    
   114   57   58 1    
   115   58  135 1    
   116   58  136 1    
   117   59   60 am   BACKBONE|DICT|INTERRES
   118   59  137 1    
   119   60   61 2    
   120   60   62 1    
   121   62   63 1    
   122   62   64 1    
   123   62  138 1    
   124   63  139 1    
   125   63  140 1    
   126   63  141 1    
   127   64   65 am   BACKBONE|DICT|INTERRES
   128   64  142 1    
   129   65   66 2    
   130   65   67 1    
   131   67   68 1    
   132   67   69 1    
   133   67  143 1    
   134   68  144 1    
   135   68  145 1    
   136   68  146 1    
   137   69   70 am   BACKBONE|DICT|INTERRES
   138   69  147 1    
   139   70   71 2    
   140   70   72 1    
   141   72   73 1    
   142   72   74 1    
   143   72  148 1    
   144   73  149 1    
   145   73  150 1    
   146   73  151 1    
   147   74   75 am   BACKBONE|DICT|INTERRES
   148   74  152 1    
   149   75   76 2    
   150   75   77 1    
   151   77   78 1    
   152   77   79 1    
   153   77  153 1    
   154   78  154 1    
   155   78  155 1    
   156   78  156 1    
   157   79   80 am   BACKBONE|DICT|INTERRES
   158   79  157 1    
   159   80   81 2    
@<TRIPOS>SUBSTRUCTURE
     1 UNK         1 GROUP             0       ****    0 ROOT    
