@<TRIPOS>MOLECULE
3R207
157   159    1
SMALL
USER_CHARGES


@<TRIPOS>ATOM
      1 CA        -46.1429  -27.2384    3.9019 C.3       0 UNK        -0.1975 
      2 C         -47.2711  -26.3307    4.3665 C.2       0 UNK         0.4852 
      3 O         -47.2518  -25.1347    4.0710 O.2       0 UNK        -0.5216 
      4 N         -48.2452  -26.8866    5.1013 N.am      1 UNK        -0.4461 
      5 CA        -49.4166  -26.1972    5.6599 C.3       1 UNK         0.0864 
      6 C6        -50.3243  -27.1613    6.4638 C.3       14 UNK        -0.0898 
      7 S7        -50.8991  -28.5727    5.4626 S.3       14 UNK        -0.2598 
      8 C8        -52.2051  -29.2629    6.5383 C.3       14 UNK         0.0286 
      9 C9        -51.7364  -29.9716    7.8133 C.ar      14 UNK        -0.0844 
     10 C10       -50.3905  -30.2537    8.0900 C.ar      14 UNK        -0.0881 
     11 C11       -50.0240  -30.9063    9.2707 C.ar      14 UNK        -0.0643 
     12 C12       -51.0143  -31.3079   10.1723 C.ar      14 UNK        -0.0930 
     13 C13       -52.3599  -31.0434    9.9083 C.ar      14 UNK        -0.0827 
     14 C14       -52.7106  -30.3727    8.7333 C.ar      14 UNK        -0.1249 
     15 C15       -53.4390  -31.4967   10.8794 C.3       14 UNK         0.0141 
     16 S16       -53.6340  -30.3262   12.2560 S.3       14 UNK        -0.2313 
     17 C17       -55.2652  -30.8478   12.8780 C.3       14 UNK        -0.0915 
     18 CA        -55.7674  -30.0758   14.1312 C.3       13 UNK         0.0968 
     19 C         -55.1200  -30.4927   15.4798 C.2       13 UNK         0.5732 
     20 N         -55.1527  -29.6431   16.5005 N.am      13 UNK        -0.7310 
     21 O         -54.6086  -31.6007   15.6214 O.2       13 UNK        -0.5035 
     22 N         -55.7981  -28.6183   13.9440 N.am      13 UNK        -0.4233 
     23 C         -56.8026  -27.9459   13.3730 C.2       13 UNK         0.4989 
     24 O         -57.7708  -28.4939   12.8416 O.2       13 UNK        -0.4996 
     25 CA        -56.7257  -26.4036   13.4095 C.3       12 UNK         0.0216 
     26 CB        -58.1149  -25.7422   13.2779 C.3       12 UNK        -0.1964 
     27 N         -56.0112  -25.8492   14.5735 N.am      12 UNK        -0.4276 
     28 C         -56.3016  -26.0651   15.8671 C.2       12 UNK         0.5020 
     29 O         -57.1743  -26.8506   16.2414 O.2       12 UNK        -0.5489 
     30 CA        -55.4971  -25.2927   16.9264 C.3       11 UNK         0.0294 
     31 CB        -55.4803  -26.0140   18.2928 C.3       11 UNK        -0.2019 
     32 N         -54.1236  -25.0032   16.5061 N.am      11 UNK        -0.4493 
     33 C         -53.4039  -23.9825   16.9972 C.2       11 UNK         0.4932 
     34 O         -53.8649  -23.1135   17.7386 O.2       11 UNK        -0.5029 
     35 CA        -51.9128  -23.9300   16.6332 C.3       10 UNK         0.0280 
     36 CB        -51.1446  -25.0844   17.2983 C.3       10 UNK        -0.1976 
     37 N         -51.6962  -23.9460   15.1890 N.am      10 UNK        -0.4242 
     38 C         -51.8939  -22.8960   14.3784 C.2       10 UNK         0.5072 
     39 O         -52.2550  -21.7844   14.7670 O.2       10 UNK        -0.5224 
     40 CA        -51.6362  -23.1166   12.8762 C.3       9 UNK         0.0343 
     41 CB        -50.2229  -22.6495   12.4979 C.3       9 UNK        -0.2003 
     42 N         -51.8110  -24.5115   12.4648 N.am      9 UNK        -0.4272 
     43 C         -52.9952  -25.1364   12.4351 C.2       9 UNK         0.4988 
     44 O         -54.0649  -24.5936   12.7099 O.2       9 UNK        -0.5108 
     45 CA        -52.9665  -26.6352   12.1171 C.3       8 UNK         0.0248 
     46 CB        -52.6498  -26.8900   10.6333 C.3       8 UNK        -0.2001 
     47 N         -52.0045  -27.3402   12.9627 N.am      8 UNK        -0.4140 
     48 C         -52.1450  -27.5613   14.2793 C.2       8 UNK         0.5028 
     49 O         -53.1162  -27.1668   14.9285 O.2       8 UNK        -0.5428 
     50 CA        -51.0300  -28.3532   14.9952 C.3       7 UNK         0.0264 
     51 CB        -51.5881  -29.6276   15.6448 C.3       7 UNK        -0.1988 
     52 N         -49.9521  -28.7223   14.0757 N.am      7 UNK        -0.4454 
     53 C         -48.8233  -28.0198   13.9071 C.2       7 UNK         0.5027 
     54 O         -48.4658  -27.1211   14.6726 O.2       7 UNK        -0.5083 
     55 CA        -47.9749  -28.3332   12.6477 C.3       6 UNK         0.0844 
     56 C56       -48.7035  -29.2572   11.6287 C.3       14 UNK        -0.0967 
     57 S57       -47.6998  -29.6752   10.1656 S.3       14 UNK        -0.2604 
     58 C58       -48.5550  -31.1721    9.5731 C.3       14 UNK         0.0134 
     59 N         -47.4847  -27.0951   12.0288 N.am      6 UNK        -0.4116 
     60 C         -48.2136  -26.0421   11.6332 C.2       5 UNK         0.5034 
     61 O         -49.4391  -25.9617   11.7463 O.2       5 UNK        -0.5045 
     62 CA        -47.4472  -24.8800   10.9855 C.3       5 UNK         0.0224 
     63 CB        -46.5786  -24.1135   12.0035 C.3       5 UNK        -0.1978 
     64 N         -46.6857  -25.2888    9.8017 N.am      5 UNK        -0.4737 
     65 C         -45.5863  -26.0507    9.7132 C.2       4 UNK         0.5027 
     66 O         -44.9926  -26.5219   10.6840 O.2       4 UNK        -0.5211 
     67 CA        -45.0701  -26.3485    8.2963 C.3       4 UNK         0.0297 
     68 CB        -45.7038  -27.6412    7.7580 C.3       4 UNK        -0.1993 
     69 N         -45.3535  -25.2486    7.3701 N.am      4 UNK        -0.4486 
     70 C         -44.5319  -24.2133    7.1458 C.2       3 UNK         0.4961 
     71 O         -43.4214  -24.0983    7.6653 O.2       3 UNK        -0.5105 
     72 CA        -45.0116  -23.1221    6.1704 C.3       3 UNK         0.0299 
     73 CB        -44.4029  -23.3435    4.7762 C.3       3 UNK        -0.1972 
     74 N         -46.4717  -23.0560    6.0606 N.am      3 UNK        -0.4305 
     75 C         -47.2613  -22.4310    6.9485 C.2       2 UNK         0.5006 
     76 O         -46.8328  -21.7915    7.9095 O.2       2 UNK        -0.5106 
     77 CA        -48.7879  -22.5485    6.7582 C.3       2 UNK         0.0296 
     78 CB        -49.3266  -21.3349    5.9836 C.3       2 UNK        -0.2002 
     79 N         -49.2239  -23.7812    6.0925 N.am      2 UNK        -0.4032 
     80 C         -48.9799  -25.0176    6.5474 C.2       1 UNK         0.5000 
     81 O         -48.3693  -25.2493    7.5914 O.2       1 UNK        -0.5238 
     82 H82       -45.1938  -26.8974    4.3146 H         1 UNK         0.0889 
     83 H83       -46.0693  -27.2171    2.8150 H         1 UNK         0.0889 
     84 H84       -46.2967  -28.2720    4.2114 H         1 UNK         0.0889 
     85 H85       -48.2073  -27.8760    5.2992 H         1 UNK         0.3028 
     86 H86       -49.9943  -25.8064    4.8197 H         1 UNK         0.0864 
     87 H87       -49.7993  -27.5462    7.3405 H         1 UNK         0.0720 
     88 H88       -51.1997  -26.6290    6.8412 H         1 UNK         0.0720 
     89 H89       -52.7802  -29.9769    5.9472 H         1 UNK         0.0814 
     90 H90       -52.8962  -28.4616    6.8044 H         1 UNK         0.0814 
     91 H91       -49.6119  -29.9647    7.3997 H         1 UNK         0.1469 
     92 H92       -50.7403  -31.8230   11.0827 H         1 UNK         0.1381 
     93 H93       -53.7530  -30.1670    8.5300 H         1 UNK         0.1206 
     94 H94       -54.3892  -31.6034   10.3537 H         1 UNK         0.0813 
     95 H95       -53.1964  -32.4834   11.2768 H         1 UNK         0.0813 
     96 H96       -55.9829  -30.7087   12.0682 H         1 UNK         0.0638 
     97 H97       -55.2446  -31.9222   13.0683 H         1 UNK         0.0638 
     98 H98       -56.8004  -30.3979   14.2750 H         1 UNK         0.0568 
     99 H99       -55.6450  -28.7659   16.4237 H         1 UNK         0.3450 
    100 H100      -54.7467  -29.9199   17.3795 H         1 UNK         0.3450 
    101 H101      -55.0240  -28.1081   14.3546 H         1 UNK         0.2987 
    102 H102      -56.1548  -26.1191   12.5264 H         1 UNK         0.0766 
    103 H103      -58.7758  -26.0261   14.0977 H         1 UNK         0.0798 
    104 H104      -58.0367  -24.6551   13.2707 H         1 UNK         0.0798 
    105 H105      -58.6048  -26.0341   12.3482 H         1 UNK         0.0798 
    106 H106      -55.2538  -25.2150   14.3403 H         1 UNK         0.3198 
    107 H107      -56.0301  -24.3476   17.0511 H         1 UNK         0.0843 
    108 H108      -56.4913  -26.2044   18.6553 H         1 UNK         0.0831 
    109 H109      -54.9806  -25.4176   19.0560 H         1 UNK         0.0831 
    110 H110      -54.9670  -26.9740   18.2299 H         1 UNK         0.0831 
    111 H111      -53.6801  -25.7043   15.9121 H         1 UNK         0.3133 
    112 H112      -51.5023  -22.9962   17.0241 H         1 UNK         0.0566 
    113 H113      -50.0939  -25.0898   17.0068 H         1 UNK         0.0814 
    114 H114      -51.1784  -24.9912   18.3846 H         1 UNK         0.0814 
    115 H115      -51.5708  -26.0556   17.0506 H         1 UNK         0.0814 
    116 H116      -51.4047  -24.8174   14.7739 H         1 UNK         0.3091 
    117 H117      -52.3563  -22.5075   12.3255 H         1 UNK         0.0702 
    118 H118      -50.0495  -22.7392   11.4256 H         1 UNK         0.0785 
    119 H119      -49.4609  -23.2315   13.0157 H         1 UNK         0.0785 
    120 H120      -50.0722  -21.6024   12.7640 H         1 UNK         0.0785 
    121 H121      -50.9720  -25.0344   12.2184 H         1 UNK         0.2998 
    122 H122      -53.9553  -27.0465   12.3213 H         1 UNK         0.0697 
    123 H123      -51.6626  -26.5228   10.3515 H         1 UNK         0.0825 
    124 H124      -53.3775  -26.3946    9.9895 H         1 UNK         0.0825 
    125 H125      -52.6859  -27.9540   10.3998 H         1 UNK         0.0825 
    126 H126      -51.1493  -27.6297   12.5140 H         1 UNK         0.3029 
    127 H127      -50.6367  -27.7193   15.7907 H         1 UNK         0.0897 
    128 H128      -52.3450  -29.3822   16.3900 H         1 UNK         0.0792 
    129 H129      -52.0496  -30.2901   14.9119 H         1 UNK         0.0792 
    130 H130      -50.8057  -30.1875   16.1570 H         1 UNK         0.0792 
    131 H131      -50.1566  -29.4805   13.4407 H         1 UNK         0.3086 
    132 H132      -47.0910  -28.8621   13.0067 H         1 UNK         0.0583 
    133 H133      -48.9802  -30.1996   12.1041 H         1 UNK         0.1020 
    134 H134      -49.6253  -28.7934   11.2713 H         1 UNK         0.1020 
    135 H135      -48.0554  -31.5313    8.6722 H         1 UNK         0.0694 
    136 H136      -48.4509  -31.9647   10.3157 H         1 UNK         0.0694 
    137 H137      -46.4876  -27.0527   11.8428 H         1 UNK         0.2989 
    138 H138      -48.2010  -24.1846   10.6132 H         1 UNK         0.1055 
    139 H139      -46.1165  -23.2390   11.5453 H         1 UNK         0.0806 
    140 H140      -45.7833  -24.7313   12.4203 H         1 UNK         0.0806 
    141 H141      -47.1776  -23.7608   12.8430 H         1 UNK         0.0806 
    142 H142      -47.1618  -25.0844    8.9244 H         1 UNK         0.3061 
    143 H143      -43.9909  -26.5044    8.3599 H         1 UNK         0.0734 
    144 H144      -45.4703  -28.4847    8.4088 H         1 UNK         0.0832 
    145 H145      -46.7907  -27.5687    7.6999 H         1 UNK         0.0832 
    146 H146      -45.3256  -27.8874    6.7665 H         1 UNK         0.0832 
    147 H147      -46.2794  -25.2282    6.9633 H         1 UNK         0.3156 
    148 H148      -44.6444  -22.1634    6.5433 H         1 UNK         0.0589 
    149 H149      -44.6978  -24.3026    4.3504 H         1 UNK         0.0808 
    150 H150      -44.7062  -22.5603    4.0812 H         1 UNK         0.0808 
    151 H151      -43.3130  -23.3310    4.8215 H         1 UNK         0.0808 
    152 H152      -46.8948  -23.5787    5.2982 H         1 UNK         0.3098 
    153 H153      -49.2359  -22.5429    7.7542 H         1 UNK         0.0720 
    154 H154      -50.4154  -21.3485    5.9295 H         1 UNK         0.0791 
    155 H155      -48.9384  -21.3015    4.9647 H         1 UNK         0.0791 
    156 H156      -49.0408  -20.4019    6.4718 H         1 UNK         0.0791 
    157 H157      -49.6903  -23.6730    5.2030 H         1 UNK         0.3028 
@<TRIPOS>BOND
     1    1    2 1    
     2    1   82 1    
     3    1   83 1    
     4    1   84 1    
     5    2    3 2    
     6    2    4 am   BACKBONE|DICT|INTERRES
     7    4    5 1    
     8    4   85 1    
     9    5    6 1    
    10    5   80 1    
    11    5   86 1    
    12    6    7 1    
    13    6   87 1    
    14    6   88 1    
    15    7    8 1    
    16    8    9 1    
    17    8   89 1    
    18    8   90 1    
    19    9   10 ar   
    20    9   14 ar   
    21   10   11 ar   
    22   10   91 1    
    23   11   12 ar   
    24   11   58 1    
    25   12   13 ar   
    26   12   92 1    
    27   13   14 ar   
    28   13   15 1    
    29   14   93 1    
    30   15   16 1    
    31   15   94 1    
    32   15   95 1    
    33   16   17 1    
    34   17   18 1    
    35   17   96 1    
    36   17   97 1    
    37   18   19 1    
    38   18   22 1    
    39   18   98 1    
    40   19   20 am   BACKBONE|DICT|INTERRES
    41   19   21 2    
    42   20   99 1    
    43   20  100 1    
    44   22   23 am   BACKBONE|DICT|INTERRES
    45   22  101 1    
    46   23   24 2    
    47   23   25 1    
    48   25   26 1    
    49   25   27 1    
    50   25  102 1    
    51   26  103 1    
    52   26  104 1    
    53   26  105 1    
    54   27   28 am   BACKBONE|DICT|INTERRES
    55   27  106 1    
    56   28   29 2    
    57   28   30 1    
    58   30   31 1    
    59   30   32 1    
    60   30  107 1    
    61   31  108 1    
    62   31  109 1    
    63   31  110 1    
    64   32   33 am   BACKBONE|DICT|INTERRES
    65   32  111 1    
    66   33   34 2    
    67   33   35 1    
    68   35   36 1    
    69   35   37 1    
    70   35  112 1    
    71   36  113 1    
    72   36  114 1    
    73   36  115 1    
    74   37   38 am   BACKBONE|DICT|INTERRES
    75   37  116 1    
    76   38   39 2    
    77   38   40 1    
    78   40   41 1    
    79   40   42 1    
    80   40  117 1    
    81   41  118 1    
    82   41  119 1    
    83   41  120 1    
    84   42   43 am   BACKBONE|DICT|INTERRES
    85   42  121 1    
    86   43   44 2    
    87   43   45 1    
    88   45   46 1    
    89   45   47 1    
    90   45  122 1    
    91   46  123 1    
    92   46  124 1    
    93   46  125 1    
    94   47   48 am   BACKBONE|DICT|INTERRES
    95   47  126 1    
    96   48   49 2    
    97   48   50 1    
    98   50   51 1    
    99   50   52 1    
   100   50  127 1    
   101   51  128 1    
   102   51  129 1    
   103   51  130 1    
   104   52   53 am   BACKBONE|DICT|INTERRES
   105   52  131 1    
   106   53   54 2    
   107   53   55 1    
   108   55   56 1    
   109   55   59 1    
   110   55  132 1    
   111   56   57 1    
   112   56  133 1    
   113   56  134 1    
   114   57   58 1    
   115   58  135 1    
   116   58  136 1    
   117   59   60 am   BACKBONE|DICT|INTERRES
   118   59  137 1    
   119   60   61 2    
   120   60   62 1    
   121   62   63 1    
   122   62   64 1    
   123   62  138 1    
   124   63  139 1    
   125   63  140 1    
   126   63  141 1    
   127   64   65 am   BACKBONE|DICT|INTERRES
   128   64  142 1    
   129   65   66 2    
   130   65   67 1    
   131   67   68 1    
   132   67   69 1    
   133   67  143 1    
   134   68  144 1    
   135   68  145 1    
   136   68  146 1    
   137   69   70 am   BACKBONE|DICT|INTERRES
   138   69  147 1    
   139   70   71 2    
   140   70   72 1    
   141   72   73 1    
   142   72   74 1    
   143   72  148 1    
   144   73  149 1    
   145   73  150 1    
   146   73  151 1    
   147   74   75 am   BACKBONE|DICT|INTERRES
   148   74  152 1    
   149   75   76 2    
   150   75   77 1    
   151   77   78 1    
   152   77   79 1    
   153   77  153 1    
   154   78  154 1    
   155   78  155 1    
   156   78  156 1    
   157   79   80 am   BACKBONE|DICT|INTERRES
   158   79  157 1    
   159   80   81 2    
@<TRIPOS>SUBSTRUCTURE
     1 UNK         1 GROUP             0       ****    0 ROOT    
