@<TRIPOS>MOLECULE
3R207
157   159    1
SMALL
USER_CHARGES


@<TRIPOS>ATOM
      1 CA        -48.4643  -24.0436    8.6353 C.3       0 UNK        -0.1975 
      2 C         -48.9429  -25.2745    7.8809 C.2       0 UNK         0.4852 
      3 O         -49.2105  -26.3095    8.4941 O.2       0 UNK        -0.5216 
      4 N         -49.0565  -25.1712    6.5513 N.am      1 UNK        -0.4461 
      5 CA        -49.4442  -26.2781    5.6721 C.3       1 UNK         0.0864 
      6 C6        -49.8814  -25.7636    4.2762 C.3       14 UNK        -0.0898 
      7 S7        -51.1477  -26.8299    3.5065 S.3       14 UNK        -0.2598 
      8 C8        -52.6957  -25.9911    3.9866 C.3       14 UNK         0.0286 
      9 C9        -53.0154  -26.2004    5.4605 C.ar      14 UNK        -0.0844 
     10 C10       -52.6377  -25.2459    6.4107 C.ar      14 UNK        -0.0881 
     11 C11       -52.8786  -25.4618    7.7715 C.ar      14 UNK        -0.0643 
     12 C12       -53.5334  -26.6288    8.1740 C.ar      14 UNK        -0.0930 
     13 C13       -53.9393  -27.5772    7.2317 C.ar      14 UNK        -0.0827 
     14 C14       -53.6734  -27.3615    5.8766 C.ar      14 UNK        -0.1249 
     15 C15       -54.6572  -28.8354    7.6866 C.3       14 UNK         0.0141 
     16 S16       -53.4765  -30.0633    8.3214 S.3       14 UNK        -0.2313 
     17 C17       -54.6170  -31.2567    9.1024 C.3       14 UNK        -0.0915 
     18 CA        -54.6200  -31.2049   10.6555 C.3       13 UNK         0.0968 
     19 C         -53.3412  -31.8365   11.2806 C.2       13 UNK         0.5732 
     20 N         -53.1719  -33.1455   11.1493 N.am      13 UNK        -0.7310 
     21 O         -52.4998  -31.1602   11.8694 O.2       13 UNK        -0.5035 
     22 N         -54.8999  -29.8483   11.1486 N.am      13 UNK        -0.4233 
     23 C         -55.2844  -29.5581   12.3948 C.2       13 UNK         0.4989 
     24 O         -55.5929  -30.4034   13.2402 O.2       13 UNK        -0.4996 
     25 CA        -55.3510  -28.0705   12.7591 C.3       12 UNK         0.0216 
     26 CB        -56.7524  -27.4967   12.4932 C.3       12 UNK        -0.1964 
     27 N         -55.0330  -27.9548   14.1789 N.am      12 UNK        -0.4276 
     28 C         -54.1342  -27.1210   14.7071 C.2       12 UNK         0.5020 
     29 O         -53.5683  -26.2242   14.0750 O.2       12 UNK        -0.5489 
     30 CA        -53.7871  -27.3551   16.1835 C.3       11 UNK         0.0294 
     31 CB        -53.1347  -28.7373   16.3939 C.3       11 UNK        -0.2019 
     32 N         -52.8661  -26.3111   16.6147 N.am      11 UNK        -0.4493 
     33 C         -52.6202  -25.9259   17.8676 C.2       11 UNK         0.4932 
     34 O         -53.1648  -26.4216   18.8558 O.2       11 UNK        -0.5029 
     35 CA        -51.5662  -24.8137   18.0337 C.3       10 UNK         0.0280 
     36 CB        -51.5155  -24.2571   19.4691 C.3       10 UNK        -0.1976 
     37 N         -50.2250  -25.2680   17.6528 N.am      10 UNK        -0.4242 
     38 C         -49.7936  -25.4384   16.3966 C.2       10 UNK         0.5072 
     39 O         -50.4977  -25.2726   15.3986 O.2       10 UNK        -0.5224 
     40 CA        -48.3330  -25.8833   16.2183 C.3       9 UNK         0.0343 
     41 CB        -48.2578  -27.3908   15.9287 C.3       9 UNK        -0.2003 
     42 N         -47.7088  -25.1253   15.1285 N.am      9 UNK        -0.4272 
     43 C         -47.3961  -23.8248   15.2421 C.2       9 UNK         0.4988 
     44 O         -47.4410  -23.2171   16.3135 O.2       9 UNK        -0.5108 
     45 CA        -46.9861  -23.0514   13.9772 C.3       8 UNK         0.0248 
     46 CB        -46.3888  -23.9156   12.8539 C.3       8 UNK        -0.2001 
     47 N         -48.1437  -22.3174   13.4651 N.am      8 UNK        -0.4140 
     48 C         -48.5341  -21.1097   13.9004 C.2       8 UNK         0.5028 
     49 O         -47.9003  -20.4369   14.7152 O.2       8 UNK        -0.5428 
     50 CA        -49.8345  -20.5237   13.3227 C.3       7 UNK         0.0264 
     51 CB        -49.5166  -19.4243   12.2949 C.3       7 UNK        -0.1988 
     52 N         -50.6885  -21.5272   12.6877 N.am      7 UNK        -0.4454 
     53 C         -51.5624  -22.3179   13.3273 C.2       7 UNK         0.5027 
     54 O         -51.7640  -22.2693   14.5414 O.2       7 UNK        -0.5083 
     55 CA        -52.3632  -23.3153   12.4601 C.3       6 UNK         0.0844 
     56 C56       -52.6210  -22.7924   11.0144 C.3       14 UNK        -0.0967 
     57 S57       -53.6292  -23.9178    9.9889 S.3       14 UNK        -0.2604 
     58 C58       -52.3604  -24.4710    8.8040 C.3       14 UNK         0.0134 
     59 N         -51.7658  -24.6529   12.5106 N.am      6 UNK        -0.4116 
     60 C         -50.5548  -25.0123   12.0646 C.2       5 UNK         0.5034 
     61 O         -49.7338  -24.2081   11.6126 O.2       5 UNK        -0.5045 
     62 CA        -50.2156  -26.5153   12.1154 C.3       5 UNK         0.0224 
     63 CB        -51.3730  -27.4014   11.6138 C.3       5 UNK        -0.1978 
     64 N         -49.0661  -26.8112   11.2658 N.am      5 UNK        -0.4737 
     65 C         -47.8178  -27.0597   11.6678 C.2       4 UNK         0.5027 
     66 O         -47.4501  -27.0201   12.8422 O.2       4 UNK        -0.5211 
     67 CA        -46.8297  -27.4223   10.5412 C.3       4 UNK         0.0297 
     68 CB        -45.4218  -27.7940   11.0533 C.3       4 UNK        -0.1993 
     69 N         -47.3927  -28.4615    9.6648 N.am      4 UNK        -0.4486 
     70 C         -47.7074  -29.7204   10.0109 C.2       3 UNK         0.4961 
     71 O         -47.3958  -30.2408   11.0825 O.2       3 UNK        -0.5105 
     72 CA        -48.5471  -30.5448    9.0191 C.3       3 UNK         0.0299 
     73 CB        -50.0032  -30.6255    9.5047 C.3       3 UNK        -0.1972 
     74 N         -48.5436  -30.0303    7.6484 N.am      3 UNK        -0.4305 
     75 C         -47.5838  -30.2680    6.7429 C.2       2 UNK         0.5006 
     76 O         -46.5489  -30.8886    6.9882 O.2       2 UNK        -0.5106 
     77 CA        -47.8295  -29.7501    5.3127 C.3       2 UNK         0.0296 
     78 CB        -48.4267  -30.8631    4.4360 C.3       2 UNK        -0.2002 
     79 N         -48.7171  -28.5848    5.2794 N.am      2 UNK        -0.4032 
     80 C         -48.3293  -27.3430    5.5940 C.2       1 UNK         0.5000 
     81 O         -47.1569  -27.0340    5.8279 O.2       1 UNK        -0.5238 
     82 H82       -49.3162  -23.4926    9.0314 H         1 UNK         0.0889 
     83 H83       -47.8910  -23.3753    7.9934 H         1 UNK         0.0889 
     84 H84       -47.8306  -24.3317    9.4734 H         1 UNK         0.0889 
     85 H85       -48.7829  -24.3148    6.0919 H         1 UNK         0.3028 
     86 H86       -50.3013  -26.7572    6.1503 H         1 UNK         0.0864 
     87 H87       -50.2956  -24.7570    4.3502 H         1 UNK         0.0720 
     88 H88       -49.0296  -25.6747    3.5988 H         1 UNK         0.0720 
     89 H89       -53.5109  -26.3864    3.3786 H         1 UNK         0.0814 
     90 H90       -52.6330  -24.9279    3.7498 H         1 UNK         0.0814 
     91 H91       -52.1181  -24.3526    6.0925 H         1 UNK         0.1469 
     92 H92       -53.7161  -26.8032    9.2250 H         1 UNK         0.1381 
     93 H93       -53.9674  -28.1026    5.1457 H         1 UNK         0.1206 
     94 H94       -55.3832  -28.5794    8.4595 H         1 UNK         0.0813 
     95 H95       -55.2249  -29.2734    6.8641 H         1 UNK         0.0813 
     96 H96       -55.6281  -31.0766    8.7343 H         1 UNK         0.0638 
     97 H97       -54.3599  -32.2560    8.7472 H         1 UNK         0.0638 
     98 H98       -55.4493  -31.8315   10.9899 H         1 UNK         0.0568 
     99 H99       -52.3481  -33.5711   11.5437 H         1 UNK         0.3450 
    100 H100      -53.8497  -33.7162   10.6691 H         1 UNK         0.3450 
    101 H101      -54.6279  -29.1020   10.5284 H         1 UNK         0.2987 
    102 H102      -54.6218  -27.5265   12.1555 H         1 UNK         0.0766 
    103 H103      -57.0130  -27.5734   11.4368 H         1 UNK         0.0798 
    104 H104      -56.8028  -26.4417   12.7636 H         1 UNK         0.0798 
    105 H105      -57.5203  -28.0248   13.0600 H         1 UNK         0.0798 
    106 H106      -55.3989  -28.7094   14.7461 H         1 UNK         0.3198 
    107 H107      -54.7079  -27.2840   16.7663 H         1 UNK         0.0843 
    108 H108      -53.8054  -29.5468   16.1041 H         1 UNK         0.0831 
    109 H109      -52.8751  -28.9010   17.4399 H         1 UNK         0.0831 
    110 H110      -52.2225  -28.8418   15.8047 H         1 UNK         0.0831 
    111 H111      -52.3640  -25.8513   15.8562 H         1 UNK         0.3133 
    112 H112      -51.8533  -23.9929   17.3722 H         1 UNK         0.0566 
    113 H113      -51.2105  -25.0176   20.1891 H         1 UNK         0.0814 
    114 H114      -52.4943  -23.8885   19.7790 H         1 UNK         0.0814 
    115 H115      -50.8186  -23.4223   19.5465 H         1 UNK         0.0814 
    116 H116      -49.5881  -25.4625   18.4121 H         1 UNK         0.3091 
    117 H117      -47.7794  -25.6866   17.1390 H         1 UNK         0.0702 
    118 H118      -47.2309  -27.7108   15.7514 H         1 UNK         0.0785 
    119 H119      -48.8485  -27.6666   15.0550 H         1 UNK         0.0785 
    120 H120      -48.6390  -27.9684   16.7716 H         1 UNK         0.0785 
    121 H121      -47.6509  -25.5921   14.2276 H         1 UNK         0.2998 
    122 H122      -46.2108  -22.3450   14.2818 H         1 UNK         0.0697 
    123 H123      -47.1607  -24.4539   12.3102 H         1 UNK         0.0825 
    124 H124      -45.6704  -24.6413   13.2380 H         1 UNK         0.0825 
    125 H125      -45.8621  -23.2952   12.1288 H         1 UNK         0.0825 
    126 H126      -48.7422  -22.8176   12.8158 H         1 UNK         0.3029 
    127 H127      -50.3815  -20.0675   14.1510 H         1 UNK         0.0897 
    128 H128      -48.9638  -19.8165   11.4402 H         1 UNK         0.0792 
    129 H129      -48.9085  -18.6364   12.7417 H         1 UNK         0.0792 
    130 H130      -50.4267  -18.9547   11.9211 H         1 UNK         0.0792 
    131 H131      -50.5537  -21.6683   11.6972 H         1 UNK         0.3086 
    132 H132      -53.3368  -23.4191   12.9418 H         1 UNK         0.0583 
    133 H133      -53.1447  -21.8353   11.0548 H         1 UNK         0.1020 
    134 H134      -51.6837  -22.5967   10.4923 H         1 UNK         0.1020 
    135 H135      -51.9368  -23.5952    8.3102 H         1 UNK         0.0694 
    136 H136      -51.5461  -24.9445    9.3508 H         1 UNK         0.0694 
    137 H137      -52.3503  -25.3518   12.9656 H         1 UNK         0.2989 
    138 H138      -49.9966  -26.7693   13.1537 H         1 UNK         0.1055 
    139 H139      -51.0901  -28.4544   11.6154 H         1 UNK         0.0806 
    140 H140      -51.6703  -27.1401   10.5978 H         1 UNK         0.0806 
    141 H141      -52.2517  -27.3210   12.2468 H         1 UNK         0.0806 
    142 H142      -49.2319  -26.7498   10.2622 H         1 UNK         0.3061 
    143 H143      -46.7228  -26.5285    9.9256 H         1 UNK         0.0734 
    144 H144      -45.4459  -28.6352   11.7463 H         1 UNK         0.0832 
    145 H145      -44.7553  -28.0534   10.2310 H         1 UNK         0.0832 
    146 H146      -44.9722  -26.9548   11.5852 H         1 UNK         0.0832 
    147 H147      -47.7433  -28.1247    8.7773 H         1 UNK         0.3156 
    148 H148      -48.1391  -31.5579    9.0127 H         1 UNK         0.0589 
    149 H149      -50.5955  -31.2954    8.8812 H         1 UNK         0.0808 
    150 H150      -50.4866  -29.6477    9.5007 H         1 UNK         0.0808 
    151 H151      -50.0563  -31.0082   10.5250 H         1 UNK         0.0808 
    152 H152      -49.3590  -29.5095    7.3613 H         1 UNK         0.3098 
    153 H153      -46.8617  -29.4693    4.8909 H         1 UNK         0.0720 
    154 H154      -47.7740  -31.7371    4.4173 H         1 UNK         0.0791 
    155 H155      -48.5510  -30.5319    3.4047 H         1 UNK         0.0791 
    156 H156      -49.4000  -31.1913    4.8035 H         1 UNK         0.0791 
    157 H157      -49.6863  -28.7498    5.0436 H         1 UNK         0.3028 
@<TRIPOS>BOND
     1    1    2 1    
     2    1   82 1    
     3    1   83 1    
     4    1   84 1    
     5    2    3 2    
     6    2    4 am   BACKBONE|DICT|INTERRES
     7    4    5 1    
     8    4   85 1    
     9    5    6 1    
    10    5   80 1    
    11    5   86 1    
    12    6    7 1    
    13    6   87 1    
    14    6   88 1    
    15    7    8 1    
    16    8    9 1    
    17    8   89 1    
    18    8   90 1    
    19    9   10 ar   
    20    9   14 ar   
    21   10   11 ar   
    22   10   91 1    
    23   11   12 ar   
    24   11   58 1    
    25   12   13 ar   
    26   12   92 1    
    27   13   14 ar   
    28   13   15 1    
    29   14   93 1    
    30   15   16 1    
    31   15   94 1    
    32   15   95 1    
    33   16   17 1    
    34   17   18 1    
    35   17   96 1    
    36   17   97 1    
    37   18   19 1    
    38   18   22 1    
    39   18   98 1    
    40   19   20 am   BACKBONE|DICT|INTERRES
    41   19   21 2    
    42   20   99 1    
    43   20  100 1    
    44   22   23 am   BACKBONE|DICT|INTERRES
    45   22  101 1    
    46   23   24 2    
    47   23   25 1    
    48   25   26 1    
    49   25   27 1    
    50   25  102 1    
    51   26  103 1    
    52   26  104 1    
    53   26  105 1    
    54   27   28 am   BACKBONE|DICT|INTERRES
    55   27  106 1    
    56   28   29 2    
    57   28   30 1    
    58   30   31 1    
    59   30   32 1    
    60   30  107 1    
    61   31  108 1    
    62   31  109 1    
    63   31  110 1    
    64   32   33 am   BACKBONE|DICT|INTERRES
    65   32  111 1    
    66   33   34 2    
    67   33   35 1    
    68   35   36 1    
    69   35   37 1    
    70   35  112 1    
    71   36  113 1    
    72   36  114 1    
    73   36  115 1    
    74   37   38 am   BACKBONE|DICT|INTERRES
    75   37  116 1    
    76   38   39 2    
    77   38   40 1    
    78   40   41 1    
    79   40   42 1    
    80   40  117 1    
    81   41  118 1    
    82   41  119 1    
    83   41  120 1    
    84   42   43 am   BACKBONE|DICT|INTERRES
    85   42  121 1    
    86   43   44 2    
    87   43   45 1    
    88   45   46 1    
    89   45   47 1    
    90   45  122 1    
    91   46  123 1    
    92   46  124 1    
    93   46  125 1    
    94   47   48 am   BACKBONE|DICT|INTERRES
    95   47  126 1    
    96   48   49 2    
    97   48   50 1    
    98   50   51 1    
    99   50   52 1    
   100   50  127 1    
   101   51  128 1    
   102   51  129 1    
   103   51  130 1    
   104   52   53 am   BACKBONE|DICT|INTERRES
   105   52  131 1    
   106   53   54 2    
   107   53   55 1    
   108   55   56 1    
   109   55   59 1    
   110   55  132 1    
   111   56   57 1    
   112   56  133 1    
   113   56  134 1    
   114   57   58 1    
   115   58  135 1    
   116   58  136 1    
   117   59   60 am   BACKBONE|DICT|INTERRES
   118   59  137 1    
   119   60   61 2    
   120   60   62 1    
   121   62   63 1    
   122   62   64 1    
   123   62  138 1    
   124   63  139 1    
   125   63  140 1    
   126   63  141 1    
   127   64   65 am   BACKBONE|DICT|INTERRES
   128   64  142 1    
   129   65   66 2    
   130   65   67 1    
   131   67   68 1    
   132   67   69 1    
   133   67  143 1    
   134   68  144 1    
   135   68  145 1    
   136   68  146 1    
   137   69   70 am   BACKBONE|DICT|INTERRES
   138   69  147 1    
   139   70   71 2    
   140   70   72 1    
   141   72   73 1    
   142   72   74 1    
   143   72  148 1    
   144   73  149 1    
   145   73  150 1    
   146   73  151 1    
   147   74   75 am   BACKBONE|DICT|INTERRES
   148   74  152 1    
   149   75   76 2    
   150   75   77 1    
   151   77   78 1    
   152   77   79 1    
   153   77  153 1    
   154   78  154 1    
   155   78  155 1    
   156   78  156 1    
   157   79   80 am   BACKBONE|DICT|INTERRES
   158   79  157 1    
   159   80   81 2    
@<TRIPOS>SUBSTRUCTURE
     1 UNK         1 GROUP             0       ****    0 ROOT    
