@<TRIPOS>MOLECULE
3R207
157   159    1
SMALL
USER_CHARGES


@<TRIPOS>ATOM
      1 CA        -46.4788  -27.4987    1.9082 C.3       0 UNK        -0.1975 
      2 C         -47.8918  -27.1933    2.3827 C.2       0 UNK         0.4852 
      3 O         -48.5460  -26.3110    1.8258 O.2       0 UNK        -0.5216 
      4 N         -48.3666  -27.9163    3.4070 N.am      1 UNK        -0.4461 
      5 CA        -49.6985  -27.7523    4.0043 C.3       1 UNK         0.0864 
      6 C6        -50.0558  -28.9650    4.9049 C.3       14 UNK        -0.0898 
      7 S7        -51.8532  -29.1713    5.1457 S.3       14 UNK        -0.2598 
      8 C8        -51.9265  -30.7484    6.0546 C.3       14 UNK         0.0286 
      9 C9        -51.4321  -30.6023    7.4865 C.ar      14 UNK        -0.0844 
     10 C10       -50.1120  -30.9296    7.8124 C.ar      14 UNK        -0.0881 
     11 C11       -49.6466  -30.7755    9.1207 C.ar      14 UNK        -0.0643 
     12 C12       -50.5179  -30.3090   10.1084 C.ar      14 UNK        -0.0930 
     13 C13       -51.8416  -29.9847    9.7998 C.ar      14 UNK        -0.0827 
     14 C14       -52.2948  -30.1377    8.4856 C.ar      14 UNK        -0.1249 
     15 C15       -52.7569  -29.4193   10.8768 C.3       14 UNK         0.0141 
     16 S16       -53.4412  -30.7140   11.9514 S.3       14 UNK        -0.2313 
     17 C17       -53.9543  -29.7487   13.4155 C.3       14 UNK        -0.0915 
     18 CA        -55.3335  -29.0578   13.2470 C.3       13 UNK         0.0968 
     19 C         -55.9533  -28.7004   14.6256 C.2       13 UNK         0.5732 
     20 N         -56.6548  -29.6378   15.2478 N.am      13 UNK        -0.7310 
     21 O         -55.7777  -27.6027   15.1515 O.2       13 UNK        -0.5035 
     22 N         -55.2248  -27.8691   12.3936 N.am      13 UNK        -0.4233 
     23 C         -56.2342  -27.3090   11.7228 C.2       13 UNK         0.4989 
     24 O         -57.3715  -27.7810   11.6680 O.2       13 UNK        -0.4996 
     25 CA        -55.9089  -25.9836   11.0065 C.3       12 UNK         0.0216 
     26 CB        -56.9547  -25.6194    9.9363 C.3       12 UNK        -0.1964 
     27 N         -55.7819  -24.8698   11.9494 N.am      12 UNK        -0.4276 
     28 C         -54.7574  -24.6808   12.7896 C.2       12 UNK         0.5020 
     29 O         -53.7797  -25.4326   12.8635 O.2       12 UNK        -0.5489 
     30 CA        -54.8488  -23.4574   13.7092 C.3       11 UNK         0.0294 
     31 CB        -55.8501  -23.7058   14.8533 C.3       11 UNK        -0.2019 
     32 N         -53.5236  -23.2011   14.2598 N.am      11 UNK        -0.4493 
     33 C         -53.0841  -22.0531   14.7899 C.2       11 UNK         0.4932 
     34 O         -53.7622  -21.0258   14.8397 O.2       11 UNK        -0.5029 
     35 CA        -51.6440  -22.0514   15.3521 C.3       10 UNK         0.0280 
     36 CB        -51.4410  -21.0148   16.4782 C.3       10 UNK        -0.1976 
     37 N         -51.1846  -23.3855   15.7616 N.am      10 UNK        -0.4242 
     38 C         -51.7010  -24.1467   16.7421 C.2       10 UNK         0.5072 
     39 O         -52.5912  -23.7765   17.5083 O.2       10 UNK        -0.5224 
     40 CA        -51.1741  -25.5839   16.8705 C.3       9 UNK         0.0343 
     41 CB        -52.2108  -26.5780   16.3158 C.3       9 UNK        -0.2003 
     42 N         -49.9105  -25.7922   16.1678 N.am      9 UNK        -0.4272 
     43 C         -48.6897  -25.5233   16.6511 C.2       9 UNK         0.4988 
     44 O         -48.4889  -25.0229   17.7588 O.2       9 UNK        -0.5108 
     45 CA        -47.4982  -25.8743   15.7329 C.3       8 UNK         0.0248 
     46 CB        -46.2263  -26.2595   16.5170 C.3       8 UNK        -0.2001 
     47 N         -47.8387  -26.8908   14.7263 N.am      8 UNK        -0.4140 
     48 C         -48.2142  -28.1621   14.9410 C.2       8 UNK         0.5028 
     49 O         -48.1828  -28.7189   16.0386 O.2       8 UNK        -0.5428 
     50 CA        -48.8008  -28.9212   13.7392 C.3       7 UNK         0.0264 
     51 CB        -50.3355  -28.9338   13.8414 C.3       7 UNK        -0.1988 
     52 N         -48.3975  -28.3526   12.4478 N.am      7 UNK        -0.4454 
     53 C         -47.1994  -28.5791   11.8867 C.2       7 UNK         0.5027 
     54 O         -46.3625  -29.3519   12.3562 O.2       7 UNK        -0.5083 
     55 CA        -46.8587  -27.7751   10.6152 C.3       6 UNK         0.0844 
     56 C56       -47.6064  -28.3056    9.3682 C.3       14 UNK        -0.0967 
     57 S57       -47.0114  -29.9172    8.7505 S.3       14 UNK        -0.2604 
     58 C58       -48.2005  -31.0998    9.4717 C.3       14 UNK         0.0134 
     59 N         -47.1019  -26.3416   10.7967 N.am      6 UNK        -0.4116 
     60 C         -46.5264  -25.5406   11.7045 C.2       5 UNK         0.5034 
     61 O         -45.6815  -25.9124   12.5172 O.2       5 UNK        -0.5045 
     62 CA        -46.9864  -24.0755   11.7247 C.3       5 UNK         0.0224 
     63 CB        -46.1513  -23.2395   10.7414 C.3       5 UNK        -0.1978 
     64 N         -48.4031  -23.9465   11.3813 N.am      5 UNK        -0.4737 
     65 C         -49.4116  -23.9824   12.2614 C.2       4 UNK         0.5027 
     66 O         -49.2704  -24.1007   13.4800 O.2       4 UNK        -0.5211 
     67 CA        -50.8306  -23.8873   11.6791 C.3       4 UNK         0.0297 
     68 CB        -51.2268  -22.4205   11.4452 C.3       4 UNK        -0.1993 
     69 N         -51.0191  -24.6259   10.4303 N.am      4 UNK        -0.4486 
     70 C         -50.8211  -25.9383   10.2557 C.2       3 UNK         0.4961 
     71 O         -50.4070  -26.7077   11.1254 O.2       3 UNK        -0.5105 
     72 CA        -51.0877  -26.4650    8.8365 C.3       3 UNK         0.0299 
     73 CB        -52.5970  -26.5204    8.5536 C.3       3 UNK        -0.1972 
     74 N         -50.4415  -25.7275    7.7451 N.am      3 UNK        -0.4305 
     75 C         -49.2018  -25.2204    7.6901 C.2       2 UNK         0.5006 
     76 O         -48.4438  -25.1336    8.6566 O.2       2 UNK        -0.5106 
     77 CA        -48.7144  -24.7920    6.2919 C.3       2 UNK         0.0296 
     78 CB        -47.2916  -24.2020    6.3187 C.3       2 UNK        -0.2002 
     79 N         -48.7412  -25.9316    5.3686 N.am      2 UNK        -0.4032 
     80 C         -49.8428  -26.4238    4.7807 C.2       1 UNK         0.5000 
     81 O         -50.9480  -25.8844    4.8720 O.2       1 UNK        -0.5238 
     82 H82       -45.8522  -26.6121    2.0009 H         1 UNK         0.0889 
     83 H83       -46.4919  -27.7988    0.8607 H         1 UNK         0.0889 
     84 H84       -46.0184  -28.3011    2.4845 H         1 UNK         0.0889 
     85 H85       -47.7862  -28.6377    3.8119 H         1 UNK         0.3028 
     86 H86       -50.4125  -27.7181    3.1780 H         1 UNK         0.0864 
     87 H87       -49.6912  -29.8867    4.4482 H         1 UNK         0.0720 
     88 H88       -49.5629  -28.8936    5.8767 H         1 UNK         0.0720 
     89 H89       -51.3509  -31.5071    5.5218 H         1 UNK         0.0814 
     90 H90       -52.9586  -31.1019    6.0610 H         1 UNK         0.0814 
     91 H91       -49.4379  -31.2860    7.0455 H         1 UNK         0.1469 
     92 H92       -50.1569  -30.1834   11.1171 H         1 UNK         0.1381 
     93 H93       -53.3137  -29.8774    8.2338 H         1 UNK         0.1206 
     94 H94       -53.5936  -28.8941   10.4188 H         1 UNK         0.0813 
     95 H95       -52.2131  -28.6835   11.4694 H         1 UNK         0.0813 
     96 H96       -53.9801  -30.4571   14.2458 H         1 UNK         0.0638 
     97 H97       -53.1850  -29.0199   13.6741 H         1 UNK         0.0638 
     98 H98       -56.0113  -29.7629   12.7612 H         1 UNK         0.0568 
     99 H99       -56.7963  -30.5462   14.8342 H         1 UNK         0.3450 
    100 H100      -57.0539  -29.4301   16.1497 H         1 UNK         0.3450 
    101 H101      -54.3863  -27.3091   12.5098 H         1 UNK         0.2987 
    102 H102      -54.9519  -26.1106   10.4989 H         1 UNK         0.0766 
    103 H103      -56.6623  -24.7264    9.3834 H         1 UNK         0.0798 
    104 H104      -57.9376  -25.4374   10.3730 H         1 UNK         0.0798 
    105 H105      -57.0652  -26.4256    9.2096 H         1 UNK         0.0798 
    106 H106      -56.5578  -24.2239   11.9823 H         1 UNK         0.3198 
    107 H107      -55.1631  -22.5963   13.1154 H         1 UNK         0.0843 
    108 H108      -55.9211  -22.8437   15.5166 H         1 UNK         0.0831 
    109 H109      -55.5602  -24.5677   15.4567 H         1 UNK         0.0831 
    110 H110      -56.8523  -23.8994   14.4695 H         1 UNK         0.0831 
    111 H111      -52.9056  -24.0009   14.2010 H         1 UNK         0.3133 
    112 H112      -50.9910  -21.7561   14.5328 H         1 UNK         0.0566 
    113 H113      -50.4232  -21.0445   16.8668 H         1 UNK         0.0814 
    114 H114      -51.6172  -20.0025   16.1125 H         1 UNK         0.0814 
    115 H115      -52.1243  -21.1790   17.3117 H         1 UNK         0.0814 
    116 H116      -50.4494  -23.7840   15.1852 H         1 UNK         0.3091 
    117 H117      -51.0297  -25.7914   17.9330 H         1 UNK         0.0702 
    118 H118      -51.8881  -27.6092   16.4597 H         1 UNK         0.0785 
    119 H119      -52.3919  -26.4278   15.2503 H         1 UNK         0.0785 
    120 H120      -53.1706  -26.4688   16.8233 H         1 UNK         0.0785 
    121 H121      -49.9688  -26.1712   15.2347 H         1 UNK         0.2998 
    122 H122      -47.2726  -24.9648   15.1745 H         1 UNK         0.0697 
    123 H123      -46.3940  -27.1162   17.1701 H         1 UNK         0.0825 
    124 H124      -45.8909  -25.4344   17.1464 H         1 UNK         0.0825 
    125 H125      -45.4061  -26.5053   15.8423 H         1 UNK         0.0825 
    126 H126      -47.8905  -26.5502   13.7771 H         1 UNK         0.3029 
    127 H127      -48.4479  -29.9530   13.8049 H         1 UNK         0.0897 
    128 H128      -50.7706  -29.6635   13.1630 H         1 UNK         0.0792 
    129 H129      -50.6634  -29.2151   14.8434 H         1 UNK         0.0792 
    130 H130      -50.7697  -27.9588   13.6173 H         1 UNK         0.0792 
    131 H131      -49.0550  -27.7224   11.9894 H         1 UNK         0.3086 
    132 H132      -45.7867  -27.8833   10.4373 H         1 UNK         0.0583 
    133 H133      -48.6814  -28.3232    9.5367 H         1 UNK         0.1020 
    134 H134      -47.4599  -27.6098    8.5414 H         1 UNK         0.1020 
    135 H135      -47.9617  -32.1007    9.1096 H         1 UNK         0.0694 
    136 H136      -48.0621  -31.1301   10.5534 H         1 UNK         0.0694 
    137 H137      -47.7418  -25.9129   10.1317 H         1 UNK         0.2989 
    138 H138      -46.8199  -23.6867   12.7322 H         1 UNK         0.1055 
    139 H139      -45.0885  -23.3038   10.9790 H         1 UNK         0.0806 
    140 H140      -46.4288  -22.1862   10.7834 H         1 UNK         0.0806 
    141 H141      -46.2772  -23.5781    9.7119 H         1 UNK         0.0806 
    142 H142      -48.6283  -23.9283   10.3931 H         1 UNK         0.3061 
    143 H143      -51.5035  -24.3168   12.4207 H         1 UNK         0.0734 
    144 H144      -52.2935  -22.3281   11.2394 H         1 UNK         0.0832 
    145 H145      -51.0122  -21.8010   12.3138 H         1 UNK         0.0832 
    146 H146      -50.6829  -21.9850   10.6062 H         1 UNK         0.0832 
    147 H147      -51.3324  -24.0920    9.6331 H         1 UNK         0.3156 
    148 H148      -50.7052  -27.4850    8.7932 H         1 UNK         0.0589 
    149 H149      -53.0237  -25.5258    8.4196 H         1 UNK         0.0808 
    150 H150      -52.8083  -27.1003    7.6545 H         1 UNK         0.0808 
    151 H151      -53.1328  -26.9914    9.3736 H         1 UNK         0.0808 
    152 H152      -50.9410  -25.7431    6.8604 H         1 UNK         0.3098 
    153 H153      -49.3927  -24.0173    5.9282 H         1 UNK         0.0720 
    154 H154      -46.9797  -23.8738    5.3270 H         1 UNK         0.0791 
    155 H155      -46.5590  -24.9253    6.6793 H         1 UNK         0.0791 
    156 H156      -47.2420  -23.3332    6.9767 H         1 UNK         0.0791 
    157 H157      -47.8766  -26.4402    5.2551 H         1 UNK         0.3028 
@<TRIPOS>BOND
     1    1    2 1    
     2    1   82 1    
     3    1   83 1    
     4    1   84 1    
     5    2    3 2    
     6    2    4 am   BACKBONE|DICT|INTERRES
     7    4    5 1    
     8    4   85 1    
     9    5    6 1    
    10    5   80 1    
    11    5   86 1    
    12    6    7 1    
    13    6   87 1    
    14    6   88 1    
    15    7    8 1    
    16    8    9 1    
    17    8   89 1    
    18    8   90 1    
    19    9   10 ar   
    20    9   14 ar   
    21   10   11 ar   
    22   10   91 1    
    23   11   12 ar   
    24   11   58 1    
    25   12   13 ar   
    26   12   92 1    
    27   13   14 ar   
    28   13   15 1    
    29   14   93 1    
    30   15   16 1    
    31   15   94 1    
    32   15   95 1    
    33   16   17 1    
    34   17   18 1    
    35   17   96 1    
    36   17   97 1    
    37   18   19 1    
    38   18   22 1    
    39   18   98 1    
    40   19   20 am   BACKBONE|DICT|INTERRES
    41   19   21 2    
    42   20   99 1    
    43   20  100 1    
    44   22   23 am   BACKBONE|DICT|INTERRES
    45   22  101 1    
    46   23   24 2    
    47   23   25 1    
    48   25   26 1    
    49   25   27 1    
    50   25  102 1    
    51   26  103 1    
    52   26  104 1    
    53   26  105 1    
    54   27   28 am   BACKBONE|DICT|INTERRES
    55   27  106 1    
    56   28   29 2    
    57   28   30 1    
    58   30   31 1    
    59   30   32 1    
    60   30  107 1    
    61   31  108 1    
    62   31  109 1    
    63   31  110 1    
    64   32   33 am   BACKBONE|DICT|INTERRES
    65   32  111 1    
    66   33   34 2    
    67   33   35 1    
    68   35   36 1    
    69   35   37 1    
    70   35  112 1    
    71   36  113 1    
    72   36  114 1    
    73   36  115 1    
    74   37   38 am   BACKBONE|DICT|INTERRES
    75   37  116 1    
    76   38   39 2    
    77   38   40 1    
    78   40   41 1    
    79   40   42 1    
    80   40  117 1    
    81   41  118 1    
    82   41  119 1    
    83   41  120 1    
    84   42   43 am   BACKBONE|DICT|INTERRES
    85   42  121 1    
    86   43   44 2    
    87   43   45 1    
    88   45   46 1    
    89   45   47 1    
    90   45  122 1    
    91   46  123 1    
    92   46  124 1    
    93   46  125 1    
    94   47   48 am   BACKBONE|DICT|INTERRES
    95   47  126 1    
    96   48   49 2    
    97   48   50 1    
    98   50   51 1    
    99   50   52 1    
   100   50  127 1    
   101   51  128 1    
   102   51  129 1    
   103   51  130 1    
   104   52   53 am   BACKBONE|DICT|INTERRES
   105   52  131 1    
   106   53   54 2    
   107   53   55 1    
   108   55   56 1    
   109   55   59 1    
   110   55  132 1    
   111   56   57 1    
   112   56  133 1    
   113   56  134 1    
   114   57   58 1    
   115   58  135 1    
   116   58  136 1    
   117   59   60 am   BACKBONE|DICT|INTERRES
   118   59  137 1    
   119   60   61 2    
   120   60   62 1    
   121   62   63 1    
   122   62   64 1    
   123   62  138 1    
   124   63  139 1    
   125   63  140 1    
   126   63  141 1    
   127   64   65 am   BACKBONE|DICT|INTERRES
   128   64  142 1    
   129   65   66 2    
   130   65   67 1    
   131   67   68 1    
   132   67   69 1    
   133   67  143 1    
   134   68  144 1    
   135   68  145 1    
   136   68  146 1    
   137   69   70 am   BACKBONE|DICT|INTERRES
   138   69  147 1    
   139   70   71 2    
   140   70   72 1    
   141   72   73 1    
   142   72   74 1    
   143   72  148 1    
   144   73  149 1    
   145   73  150 1    
   146   73  151 1    
   147   74   75 am   BACKBONE|DICT|INTERRES
   148   74  152 1    
   149   75   76 2    
   150   75   77 1    
   151   77   78 1    
   152   77   79 1    
   153   77  153 1    
   154   78  154 1    
   155   78  155 1    
   156   78  156 1    
   157   79   80 am   BACKBONE|DICT|INTERRES
   158   79  157 1    
   159   80   81 2    
@<TRIPOS>SUBSTRUCTURE
     1 UNK         1 GROUP             0       ****    0 ROOT    
