@<TRIPOS>MOLECULE
3R207
157   159    1
SMALL
USER_CHARGES


@<TRIPOS>ATOM
      1 CA        -51.2404  -24.3992    3.7465 C.3       0 UNK        -0.1975 
      2 C         -50.9518  -25.4505    4.8070 C.2       0 UNK         0.4852 
      3 O         -50.4278  -25.1190    5.8715 O.2       0 UNK        -0.5216 
      4 N         -51.2883  -26.7174    4.5305 N.am      1 UNK        -0.4461 
      5 CA        -51.0545  -27.8565    5.4239 C.3       1 UNK         0.0864 
      6 C6        -51.7669  -29.1447    4.9385 C.3       14 UNK        -0.0898 
      7 S7        -53.5794  -28.9276    4.8432 S.3       14 UNK        -0.2598 
      8 C8        -54.2031  -30.1658    6.0388 C.3       14 UNK         0.0286 
      9 C9        -53.7135  -29.9959    7.4779 C.ar      14 UNK        -0.0844 
     10 C10       -53.3688  -28.7446    8.0036 C.ar      14 UNK        -0.0881 
     11 C11       -52.8744  -28.6295    9.3047 C.ar      14 UNK        -0.0643 
     12 C12       -52.7787  -29.7659   10.1077 C.ar      14 UNK        -0.0930 
     13 C13       -53.1883  -31.0100    9.6249 C.ar      14 UNK        -0.0827 
     14 C14       -53.6335  -31.1229    8.3038 C.ar      14 UNK        -0.1249 
     15 C15       -53.1933  -32.2149   10.5531 C.3       14 UNK         0.0141 
     16 S16       -54.3926  -32.0001   11.9120 S.3       14 UNK        -0.2313 
     17 C17       -55.9739  -31.8949   11.0020 C.3       14 UNK        -0.0915 
     18 CA        -56.4272  -30.4342   10.6893 C.3       13 UNK         0.0968 
     19 C         -57.7003  -30.3796    9.7905 C.2       13 UNK         0.5732 
     20 N         -58.5452  -29.3612    9.9042 N.am      13 UNK        -0.7310 
     21 O         -57.9166  -31.2528    8.9532 O.2       13 UNK        -0.5035 
     22 N         -56.4722  -29.5613   11.8769 N.am      13 UNK        -0.4233 
     23 C         -57.2784  -29.6977   12.9360 C.2       13 UNK         0.4989 
     24 O         -58.0995  -30.6078   13.0644 O.2       13 UNK        -0.4996 
     25 CA        -57.1329  -28.6299   14.0384 C.3       12 UNK         0.0216 
     26 CB        -58.1203  -28.8386   15.2028 C.3       12 UNK        -0.1964 
     27 N         -55.7709  -28.5799   14.5766 N.am      12 UNK        -0.4276 
     28 C         -54.7364  -27.9455   14.0123 C.2       12 UNK         0.5020 
     29 O         -54.8022  -27.3486   12.9346 O.2       12 UNK        -0.5489 
     30 CA        -53.3963  -28.0205   14.7603 C.3       11 UNK         0.0294 
     31 CB        -52.3714  -28.8509   13.9704 C.3       11 UNK        -0.2019 
     32 N         -52.8380  -26.6941   15.0192 N.am      11 UNK        -0.4493 
     33 C         -53.3447  -25.7878   15.8678 C.2       11 UNK         0.4932 
     34 O         -54.3879  -25.9501   16.5038 O.2       11 UNK        -0.5029 
     35 CA        -52.5009  -24.5099   16.0636 C.3       10 UNK         0.0280 
     36 CB        -52.9803  -23.6295   17.2375 C.3       10 UNK        -0.1976 
     37 N         -51.0685  -24.8225   16.1759 N.am      10 UNK        -0.4242 
     38 C         -50.4854  -25.5930   17.1091 C.2       10 UNK         0.5072 
     39 O         -51.0588  -26.0180   18.1132 O.2       10 UNK        -0.5224 
     40 CA        -49.0295  -26.0183   16.8636 C.3       9 UNK         0.0343 
     41 CB        -48.9998  -27.3764   16.1428 C.3       9 UNK        -0.2003 
     42 N         -48.2399  -25.0455   16.1040 N.am      9 UNK        -0.4272 
     43 C         -47.7276  -23.9266   16.6370 C.2       9 UNK         0.4988 
     44 O         -47.9317  -23.5652   17.7968 O.2       9 UNK        -0.5108 
     45 CA        -46.8052  -23.0820   15.7420 C.3       8 UNK         0.0248 
     46 CB        -45.4405  -23.7689   15.5677 C.3       8 UNK        -0.2001 
     47 N         -47.3852  -22.7959   14.4301 N.am      8 UNK        -0.4140 
     48 C         -48.4319  -21.9840   14.2244 C.2       8 UNK         0.5028 
     49 O         -48.9941  -21.3467   15.1158 O.2       8 UNK        -0.5428 
     50 CA        -48.9574  -21.8779   12.7815 C.3       7 UNK         0.0264 
     51 CB        -48.1261  -20.8743   11.9668 C.3       7 UNK        -0.1988 
     52 N         -48.9960  -23.1661   12.0844 N.am      7 UNK        -0.4454 
     53 C         -49.7233  -24.2215   12.4804 C.2       7 UNK         0.5027 
     54 O         -50.4557  -24.2247   13.4692 O.2       7 UNK        -0.5083 
     55 CA        -49.5841  -25.5095   11.6533 C.3       6 UNK         0.0844 
     56 C56       -50.4387  -25.4081   10.3664 C.3       14 UNK        -0.0967 
     57 S57       -50.6656  -27.0234    9.5677 S.3       14 UNK        -0.2604 
     58 C58       -52.4427  -27.2805    9.8465 C.3       14 UNK         0.0134 
     59 N         -48.1709  -25.8156   11.3991 N.am      6 UNK        -0.4116 
     60 C         -47.2780  -26.1089   12.3586 C.2       5 UNK         0.5034 
     61 O         -47.5667  -26.2335   13.5478 O.2       5 UNK        -0.5045 
     62 CA        -45.8018  -26.2135   11.9446 C.3       5 UNK         0.0224 
     63 CB        -45.4532  -27.6279   11.4656 C.3       5 UNK        -0.1978 
     64 N         -45.4391  -25.2305   10.9220 N.am      5 UNK        -0.4737 
     65 C         -45.3487  -23.9154   11.1687 C.2       4 UNK         0.5027 
     66 O         -45.5228  -23.4194   12.2810 O.2       4 UNK        -0.5211 
     67 CA        -45.0646  -22.9907    9.9740 C.3       4 UNK         0.0297 
     68 CB        -43.5509  -22.8133    9.7805 C.3       4 UNK        -0.1993 
     69 N         -45.6687  -23.4496    8.7210 N.am      4 UNK        -0.4486 
     70 C         -46.9792  -23.6460    8.5218 C.2       3 UNK         0.4961 
     71 O         -47.8351  -23.4550    9.3870 O.2       3 UNK        -0.5105 
     72 CA        -47.4115  -24.1505    7.1333 C.3       3 UNK         0.0299 
     73 CB        -46.3642  -23.9052    6.0236 C.3       3 UNK        -0.1972 
     74 N         -47.8214  -25.5597    7.1363 N.am      3 UNK        -0.4305 
     75 C         -47.1039  -26.6244    7.5378 C.2       2 UNK         0.5006 
     76 O         -46.0047  -26.5326    8.0881 O.2       2 UNK        -0.5106 
     77 CA        -47.6878  -28.0309    7.2780 C.3       2 UNK         0.0296 
     78 CB        -47.5568  -28.9466    8.5066 C.3       2 UNK        -0.2002 
     79 N         -49.0936  -27.9877    6.8762 N.am      2 UNK        -0.4032 
     80 C         -49.5430  -28.0809    5.6191 C.2       1 UNK         0.5000 
     81 O         -48.8265  -28.2950    4.6379 O.2       1 UNK        -0.5238 
     82 H82       -51.7059  -24.8308    2.8606 H         1 UNK         0.0889 
     83 H83       -50.3147  -23.9121    3.4413 H         1 UNK         0.0889 
     84 H84       -51.9105  -23.6387    4.1463 H         1 UNK         0.0889 
     85 H85       -51.7101  -26.9417    3.6408 H         1 UNK         0.3028 
     86 H86       -51.4719  -27.5832    6.3929 H         1 UNK         0.0864 
     87 H87       -51.4038  -29.4368    3.9514 H         1 UNK         0.0720 
     88 H88       -51.5403  -29.9799    5.6041 H         1 UNK         0.0720 
     89 H89       -53.9321  -31.1564    5.6702 H         1 UNK         0.0814 
     90 H90       -55.2931  -30.1266    6.0405 H         1 UNK         0.0814 
     91 H91       -53.4689  -27.8552    7.3984 H         1 UNK         0.1469 
     92 H92       -52.4169  -29.6795   11.1219 H         1 UNK         0.1381 
     93 H93       -53.9389  -32.0883    7.9234 H         1 UNK         0.1206 
     94 H94       -52.1964  -32.3486   10.9753 H         1 UNK         0.0813 
     95 H95       -53.4241  -33.1313   10.0079 H         1 UNK         0.0813 
     96 H96       -55.8728  -32.4704   10.0803 H         1 UNK         0.0638 
     97 H97       -56.7349  -32.4095   11.5901 H         1 UNK         0.0638 
     98 H98       -55.6622  -29.9868   10.0583 H         1 UNK         0.0568 
     99 H99       -59.3599  -29.3292    9.3121 H         1 UNK         0.3450 
    100 H100      -58.3769  -28.6274   10.5728 H         1 UNK         0.3450 
    101 H101      -55.8219  -28.7823   11.8829 H         1 UNK         0.2987 
    102 H102      -57.3650  -27.6652   13.5815 H         1 UNK         0.0766 
    103 H103      -58.0354  -28.0421   15.9425 H         1 UNK         0.0798 
    104 H104      -57.9526  -29.7889   15.7115 H         1 UNK         0.0798 
    105 H105      -59.1514  -28.8369   14.8464 H         1 UNK         0.0798 
    106 H106      -55.6180  -29.0757   15.4434 H         1 UNK         0.3198 
    107 H107      -53.5559  -28.5082   15.7246 H         1 UNK         0.0843 
    108 H108      -52.7742  -29.8323   13.7152 H         1 UNK         0.0831 
    109 H109      -51.4632  -29.0158   14.5504 H         1 UNK         0.0831 
    110 H110      -52.0884  -28.3593   13.0395 H         1 UNK         0.0831 
    111 H111      -52.0016  -26.4472   14.5115 H         1 UNK         0.3133 
    112 H112      -52.6160  -23.9254   15.1499 H         1 UNK         0.0566 
    113 H113      -52.3617  -22.7380   17.3414 H         1 UNK         0.0814 
    114 H114      -54.0064  -23.2958   17.0788 H         1 UNK         0.0814 
    115 H115      -52.9586  -24.1659   18.1865 H         1 UNK         0.0814 
    116 H116      -50.5174  -24.5478   15.3664 H         1 UNK         0.3091 
    117 H117      -48.5589  -26.1511   17.8404 H         1 UNK         0.0702 
    118 H118      -47.9783  -27.7342   16.0122 H         1 UNK         0.0785 
    119 H119      -49.4628  -27.3201   15.1569 H         1 UNK         0.0785 
    120 H120      -49.5388  -28.1345   16.7127 H         1 UNK         0.0785 
    121 H121      -48.0051  -25.2995   15.1471 H         1 UNK         0.2998 
    122 H122      -46.6365  -22.1284   16.2468 H         1 UNK         0.0697 
    123 H123      -45.5279  -24.7142   15.0310 H         1 UNK         0.0825 
    124 H124      -44.9832  -23.9824   16.5347 H         1 UNK         0.0825 
    125 H125      -44.7470  -23.1355   15.0142 H         1 UNK         0.0825 
    126 H126      -46.9259  -23.2140   13.6254 H         1 UNK         0.3029 
    127 H127      -49.9831  -21.5064   12.8337 H         1 UNK         0.0897 
    128 H128      -48.5185  -20.7603   10.9560 H         1 UNK         0.0792 
    129 H129      -48.1395  -19.8887   12.4340 H         1 UNK         0.0792 
    130 H130      -47.0836  -21.1825   11.8885 H         1 UNK         0.0792 
    131 H131      -48.4494  -23.2471   11.2303 H         1 UNK         0.3086 
    132 H132      -49.9878  -26.3212   12.2631 H         1 UNK         0.0583 
    133 H133      -51.4224  -24.9887   10.5892 H         1 UNK         0.1020 
    134 H134      -49.9926  -24.7273    9.6418 H         1 UNK         0.1020 
    135 H135      -52.6625  -27.2168   10.9135 H         1 UNK         0.0694 
    136 H136      -53.0080  -26.4813    9.3642 H         1 UNK         0.0694 
    137 H137      -47.8406  -25.6709   10.4564 H         1 UNK         0.2989 
    138 H138      -45.2035  -26.0102   12.8358 H         1 UNK         0.1055 
    139 H139      -45.7307  -28.3750   12.2107 H         1 UNK         0.0806 
    140 H140      -44.3835  -27.7320   11.2833 H         1 UNK         0.0806 
    141 H141      -45.9734  -27.8741   10.5438 H         1 UNK         0.0806 
    142 H142      -45.3282  -25.5635    9.9702 H         1 UNK         0.3061 
    143 H143      -45.4955  -22.0147   10.2056 H         1 UNK         0.0734 
    144 H144      -43.0816  -22.4510   10.6964 H         1 UNK         0.0832 
    145 H145      -43.0640  -23.7527    9.5151 H         1 UNK         0.0832 
    146 H146      -43.3317  -22.0867    8.9980 H         1 UNK         0.0832 
    147 H147      -45.0383  -23.6640    7.9620 H         1 UNK         0.3156 
    148 H148      -48.3013  -23.5757    6.8721 H         1 UNK         0.0589 
    149 H149      -45.4665  -24.5101    6.1563 H         1 UNK         0.0808 
    150 H150      -46.7766  -24.1471    5.0438 H         1 UNK         0.0808 
    151 H151      -46.0612  -22.8576    5.9892 H         1 UNK         0.0808 
    152 H152      -48.7433  -25.7171    6.7389 H         1 UNK         0.3098 
    153 H153      -47.0910  -28.4707    6.4765 H         1 UNK         0.0720 
    154 H154      -46.5085  -29.1474    8.7283 H         1 UNK         0.0791 
    155 H155      -48.0329  -29.9121    8.3342 H         1 UNK         0.0791 
    156 H156      -48.0107  -28.5051    9.3944 H         1 UNK         0.0791 
    157 H157      -49.7533  -27.7855    7.6190 H         1 UNK         0.3028 
@<TRIPOS>BOND
     1    1    2 1    
     2    1   82 1    
     3    1   83 1    
     4    1   84 1    
     5    2    3 2    
     6    2    4 am   BACKBONE|DICT|INTERRES
     7    4    5 1    
     8    4   85 1    
     9    5    6 1    
    10    5   80 1    
    11    5   86 1    
    12    6    7 1    
    13    6   87 1    
    14    6   88 1    
    15    7    8 1    
    16    8    9 1    
    17    8   89 1    
    18    8   90 1    
    19    9   10 ar   
    20    9   14 ar   
    21   10   11 ar   
    22   10   91 1    
    23   11   12 ar   
    24   11   58 1    
    25   12   13 ar   
    26   12   92 1    
    27   13   14 ar   
    28   13   15 1    
    29   14   93 1    
    30   15   16 1    
    31   15   94 1    
    32   15   95 1    
    33   16   17 1    
    34   17   18 1    
    35   17   96 1    
    36   17   97 1    
    37   18   19 1    
    38   18   22 1    
    39   18   98 1    
    40   19   20 am   BACKBONE|DICT|INTERRES
    41   19   21 2    
    42   20   99 1    
    43   20  100 1    
    44   22   23 am   BACKBONE|DICT|INTERRES
    45   22  101 1    
    46   23   24 2    
    47   23   25 1    
    48   25   26 1    
    49   25   27 1    
    50   25  102 1    
    51   26  103 1    
    52   26  104 1    
    53   26  105 1    
    54   27   28 am   BACKBONE|DICT|INTERRES
    55   27  106 1    
    56   28   29 2    
    57   28   30 1    
    58   30   31 1    
    59   30   32 1    
    60   30  107 1    
    61   31  108 1    
    62   31  109 1    
    63   31  110 1    
    64   32   33 am   BACKBONE|DICT|INTERRES
    65   32  111 1    
    66   33   34 2    
    67   33   35 1    
    68   35   36 1    
    69   35   37 1    
    70   35  112 1    
    71   36  113 1    
    72   36  114 1    
    73   36  115 1    
    74   37   38 am   BACKBONE|DICT|INTERRES
    75   37  116 1    
    76   38   39 2    
    77   38   40 1    
    78   40   41 1    
    79   40   42 1    
    80   40  117 1    
    81   41  118 1    
    82   41  119 1    
    83   41  120 1    
    84   42   43 am   BACKBONE|DICT|INTERRES
    85   42  121 1    
    86   43   44 2    
    87   43   45 1    
    88   45   46 1    
    89   45   47 1    
    90   45  122 1    
    91   46  123 1    
    92   46  124 1    
    93   46  125 1    
    94   47   48 am   BACKBONE|DICT|INTERRES
    95   47  126 1    
    96   48   49 2    
    97   48   50 1    
    98   50   51 1    
    99   50   52 1    
   100   50  127 1    
   101   51  128 1    
   102   51  129 1    
   103   51  130 1    
   104   52   53 am   BACKBONE|DICT|INTERRES
   105   52  131 1    
   106   53   54 2    
   107   53   55 1    
   108   55   56 1    
   109   55   59 1    
   110   55  132 1    
   111   56   57 1    
   112   56  133 1    
   113   56  134 1    
   114   57   58 1    
   115   58  135 1    
   116   58  136 1    
   117   59   60 am   BACKBONE|DICT|INTERRES
   118   59  137 1    
   119   60   61 2    
   120   60   62 1    
   121   62   63 1    
   122   62   64 1    
   123   62  138 1    
   124   63  139 1    
   125   63  140 1    
   126   63  141 1    
   127   64   65 am   BACKBONE|DICT|INTERRES
   128   64  142 1    
   129   65   66 2    
   130   65   67 1    
   131   67   68 1    
   132   67   69 1    
   133   67  143 1    
   134   68  144 1    
   135   68  145 1    
   136   68  146 1    
   137   69   70 am   BACKBONE|DICT|INTERRES
   138   69  147 1    
   139   70   71 2    
   140   70   72 1    
   141   72   73 1    
   142   72   74 1    
   143   72  148 1    
   144   73  149 1    
   145   73  150 1    
   146   73  151 1    
   147   74   75 am   BACKBONE|DICT|INTERRES
   148   74  152 1    
   149   75   76 2    
   150   75   77 1    
   151   77   78 1    
   152   77   79 1    
   153   77  153 1    
   154   78  154 1    
   155   78  155 1    
   156   78  156 1    
   157   79   80 am   BACKBONE|DICT|INTERRES
   158   79  157 1    
   159   80   81 2    
@<TRIPOS>SUBSTRUCTURE
     1 UNK         1 GROUP             0       ****    0 ROOT    
