@<TRIPOS>MOLECULE
3R207
157   159    1
SMALL
USER_CHARGES


@<TRIPOS>ATOM
      1 CA        -47.0214  -27.2565    3.1737 C.3       0 UNK        -0.1975 
      2 C         -47.8803  -26.7982    4.3414 C.2       0 UNK         0.4852 
      3 O         -47.3447  -26.3002    5.3305 O.2       0 UNK        -0.5216 
      4 N         -49.2090  -26.9317    4.2240 N.am      1 UNK        -0.4461 
      5 CA        -50.2211  -26.6241    5.2485 C.3       1 UNK         0.0864 
      6 C6        -50.2768  -27.7009    6.3721 C.3       14 UNK        -0.0898 
      7 S7        -52.0006  -28.0649    6.8505 S.3       14 UNK        -0.2598 
      8 C8        -51.9260  -29.8355    7.2661 C.3       14 UNK         0.0286 
      9 C9        -51.5188  -30.0621    8.7149 C.ar      14 UNK        -0.0844 
     10 C10       -50.2227  -30.4750    9.0411 C.ar      14 UNK        -0.0881 
     11 C11       -49.8744  -30.7332   10.3723 C.ar      14 UNK        -0.0643 
     12 C12       -50.8304  -30.5684   11.3784 C.ar      14 UNK        -0.0930 
     13 C13       -52.1205  -30.1332   11.0655 C.ar      14 UNK        -0.0827 
     14 C14       -52.4593  -29.8840    9.7333 C.ar      14 UNK        -0.1249 
     15 C15       -53.1381  -29.8955   12.1679 C.3       14 UNK         0.0141 
     16 S16       -54.4705  -31.1317   12.1410 S.3       14 UNK        -0.2313 
     17 C17       -55.4295  -30.6397   13.6125 C.3       14 UNK        -0.0915 
     18 CA        -56.5941  -29.6677   13.2824 C.3       13 UNK         0.0968 
     19 C         -57.5870  -29.5430   14.4759 C.2       13 UNK         0.5732 
     20 N         -57.8600  -28.3605   15.0160 N.am      13 UNK        -0.7310 
     21 O         -58.1402  -30.5482   14.9163 O.2       13 UNK        -0.5035 
     22 N         -56.0933  -28.3741   12.7956 N.am      13 UNK        -0.4233 
     23 C         -56.7370  -27.5803   11.9314 C.2       13 UNK         0.4989 
     24 O         -57.7892  -27.8973   11.3729 O.2       13 UNK        -0.4996 
     25 CA        -56.1037  -26.2008   11.6404 C.3       12 UNK         0.0216 
     26 CB        -57.1366  -25.1717   11.1345 C.3       12 UNK        -0.1964 
     27 N         -55.3389  -25.6382   12.7616 N.am      12 UNK        -0.4276 
     28 C         -55.7687  -25.4146   14.0116 C.2       12 UNK         0.5020 
     29 O         -56.9047  -25.6736   14.4152 O.2       12 UNK        -0.5489 
     30 CA        -54.7254  -24.8440   14.9876 C.3       11 UNK         0.0294 
     31 CB        -55.3478  -23.7731   15.9007 C.3       11 UNK        -0.2019 
     32 N         -54.0545  -25.8449   15.8271 N.am      11 UNK        -0.4493 
     33 C         -53.6274  -27.0740   15.4981 C.2       11 UNK         0.4932 
     34 O         -53.8325  -27.6343   14.4214 O.2       11 UNK        -0.5029 
     35 CA        -52.7377  -27.7483   16.5494 C.3       10 UNK         0.0280 
     36 CB        -52.5367  -29.2541   16.3035 C.3       10 UNK        -0.1976 
     37 N         -51.4450  -27.0745   16.4899 N.am      10 UNK        -0.4242 
     38 C         -51.0206  -26.1576   17.3680 C.2       10 UNK         0.5072 
     39 O         -51.6028  -25.8897   18.4200 O.2       10 UNK        -0.5224 
     40 CA        -49.7627  -25.3653   16.9790 C.3       9 UNK         0.0343 
     41 CB        -48.4999  -26.2295   17.1257 C.3       9 UNK        -0.2003 
     42 N         -49.8361  -24.8229   15.6194 N.am      9 UNK        -0.4272 
     43 C         -50.7304  -23.9158   15.1941 C.2       9 UNK         0.4988 
     44 O         -51.5931  -23.4106   15.9122 O.2       9 UNK        -0.5108 
     45 CA        -50.6528  -23.4997   13.7178 C.3       8 UNK         0.0248 
     46 CB        -49.5406  -22.4605   13.4995 C.3       8 UNK        -0.2001 
     47 N         -50.4195  -24.6584   12.8578 N.am      8 UNK        -0.4140 
     48 C         -51.3870  -25.4076   12.3113 C.2       8 UNK         0.5028 
     49 O         -52.5871  -25.1376   12.3763 O.2       8 UNK        -0.5428 
     50 CA        -50.9551  -26.6760   11.5598 C.3       7 UNK         0.0264 
     51 CB        -50.9708  -26.4401   10.0444 C.3       7 UNK        -0.1988 
     52 N         -49.6360  -27.1737   11.9521 N.am      7 UNK        -0.4454 
     53 C         -49.3695  -27.7723   13.1220 C.2       7 UNK         0.5027 
     54 O         -50.2073  -27.9507   14.0066 O.2       7 UNK        -0.5083 
     55 CA        -47.9057  -28.1839   13.3846 C.3       6 UNK         0.0844 
     56 C56       -47.6166  -29.6405   12.9400 C.3       14 UNK        -0.0967 
     57 S57       -47.3588  -29.8418   11.1392 S.3       14 UNK        -0.2604 
     58 C58       -48.4741  -31.2170   10.7179 C.3       14 UNK         0.0134 
     59 N         -46.9310  -27.2317   12.8433 N.am      6 UNK        -0.4116 
     60 C         -46.8666  -25.9270   13.1398 C.2       5 UNK         0.5034 
     61 O         -47.6127  -25.3716   13.9456 O.2       5 UNK        -0.5045 
     62 CA        -45.8286  -25.0869   12.3793 C.3       5 UNK         0.0224 
     63 CB        -44.5376  -24.9597   13.2029 C.3       5 UNK        -0.1978 
     64 N         -45.5070  -25.5973   11.0407 N.am      5 UNK        -0.4737 
     65 C         -46.3770  -25.6819   10.0249 C.2       4 UNK         0.5027 
     66 O         -47.5747  -25.4103   10.1238 O.2       4 UNK        -0.5211 
     67 CA        -45.8139  -26.1791    8.6837 C.3       4 UNK         0.0297 
     68 CB        -46.3963  -27.5529    8.3172 C.3       4 UNK        -0.1993 
     69 N         -46.0810  -25.2403    7.5947 N.am      4 UNK        -0.4486 
     70 C         -45.5584  -24.0107    7.4931 C.2       3 UNK         0.4961 
     71 O         -44.8057  -23.5146    8.3325 O.2       3 UNK        -0.5105 
     72 CA        -45.8933  -23.2048    6.2299 C.3       3 UNK         0.0299 
     73 CB        -44.9358  -23.5897    5.0892 C.3       3 UNK        -0.1972 
     74 N         -47.2729  -23.4085    5.7814 N.am      3 UNK        -0.4305 
     75 C         -48.2536  -22.5014    5.8972 C.2       2 UNK         0.5006 
     76 O         -48.1160  -21.4182    6.4680 O.2       2 UNK        -0.5106 
     77 CA        -49.6103  -22.8121    5.2337 C.3       2 UNK         0.0296 
     78 CB        -49.7781  -21.9789    3.9515 C.3       2 UNK        -0.2002 
     79 N         -49.7975  -24.2262    4.9026 N.am      2 UNK        -0.4032 
     80 C         -50.1511  -25.1707    5.7854 C.2       1 UNK         0.5000 
     81 O         -50.4016  -24.9236    6.9658 O.2       1 UNK        -0.5238 
     82 H82       -46.3284  -28.0303    3.5026 H         1 UNK         0.0889 
     83 H83       -46.4395  -26.4207    2.7862 H         1 UNK         0.0889 
     84 H84       -47.6212  -27.6612    2.3588 H         1 UNK         0.0889 
     85 H85       -49.5796  -27.3247    3.3692 H         1 UNK         0.3028 
     86 H86       -51.1617  -26.6643    4.6965 H         1 UNK         0.0864 
     87 H87       -49.8227  -28.6283    6.0209 H         1 UNK         0.0720 
     88 H88       -49.6991  -27.4127    7.2518 H         1 UNK         0.0720 
     89 H89       -51.2577  -30.3611    6.5827 H         1 UNK         0.0814 
     90 H90       -52.9144  -30.2685    7.1054 H         1 UNK         0.0814 
     91 H91       -49.4882  -30.6085    8.2587 H         1 UNK         0.1469 
     92 H92       -50.5674  -30.7659   12.4079 H         1 UNK         0.1381 
     93 H93       -53.4592  -29.5520    9.4889 H         1 UNK         0.1206 
     94 H94       -52.6530  -29.9030   13.1438 H         1 UNK         0.0813 
     95 H95       -53.5628  -28.9003   12.0422 H         1 UNK         0.0813 
     96 H96       -54.7645  -30.2068   14.3599 H         1 UNK         0.0638 
     97 H97       -55.8128  -31.5623   14.0519 H         1 UNK         0.0638 
     98 H98       -57.1742  -30.1285   12.4808 H         1 UNK         0.0568 
     99 H99       -57.4396  -27.5031   14.6680 H         1 UNK         0.3450 
    100 H100      -58.5129  -28.3152   15.7813 H         1 UNK         0.3450 
    101 H101      -55.2571  -28.0255   13.2592 H         1 UNK         0.2987 
    102 H102      -55.3816  -26.3677   10.8398 H         1 UNK         0.0766 
    103 H103      -57.9200  -24.9929   11.8719 H         1 UNK         0.0798 
    104 H104      -57.6213  -25.5158   10.2200 H         1 UNK         0.0798 
    105 H105      -56.6651  -24.2155   10.9075 H         1 UNK         0.0798 
    106 H106      -54.3511  -25.4536   12.5717 H         1 UNK         0.3198 
    107 H107      -53.9487  -24.3498   14.4032 H         1 UNK         0.0843 
    108 H108      -56.0764  -24.2036   16.5889 H         1 UNK         0.0831 
    109 H109      -55.8638  -23.0116   15.3142 H         1 UNK         0.0831 
    110 H110      -54.5859  -23.2631   16.4908 H         1 UNK         0.0831 
    111 H111      -53.7824  -25.5113   16.7412 H         1 UNK         0.3133 
    112 H112      -53.2075  -27.6265   17.5276 H         1 UNK         0.0566 
    113 H113      -53.4904  -29.7817   16.3187 H         1 UNK         0.0814 
    114 H114      -52.0625  -29.4503   15.3424 H         1 UNK         0.0814 
    115 H115      -51.9095  -29.6972   17.0769 H         1 UNK         0.0814 
    116 H116      -50.9213  -27.2200   15.6290 H         1 UNK         0.3091 
    117 H117      -49.6762  -24.5199   17.6647 H         1 UNK         0.0702 
    118 H118      -47.5994  -25.6572   16.9017 H         1 UNK         0.0785 
    119 H119      -48.5213  -27.0925   16.4604 H         1 UNK         0.0785 
    120 H120      -48.4012  -26.6053   18.1449 H         1 UNK         0.0785 
    121 H121      -49.1114  -25.1278   14.9738 H         1 UNK         0.2998 
    122 H122      -51.6033  -23.0330   13.4496 H         1 UNK         0.0697 
    123 H123      -48.5568  -22.8505   13.7622 H         1 UNK         0.0825 
    124 H124      -49.7126  -21.5742   14.1116 H         1 UNK         0.0825 
    125 H125      -49.5037  -22.1339   12.4602 H         1 UNK         0.0825 
    126 H126      -49.4614  -24.9683   12.7625 H         1 UNK         0.3029 
    127 H127      -51.6889  -27.4469   11.7940 H         1 UNK         0.0897 
    128 H128      -50.2786  -25.6515    9.7468 H         1 UNK         0.0792 
    129 H129      -51.9646  -26.1498    9.7012 H         1 UNK         0.0792 
    130 H130      -50.6955  -27.3459    9.5057 H         1 UNK         0.0792 
    131 H131      -48.8825  -27.0290   11.2917 H         1 UNK         0.3086 
    132 H132      -47.7789  -28.1570   14.4683 H         1 UNK         0.0583 
    133 H133      -46.7063  -29.9858   13.4326 H         1 UNK         0.1020 
    134 H134      -48.3993  -30.3136   13.2937 H         1 UNK         0.1020 
    135 H135      -48.0518  -31.7519    9.8658 H         1 UNK         0.0694 
    136 H136      -48.5079  -31.9394   11.5347 H         1 UNK         0.0694 
    137 H137      -46.2961  -27.5968   12.1485 H         1 UNK         0.2989 
    138 H138      -46.2564  -24.0892   12.2565 H         1 UNK         0.1055 
    139 H139      -44.7467  -24.5603   14.1966 H         1 UNK         0.0806 
    140 H140      -43.8283  -24.2818   12.7277 H         1 UNK         0.0806 
    141 H141      -44.0452  -25.9238   13.3366 H         1 UNK         0.0806 
    142 H142      -44.5402  -25.8365   10.8697 H         1 UNK         0.3061 
    143 H143      -44.7299  -26.2833    8.7660 H         1 UNK         0.0734 
    144 H144      -46.0440  -27.8898    7.3422 H         1 UNK         0.0832 
    145 H145      -46.0935  -28.3058    9.0436 H         1 UNK         0.0832 
    146 H146      -47.4866  -27.5372    8.2916 H         1 UNK         0.0832 
    147 H147      -46.6626  -25.5894    6.8349 H         1 UNK         0.3156 
    148 H148      -45.7223  -22.1511    6.4604 H         1 UNK         0.0589 
    149 H149      -45.0468  -24.6361    4.8016 H         1 UNK         0.0808 
    150 H150      -45.1104  -22.9788    4.2034 H         1 UNK         0.0808 
    151 H151      -43.8963  -23.4409    5.3849 H         1 UNK         0.0808 
    152 H152      -47.4820  -24.3125    5.3720 H         1 UNK         0.3098 
    153 H153      -50.3910  -22.5107    5.9357 H         1 UNK         0.0720 
    154 H154      -50.7604  -22.1319    3.5039 H         1 UNK         0.0791 
    155 H155      -49.0242  -22.2299    3.2042 H         1 UNK         0.0791 
    156 H156      -49.6841  -20.9127    4.1628 H         1 UNK         0.0791 
    157 H157      -49.6095  -24.5038    3.9499 H         1 UNK         0.3028 
@<TRIPOS>BOND
     1    1    2 1    
     2    1   82 1    
     3    1   83 1    
     4    1   84 1    
     5    2    3 2    
     6    2    4 am   BACKBONE|DICT|INTERRES
     7    4    5 1    
     8    4   85 1    
     9    5    6 1    
    10    5   80 1    
    11    5   86 1    
    12    6    7 1    
    13    6   87 1    
    14    6   88 1    
    15    7    8 1    
    16    8    9 1    
    17    8   89 1    
    18    8   90 1    
    19    9   10 ar   
    20    9   14 ar   
    21   10   11 ar   
    22   10   91 1    
    23   11   12 ar   
    24   11   58 1    
    25   12   13 ar   
    26   12   92 1    
    27   13   14 ar   
    28   13   15 1    
    29   14   93 1    
    30   15   16 1    
    31   15   94 1    
    32   15   95 1    
    33   16   17 1    
    34   17   18 1    
    35   17   96 1    
    36   17   97 1    
    37   18   19 1    
    38   18   22 1    
    39   18   98 1    
    40   19   20 am   BACKBONE|DICT|INTERRES
    41   19   21 2    
    42   20   99 1    
    43   20  100 1    
    44   22   23 am   BACKBONE|DICT|INTERRES
    45   22  101 1    
    46   23   24 2    
    47   23   25 1    
    48   25   26 1    
    49   25   27 1    
    50   25  102 1    
    51   26  103 1    
    52   26  104 1    
    53   26  105 1    
    54   27   28 am   BACKBONE|DICT|INTERRES
    55   27  106 1    
    56   28   29 2    
    57   28   30 1    
    58   30   31 1    
    59   30   32 1    
    60   30  107 1    
    61   31  108 1    
    62   31  109 1    
    63   31  110 1    
    64   32   33 am   BACKBONE|DICT|INTERRES
    65   32  111 1    
    66   33   34 2    
    67   33   35 1    
    68   35   36 1    
    69   35   37 1    
    70   35  112 1    
    71   36  113 1    
    72   36  114 1    
    73   36  115 1    
    74   37   38 am   BACKBONE|DICT|INTERRES
    75   37  116 1    
    76   38   39 2    
    77   38   40 1    
    78   40   41 1    
    79   40   42 1    
    80   40  117 1    
    81   41  118 1    
    82   41  119 1    
    83   41  120 1    
    84   42   43 am   BACKBONE|DICT|INTERRES
    85   42  121 1    
    86   43   44 2    
    87   43   45 1    
    88   45   46 1    
    89   45   47 1    
    90   45  122 1    
    91   46  123 1    
    92   46  124 1    
    93   46  125 1    
    94   47   48 am   BACKBONE|DICT|INTERRES
    95   47  126 1    
    96   48   49 2    
    97   48   50 1    
    98   50   51 1    
    99   50   52 1    
   100   50  127 1    
   101   51  128 1    
   102   51  129 1    
   103   51  130 1    
   104   52   53 am   BACKBONE|DICT|INTERRES
   105   52  131 1    
   106   53   54 2    
   107   53   55 1    
   108   55   56 1    
   109   55   59 1    
   110   55  132 1    
   111   56   57 1    
   112   56  133 1    
   113   56  134 1    
   114   57   58 1    
   115   58  135 1    
   116   58  136 1    
   117   59   60 am   BACKBONE|DICT|INTERRES
   118   59  137 1    
   119   60   61 2    
   120   60   62 1    
   121   62   63 1    
   122   62   64 1    
   123   62  138 1    
   124   63  139 1    
   125   63  140 1    
   126   63  141 1    
   127   64   65 am   BACKBONE|DICT|INTERRES
   128   64  142 1    
   129   65   66 2    
   130   65   67 1    
   131   67   68 1    
   132   67   69 1    
   133   67  143 1    
   134   68  144 1    
   135   68  145 1    
   136   68  146 1    
   137   69   70 am   BACKBONE|DICT|INTERRES
   138   69  147 1    
   139   70   71 2    
   140   70   72 1    
   141   72   73 1    
   142   72   74 1    
   143   72  148 1    
   144   73  149 1    
   145   73  150 1    
   146   73  151 1    
   147   74   75 am   BACKBONE|DICT|INTERRES
   148   74  152 1    
   149   75   76 2    
   150   75   77 1    
   151   77   78 1    
   152   77   79 1    
   153   77  153 1    
   154   78  154 1    
   155   78  155 1    
   156   78  156 1    
   157   79   80 am   BACKBONE|DICT|INTERRES
   158   79  157 1    
   159   80   81 2    
@<TRIPOS>SUBSTRUCTURE
     1 UNK         1 GROUP             0       ****    0 ROOT    
