@<TRIPOS>MOLECULE
3R207
157   159    1
SMALL
USER_CHARGES


@<TRIPOS>ATOM
      1 CA        -46.1249  -30.8217    2.7860 C.3       0 UNK        -0.1975 
      2 C         -46.9206  -30.2765    3.9625 C.2       0 UNK         0.4852 
      3 O         -47.3871  -31.0547    4.7964 O.2       0 UNK        -0.5216 
      4 N         -47.0760  -28.9461    4.0372 N.am      1 UNK        -0.4461 
      5 CA        -47.7816  -28.1889    5.0815 C.3       1 UNK         0.0864 
      6 C6        -49.2667  -28.6254    5.2608 C.3       14 UNK        -0.0898 
      7 S7        -50.4101  -27.2325    5.5388 S.3       14 UNK        -0.2598 
      8 C8        -51.1087  -27.6459    7.1755 C.3       14 UNK         0.0286 
      9 C9        -52.4056  -26.9091    7.5224 C.ar      14 UNK        -0.0844 
     10 C10       -52.7126  -25.6384    7.0140 C.ar      14 UNK        -0.0881 
     11 C11       -53.8945  -24.9816    7.3814 C.ar      14 UNK        -0.0643 
     12 C12       -54.7810  -25.6160    8.2566 C.ar      14 UNK        -0.0930 
     13 C13       -54.5012  -26.8898    8.7591 C.ar      14 UNK        -0.0827 
     14 C14       -53.3110  -27.5243    8.3935 C.ar      14 UNK        -0.1249 
     15 C15       -55.5047  -27.5877    9.6686 C.3       14 UNK         0.0141 
     16 S16       -55.0860  -27.3873   11.4281 S.3       14 UNK        -0.2313 
     17 C17       -53.9936  -28.8191   11.7335 C.3       14 UNK        -0.0915 
     18 CA        -54.5231  -29.7569   12.8501 C.3       13 UNK         0.0968 
     19 C         -53.6524  -31.0423   12.9806 C.2       13 UNK         0.5732 
     20 N         -53.1337  -31.3967   14.1517 N.am      13 UNK        -0.7310 
     21 O         -53.4544  -31.7485   11.9948 O.2       13 UNK        -0.5035 
     22 N         -54.7127  -29.0437   14.1233 N.am      13 UNK        -0.4233 
     23 C         -55.6517  -29.3583   15.0251 C.2       13 UNK         0.4989 
     24 O         -56.5037  -30.2305   14.8428 O.2       13 UNK        -0.4996 
     25 CA        -55.6407  -28.5721   16.3523 C.3       12 UNK         0.0216 
     26 CB        -56.4152  -29.2903   17.4782 C.3       12 UNK        -0.1964 
     27 N         -54.2981  -28.2005   16.8158 N.am      12 UNK        -0.4276 
     28 C         -53.2643  -29.0188   17.0757 C.2       12 UNK         0.5020 
     29 O         -53.3112  -30.2401   16.9189 O.2       12 UNK        -0.5489 
     30 CA        -51.9506  -28.3729   17.5619 C.3       11 UNK         0.0294 
     31 CB        -50.7219  -29.0396   16.9155 C.3       11 UNK        -0.2019 
     32 N         -51.9203  -26.9420   17.2573 N.am      11 UNK        -0.4493 
     33 C         -52.1083  -25.9462   18.1345 C.2       11 UNK         0.4932 
     34 O         -52.2311  -26.1164   19.3473 O.2       11 UNK        -0.5029 
     35 CA        -52.2115  -24.5168   17.5634 C.3       10 UNK         0.0280 
     36 CB        -50.8775  -23.7743   17.7363 C.3       10 UNK        -0.1976 
     37 N         -52.6122  -24.4811   16.1514 N.am      10 UNK        -0.4242 
     38 C         -53.8134  -24.8766   15.6954 C.2       10 UNK         0.5072 
     39 O         -54.7344  -25.2249   16.4343 O.2       10 UNK        -0.5224 
     40 CA        -54.0043  -24.9928   14.1704 C.3       9 UNK         0.0343 
     41 CB        -54.6825  -23.7341   13.6113 C.3       9 UNK        -0.2003 
     42 N         -52.7566  -25.2435   13.4436 N.am      9 UNK        -0.4272 
     43 C         -51.9607  -26.3076   13.6389 C.2       9 UNK         0.4988 
     44 O         -52.2837  -27.2583   14.3522 O.2       9 UNK        -0.5108 
     45 CA        -50.5577  -26.3040   12.9979 C.3       8 UNK         0.0248 
     46 CB        -50.5013  -27.3004   11.8307 C.3       8 UNK        -0.2001 
     47 N         -50.1079  -24.9909   12.5270 N.am      8 UNK        -0.4140 
     48 C         -49.9820  -23.8827   13.2770 C.2       8 UNK         0.5028 
     49 O         -50.1615  -23.8630   14.4956 O.2       8 UNK        -0.5428 
     50 CA        -49.7115  -22.5540   12.5412 C.3       7 UNK         0.0264 
     51 CB        -48.2246  -22.1836   12.6232 C.3       7 UNK        -0.1988 
     52 N         -50.1377  -22.5789   11.1370 N.am      7 UNK        -0.4454 
     53 C         -51.4061  -22.7714   10.7363 C.2       7 UNK         0.5027 
     54 O         -52.3601  -22.7690   11.5149 O.2       7 UNK        -0.5083 
     55 CA        -51.6628  -23.1092    9.2524 C.3       6 UNK         0.0844 
     56 C56       -52.6021  -22.0812    8.5748 C.3       14 UNK        -0.0967 
     57 S57       -52.8659  -22.4176    6.7965 S.3       14 UNK        -0.2604 
     58 C58       -54.2511  -23.6067    6.8163 C.3       14 UNK         0.0134 
     59 N         -50.4472  -23.3641    8.4724 N.am      6 UNK        -0.4116 
     60 C         -49.6401  -24.4190    8.6322 C.2       5 UNK         0.5034 
     61 O         -49.7667  -25.2334    9.5453 O.2       5 UNK        -0.5045 
     62 CA        -48.4971  -24.5983    7.6181 C.3       5 UNK         0.0224 
     63 CB        -48.4446  -23.5259    6.5062 C.3       5 UNK        -0.1978 
     64 N         -47.1968  -24.7205    8.2785 N.am      5 UNK        -0.4737 
     65 C         -46.6380  -23.8479    9.1282 C.2       4 UNK         0.5027 
     66 O         -47.1572  -22.7785    9.4566 O.2       4 UNK        -0.5211 
     67 CA        -45.2595  -24.2497    9.6855 C.3       4 UNK         0.0297 
     68 CB        -44.7079  -23.2558   10.7306 C.3       4 UNK        -0.1993 
     69 N         -45.2305  -25.6251   10.2007 N.am      4 UNK        -0.4486 
     70 C         -45.9525  -26.1374   11.2111 C.2       3 UNK         0.4961 
     71 O         -46.7746  -25.5020   11.8711 O.2       3 UNK        -0.5105 
     72 CA        -45.6630  -27.6144   11.5496 C.3       3 UNK         0.0299 
     73 CB        -46.6385  -28.2180   12.5834 C.3       3 UNK        -0.1972 
     74 N         -45.5554  -28.4614   10.3539 N.am      3 UNK        -0.4305 
     75 C         -46.5148  -28.7195    9.4520 C.2       2 UNK         0.5006 
     76 O         -47.6822  -28.3356    9.5388 O.2       2 UNK        -0.5106 
     77 CA        -46.0801  -29.5915    8.2601 C.3       2 UNK         0.0296 
     78 CB        -46.1960  -31.0825    8.6184 C.3       2 UNK        -0.2002 
     79 N         -46.8449  -29.3427    7.0358 N.am      2 UNK        -0.4032 
     80 C         -46.9751  -28.1707    6.3991 C.2       1 UNK         0.5000 
     81 O         -46.4405  -27.1238    6.7722 O.2       1 UNK        -0.5238 
     82 H82       -45.7755  -30.0280    2.1259 H         1 UNK         0.0889 
     83 H83       -46.7418  -31.5027    2.2004 H         1 UNK         0.0889 
     84 H84       -45.2556  -31.3722    3.1448 H         1 UNK         0.0889 
     85 H85       -46.6421  -28.3720    3.3268 H         1 UNK         0.3028 
     86 H86       -47.7793  -27.1618    4.7121 H         1 UNK         0.0864 
     87 H87       -49.6213  -29.1101    4.3497 H         1 UNK         0.0720 
     88 H88       -49.3801  -29.3799    6.0407 H         1 UNK         0.0720 
     89 H89       -51.2973  -28.7201    7.2044 H         1 UNK         0.0814 
     90 H90       -50.3637  -27.4430    7.9465 H         1 UNK         0.0814 
     91 H91       -52.0282  -25.1460    6.3384 H         1 UNK         0.1469 
     92 H92       -55.7021  -25.1236    8.5371 H         1 UNK         0.1381 
     93 H93       -53.0899  -28.5069    8.7857 H         1 UNK         0.1206 
     94 H94       -55.5802  -28.6453    9.4124 H         1 UNK         0.0813 
     95 H95       -56.5009  -27.1737    9.5059 H         1 UNK         0.0813 
     96 H96       -53.8656  -29.3757   10.8047 H         1 UNK         0.0638 
     97 H97       -53.0069  -28.4471   11.9943 H         1 UNK         0.0638 
     98 H98       -55.4988  -30.1121   12.5134 H         1 UNK         0.0568 
     99 H99       -53.3021  -30.8573   14.9940 H         1 UNK         0.3450 
    100 H100      -52.5813  -32.2369   14.2038 H         1 UNK         0.3450 
    101 H101      -54.0071  -28.3504   14.3479 H         1 UNK         0.2987 
    102 H102      -56.1587  -27.6347   16.1445 H         1 UNK         0.0766 
    103 H103      -56.4181  -28.7016   18.3955 H         1 UNK         0.0798 
    104 H104      -57.4567  -29.4533   17.1981 H         1 UNK         0.0798 
    105 H105      -55.9828  -30.2652   17.7064 H         1 UNK         0.0798 
    106 H106      -54.1583  -27.2046   16.9446 H         1 UNK         0.3198 
    107 H107      -51.8971  -28.5321   18.6408 H         1 UNK         0.0843 
    108 H108      -50.7561  -28.9803   15.8269 H         1 UNK         0.0831 
    109 H109      -50.6625  -30.0957   17.1817 H         1 UNK         0.0831 
    110 H110      -49.7954  -28.5717   17.2484 H         1 UNK         0.0831 
    111 H111      -51.8691  -26.7207   16.2684 H         1 UNK         0.3133 
    112 H112      -52.9728  -23.9866   18.1393 H         1 UNK         0.0566 
    113 H113      -50.0678  -24.2699   17.1990 H         1 UNK         0.0814 
    114 H114      -50.5899  -23.7279   18.7876 H         1 UNK         0.0814 
    115 H115      -50.9421  -22.7488   17.3721 H         1 UNK         0.0814 
    116 H116      -51.8880  -24.2261   15.4845 H         1 UNK         0.3091 
    117 H117      -54.6649  -25.8431   13.9922 H         1 UNK         0.0702 
    118 H118      -54.8905  -23.8383   12.5460 H         1 UNK         0.0785 
    119 H119      -54.0615  -22.8477   13.7465 H         1 UNK         0.0785 
    120 H120      -55.6342  -23.5478   14.1109 H         1 UNK         0.0785 
    121 H121      -52.4430  -24.5042   12.8255 H         1 UNK         0.2998 
    122 H122      -49.8495  -26.6296   13.7620 H         1 UNK         0.0697 
    123 H123      -51.2537  -27.0760   11.0728 H         1 UNK         0.0825 
    124 H124      -50.6668  -28.3211   12.1770 H         1 UNK         0.0825 
    125 H125      -49.5305  -27.2808   11.3364 H         1 UNK         0.0825 
    126 H126      -49.9179  -24.9257   11.5305 H         1 UNK         0.3029 
    127 H127      -50.2873  -21.7773   13.0490 H         1 UNK         0.0897 
    128 H128      -48.0207  -21.2295   12.1370 H         1 UNK         0.0792 
    129 H129      -47.9001  -22.0985   13.6611 H         1 UNK         0.0792 
    130 H130      -47.6028  -22.9424   12.1495 H         1 UNK         0.0792 
    131 H131      -49.4004  -22.6143   10.4436 H         1 UNK         0.3086 
    132 H132      -52.2023  -24.0564    9.2884 H         1 UNK         0.0583 
    133 H133      -53.5697  -22.0555    9.0802 H         1 UNK         0.1020 
    134 H134      -52.1887  -21.0748    8.6648 H         1 UNK         0.1020 
    135 H135      -55.0812  -23.1633    7.3685 H         1 UNK         0.0694 
    136 H136      -54.6026  -23.7412    5.7927 H         1 UNK         0.0694 
    137 H137      -50.2723  -22.7302    7.7068 H         1 UNK         0.2989 
    138 H138      -48.6788  -25.5599    7.1406 H         1 UNK         0.1055 
    139 H139      -47.6487  -23.7461    5.7945 H         1 UNK         0.0806 
    140 H140      -48.2608  -22.5269    6.9035 H         1 UNK         0.0806 
    141 H141      -49.3751  -23.4981    5.9371 H         1 UNK         0.0806 
    142 H142      -46.7076  -25.5879    8.0781 H         1 UNK         0.3061 
    143 H143      -44.5790  -24.2291    8.8328 H         1 UNK         0.0734 
    144 H144      -44.6635  -22.2449   10.3236 H         1 UNK         0.0832 
    145 H145      -45.3280  -23.2175   11.6255 H         1 UNK         0.0832 
    146 H146      -43.6973  -23.5247   11.0370 H         1 UNK         0.0832 
    147 H147      -44.5989  -26.2515    9.7216 H         1 UNK         0.3156 
    148 H148      -44.6738  -27.6186   12.0098 H         1 UNK         0.0589 
    149 H149      -47.6594  -28.2556   12.2081 H         1 UNK         0.0808 
    150 H150      -46.3470  -29.2320   12.8565 H         1 UNK         0.0808 
    151 H151      -46.6528  -27.6277   13.5005 H         1 UNK         0.0808 
    152 H152      -44.6389  -28.8558   10.1895 H         1 UNK         0.3098 
    153 H153      -45.0361  -29.3664    8.0333 H         1 UNK         0.0720 
    154 H154      -45.8324  -31.7156    7.8085 H         1 UNK         0.0791 
    155 H155      -45.6075  -31.3232    9.5048 H         1 UNK         0.0791 
    156 H156      -47.2290  -31.3647    8.8268 H         1 UNK         0.0791 
    157 H157      -47.2567  -30.1521    6.5830 H         1 UNK         0.3028 
@<TRIPOS>BOND
     1    1    2 1    
     2    1   82 1    
     3    1   83 1    
     4    1   84 1    
     5    2    3 2    
     6    2    4 am   BACKBONE|DICT|INTERRES
     7    4    5 1    
     8    4   85 1    
     9    5    6 1    
    10    5   80 1    
    11    5   86 1    
    12    6    7 1    
    13    6   87 1    
    14    6   88 1    
    15    7    8 1    
    16    8    9 1    
    17    8   89 1    
    18    8   90 1    
    19    9   10 ar   
    20    9   14 ar   
    21   10   11 ar   
    22   10   91 1    
    23   11   12 ar   
    24   11   58 1    
    25   12   13 ar   
    26   12   92 1    
    27   13   14 ar   
    28   13   15 1    
    29   14   93 1    
    30   15   16 1    
    31   15   94 1    
    32   15   95 1    
    33   16   17 1    
    34   17   18 1    
    35   17   96 1    
    36   17   97 1    
    37   18   19 1    
    38   18   22 1    
    39   18   98 1    
    40   19   20 am   BACKBONE|DICT|INTERRES
    41   19   21 2    
    42   20   99 1    
    43   20  100 1    
    44   22   23 am   BACKBONE|DICT|INTERRES
    45   22  101 1    
    46   23   24 2    
    47   23   25 1    
    48   25   26 1    
    49   25   27 1    
    50   25  102 1    
    51   26  103 1    
    52   26  104 1    
    53   26  105 1    
    54   27   28 am   BACKBONE|DICT|INTERRES
    55   27  106 1    
    56   28   29 2    
    57   28   30 1    
    58   30   31 1    
    59   30   32 1    
    60   30  107 1    
    61   31  108 1    
    62   31  109 1    
    63   31  110 1    
    64   32   33 am   BACKBONE|DICT|INTERRES
    65   32  111 1    
    66   33   34 2    
    67   33   35 1    
    68   35   36 1    
    69   35   37 1    
    70   35  112 1    
    71   36  113 1    
    72   36  114 1    
    73   36  115 1    
    74   37   38 am   BACKBONE|DICT|INTERRES
    75   37  116 1    
    76   38   39 2    
    77   38   40 1    
    78   40   41 1    
    79   40   42 1    
    80   40  117 1    
    81   41  118 1    
    82   41  119 1    
    83   41  120 1    
    84   42   43 am   BACKBONE|DICT|INTERRES
    85   42  121 1    
    86   43   44 2    
    87   43   45 1    
    88   45   46 1    
    89   45   47 1    
    90   45  122 1    
    91   46  123 1    
    92   46  124 1    
    93   46  125 1    
    94   47   48 am   BACKBONE|DICT|INTERRES
    95   47  126 1    
    96   48   49 2    
    97   48   50 1    
    98   50   51 1    
    99   50   52 1    
   100   50  127 1    
   101   51  128 1    
   102   51  129 1    
   103   51  130 1    
   104   52   53 am   BACKBONE|DICT|INTERRES
   105   52  131 1    
   106   53   54 2    
   107   53   55 1    
   108   55   56 1    
   109   55   59 1    
   110   55  132 1    
   111   56   57 1    
   112   56  133 1    
   113   56  134 1    
   114   57   58 1    
   115   58  135 1    
   116   58  136 1    
   117   59   60 am   BACKBONE|DICT|INTERRES
   118   59  137 1    
   119   60   61 2    
   120   60   62 1    
   121   62   63 1    
   122   62   64 1    
   123   62  138 1    
   124   63  139 1    
   125   63  140 1    
   126   63  141 1    
   127   64   65 am   BACKBONE|DICT|INTERRES
   128   64  142 1    
   129   65   66 2    
   130   65   67 1    
   131   67   68 1    
   132   67   69 1    
   133   67  143 1    
   134   68  144 1    
   135   68  145 1    
   136   68  146 1    
   137   69   70 am   BACKBONE|DICT|INTERRES
   138   69  147 1    
   139   70   71 2    
   140   70   72 1    
   141   72   73 1    
   142   72   74 1    
   143   72  148 1    
   144   73  149 1    
   145   73  150 1    
   146   73  151 1    
   147   74   75 am   BACKBONE|DICT|INTERRES
   148   74  152 1    
   149   75   76 2    
   150   75   77 1    
   151   77   78 1    
   152   77   79 1    
   153   77  153 1    
   154   78  154 1    
   155   78  155 1    
   156   78  156 1    
   157   79   80 am   BACKBONE|DICT|INTERRES
   158   79  157 1    
   159   80   81 2    
@<TRIPOS>SUBSTRUCTURE
     1 UNK         1 GROUP             0       ****    0 ROOT    
