@<TRIPOS>MOLECULE
3R207
157   159    1
SMALL
USER_CHARGES


@<TRIPOS>ATOM
      1 CA        -44.3589  -28.0285   10.9347 C.3       0 UNK        -0.1975 
      2 C         -45.6528  -28.0180   10.1335 C.2       0 UNK         0.4852 
      3 O         -46.6530  -27.4943   10.6169 O.2       0 UNK        -0.5216 
      4 N         -45.6230  -28.5917    8.9237 N.am      1 UNK        -0.4461 
      5 CA        -46.7305  -28.7678    7.9737 C.3       1 UNK         0.0864 
      6 C6        -47.8605  -29.7100    8.5048 C.3       14 UNK        -0.0898 
      7 S7        -49.3087  -28.9324    9.3113 S.3       14 UNK        -0.2598 
      8 C8        -50.5942  -29.1854    8.0458 C.3       14 UNK         0.0286 
      9 C9        -51.7068  -28.1634    8.1962 C.ar      14 UNK        -0.0844 
     10 C10       -51.4799  -26.8420    7.8118 C.ar      14 UNK        -0.0881 
     11 C11       -52.4641  -25.8639    7.9751 C.ar      14 UNK        -0.0643 
     12 C12       -53.7031  -26.2336    8.5109 C.ar      14 UNK        -0.0930 
     13 C13       -53.9514  -27.5597    8.8837 C.ar      14 UNK        -0.0827 
     14 C14       -52.9509  -28.5223    8.7179 C.ar      14 UNK        -0.1249 
     15 C15       -55.3018  -27.9591    9.4567 C.3       14 UNK         0.0141 
     16 S16       -55.4291  -27.5477   11.2244 S.3       14 UNK        -0.2313 
     17 C17       -57.0158  -28.3518   11.6420 C.3       14 UNK        -0.0915 
     18 CA        -56.9469  -29.3143   12.8639 C.3       13 UNK         0.0968 
     19 C         -56.0074  -30.5404   12.6949 C.2       13 UNK         0.5732 
     20 N         -56.0352  -31.2004   11.5443 N.am      13 UNK        -0.7310 
     21 O         -55.2810  -30.9318   13.6058 O.2       13 UNK        -0.5035 
     22 N         -56.7001  -28.5906   14.1172 N.am      13 UNK        -0.4233 
     23 C         -57.6538  -28.0082   14.8545 C.2       13 UNK         0.4989 
     24 O         -58.8480  -28.0206   14.5475 O.2       13 UNK        -0.4996 
     25 CA        -57.2156  -27.2633   16.1317 C.3       12 UNK         0.0216 
     26 CB        -58.3484  -27.1316   17.1728 C.3       12 UNK        -0.1964 
     27 N         -55.9985  -27.8008   16.7470 N.am      12 UNK        -0.4276 
     28 C         -55.8038  -29.0195   17.2763 C.2       12 UNK         0.5020 
     29 O         -56.6820  -29.8794   17.3573 O.2       12 UNK        -0.5489 
     30 CA        -54.3890  -29.3447   17.7987 C.3       11 UNK         0.0294 
     31 CB        -53.8369  -30.6184   17.1342 C.3       11 UNK        -0.2019 
     32 N         -53.4492  -28.2463   17.5590 N.am      11 UNK        -0.4493 
     33 C         -53.1477  -27.2787   18.4367 C.2       11 UNK         0.4932 
     34 O         -53.5491  -27.2607   19.6000 O.2       11 UNK        -0.5029 
     35 CA        -52.2791  -26.1133   17.9242 C.3       10 UNK         0.0280 
     36 CB        -50.8071  -26.3314   18.3071 C.3       10 UNK        -0.1976 
     37 N         -52.3902  -25.9087   16.4746 N.am      10 UNK        -0.4242 
     38 C         -53.4962  -25.4504   15.8631 C.2       10 UNK         0.5072 
     39 O         -54.5054  -25.0964   16.4721 O.2       10 UNK        -0.5224 
     40 CA        -53.5280  -25.4502   14.3224 C.3       9 UNK         0.0343 
     41 CB        -53.1640  -24.0628   13.7742 C.3       9 UNK        -0.2003 
     42 N         -52.6590  -26.4650   13.7222 N.am      9 UNK        -0.4272 
     43 C         -52.8049  -27.7872   13.9084 C.2       9 UNK         0.4988 
     44 O         -53.7417  -28.2733   14.5426 O.2       9 UNK        -0.5108 
     45 CA        -51.7071  -28.7243   13.3661 C.3       8 UNK         0.0248 
     46 CB        -52.1629  -29.3685   12.0524 C.3       8 UNK        -0.2001 
     47 N         -50.4120  -28.0752   13.1453 N.am      8 UNK        -0.4140 
     48 C         -49.6917  -27.4265   14.0714 C.2       8 UNK         0.5028 
     49 O         -50.0081  -27.3591   15.2594 O.2       8 UNK        -0.5428 
     50 CA        -48.4529  -26.6602   13.5771 C.3       7 UNK         0.0264 
     51 CB        -47.1831  -27.4995   13.7863 C.3       7 UNK        -0.1988 
     52 N         -48.5360  -26.2266   12.1749 N.am      7 UNK        -0.4454 
     53 C         -49.4701  -25.4004   11.6782 C.2       7 UNK         0.5027 
     54 O         -50.4001  -24.9601   12.3568 O.2       7 UNK        -0.5083 
     55 CA        -49.3459  -25.0074   10.1878 C.3       6 UNK         0.0844 
     56 C56       -50.4515  -24.0059    9.7472 C.3       14 UNK        -0.0967 
     57 S57       -50.5245  -23.8051    7.9345 S.3       14 UNK        -0.2604 
     58 C58       -52.2097  -24.4143    7.5626 C.3       14 UNK         0.0134 
     59 N         -47.9913  -24.5518    9.8455 N.am      6 UNK        -0.4116 
     60 C         -47.3307  -23.5264   10.4040 C.2       5 UNK         0.5034 
     61 O         -47.7788  -22.8210   11.3092 O.2       5 UNK        -0.5045 
     62 CA        -45.9277  -23.2230    9.8545 C.3       5 UNK         0.0224 
     63 CB        -44.9450  -24.3707   10.1302 C.3       5 UNK        -0.1978 
     64 N         -45.9267  -22.9084    8.4251 N.am      5 UNK        -0.4737 
     65 C         -46.4469  -21.8020    7.8801 C.2       4 UNK         0.5027 
     66 O         -47.0173  -20.9307    8.5370 O.2       4 UNK        -0.5211 
     67 CA        -46.3083  -21.5965    6.3571 C.3       4 UNK         0.0297 
     68 CB        -45.2740  -20.4965    6.0450 C.3       4 UNK        -0.1993 
     69 N         -46.0451  -22.8041    5.5602 N.am      4 UNK        -0.4486 
     70 C         -44.9662  -23.5981    5.5311 C.2       3 UNK         0.4961 
     71 O         -43.9833  -23.4478    6.2574 O.2       3 UNK        -0.5105 
     72 CA        -45.0337  -24.7914    4.5544 C.3       3 UNK         0.0299 
     73 CB        -43.7111  -25.5776    4.4882 C.3       3 UNK        -0.1972 
     74 N         -46.1140  -25.7133    4.9130 N.am      3 UNK        -0.4305 
     75 C         -47.4236  -25.4885    4.7397 C.2       2 UNK         0.5006 
     76 O         -47.8603  -24.5021    4.1433 O.2       2 UNK        -0.5106 
     77 CA        -48.4234  -26.4880    5.3521 C.3       2 UNK         0.0296 
     78 CB        -49.3420  -27.0886    4.2744 C.3       2 UNK        -0.2002 
     79 N         -47.8354  -27.5799    6.1402 N.am      2 UNK        -0.4032 
     80 C         -47.2198  -27.4480    7.3246 C.2       1 UNK         0.5000 
     81 O         -47.0191  -26.3533    7.8572 O.2       1 UNK        -0.5238 
     82 H82       -44.0531  -27.0111   11.1735 H         1 UNK         0.0889 
     83 H83       -43.5448  -28.5087   10.3923 H         1 UNK         0.0889 
     84 H84       -44.5065  -28.5663   11.8708 H         1 UNK         0.0889 
     85 H85       -44.7403  -28.9627    8.6013 H         1 UNK         0.3028 
     86 H86       -46.2508  -29.3121    7.1582 H         1 UNK         0.0864 
     87 H87       -47.4412  -30.4289    9.2104 H         1 UNK         0.0720 
     88 H88       -48.2237  -30.3239    7.6794 H         1 UNK         0.0720 
     89 H89       -50.9822  -30.2022    8.1238 H         1 UNK         0.0814 
     90 H90       -50.1655  -29.0923    7.0475 H         1 UNK         0.0814 
     91 H91       -50.5165  -26.5742    7.4114 H         1 UNK         0.1469 
     92 H92       -54.4779  -25.4903    8.6409 H         1 UNK         0.1381 
     93 H93       -53.1347  -29.5463    9.0136 H         1 UNK         0.1206 
     94 H94       -56.1006  -27.4561    8.9097 H         1 UNK         0.0813 
     95 H95       -55.4611  -29.0301    9.3219 H         1 UNK         0.0813 
     96 H96       -57.7437  -27.5630   11.8366 H         1 UNK         0.0638 
     97 H97       -57.4026  -28.8820   10.7710 H         1 UNK         0.0638 
     98 H98       -57.9313  -29.7768   12.9553 H         1 UNK         0.0568 
     99 H99       -56.6441  -30.9193   10.7934 H         1 UNK         0.3450 
    100 H100      -55.4423  -32.0074   11.4339 H         1 UNK         0.3450 
    101 H101      -55.7303  -28.5776   14.4221 H         1 UNK         0.2987 
    102 H102      -56.9594  -26.2547   15.8047 H         1 UNK         0.0766 
    103 H103      -59.1992  -26.5875   16.7608 H         1 UNK         0.0798 
    104 H104      -58.0146  -26.5850   18.0548 H         1 UNK         0.0798 
    105 H105      -58.7140  -28.1056   17.4993 H         1 UNK         0.0798 
    106 H106      -55.2109  -27.1648   16.7437 H         1 UNK         0.3198 
    107 H107      -54.4754  -29.5316   18.8711 H         1 UNK         0.0843 
    108 H108      -53.7792  -30.5168   16.0496 H         1 UNK         0.0831 
    109 H109      -54.4756  -31.4773   17.3438 H         1 UNK         0.0831 
    110 H110      -52.8401  -30.8599   17.5032 H         1 UNK         0.0831 
    111 H111      -53.1057  -28.1679   16.6089 H         1 UNK         0.3133 
    112 H112      -52.6239  -25.2024   18.4180 H         1 UNK         0.0566 
    113 H113      -50.1783  -25.5113   17.9599 H         1 UNK         0.0814 
    114 H114      -50.4130  -27.2578   17.8875 H         1 UNK         0.0814 
    115 H115      -50.6924  -26.3925   19.3901 H         1 UNK         0.0814 
    116 H116      -51.6051  -26.2247   15.9121 H         1 UNK         0.3091 
    117 H117      -54.5514  -25.6779   14.0160 H         1 UNK         0.0702 
    118 H118      -52.1537  -23.7686   14.0615 H         1 UNK         0.0785 
    119 H119      -53.8464  -23.3017   14.1547 H         1 UNK         0.0785 
    120 H120      -53.2235  -24.0381   12.6858 H         1 UNK         0.0785 
    121 H121      -51.8577  -26.1212   13.2020 H         1 UNK         0.2998 
    122 H122      -51.5585  -29.5129   14.1063 H         1 UNK         0.0697 
    123 H123      -51.4343  -30.0885   11.6796 H         1 UNK         0.0825 
    124 H124      -52.3122  -28.6094   11.2867 H         1 UNK         0.0825 
    125 H125      -53.1084  -29.8959   12.1785 H         1 UNK         0.0825 
    126 H126      -50.0652  -28.0689   12.1961 H         1 UNK         0.3029 
    127 H127      -48.3700  -25.7589   14.1879 H         1 UNK         0.0897 
    128 H128      -47.0752  -27.7922   14.8317 H         1 UNK         0.0792 
    129 H129      -46.2885  -26.9403   13.5114 H         1 UNK         0.0792 
    130 H130      -47.2030  -28.4131   13.1907 H         1 UNK         0.0792 
    131 H131      -47.8238  -26.6006   11.5422 H         1 UNK         0.3086 
    132 H132      -49.4933  -25.9337    9.6333 H         1 UNK         0.0583 
    133 H133      -51.4312  -24.3357   10.0982 H         1 UNK         0.1020 
    134 H134      -50.2899  -23.0277   10.2029 H         1 UNK         0.1020 
    135 H135      -52.9281  -23.7504    8.0462 H         1 UNK         0.0694 
    136 H136      -52.3814  -24.3257    6.4893 H         1 UNK         0.0694 
    137 H137      -47.5235  -25.1026    9.1272 H         1 UNK         0.2989 
    138 H138      -45.5616  -22.3423   10.3873 H         1 UNK         0.1055 
    139 H139      -45.1583  -25.2385    9.5074 H         1 UNK         0.0806 
    140 H140      -44.9955  -24.6893   11.1725 H         1 UNK         0.0806 
    141 H141      -43.9173  -24.0660    9.9320 H         1 UNK         0.0806 
    142 H142      -45.4270  -23.5401    7.8119 H         1 UNK         0.3061 
    143 H143      -47.2806  -21.2360    6.0173 H         1 UNK         0.0734 
    144 H144      -45.5346  -19.5632    6.5459 H         1 UNK         0.0832 
    145 H145      -44.2734  -20.7724    6.3792 H         1 UNK         0.0832 
    146 H146      -45.2262  -20.2868    4.9765 H         1 UNK         0.0832 
    147 H147      -46.8177  -23.1015    4.9681 H         1 UNK         0.3156 
    148 H148      -45.2315  -24.3886    3.5587 H         1 UNK         0.0589 
    149 H149      -43.4547  -26.0223    5.4508 H         1 UNK         0.0808 
    150 H150      -43.7618  -26.3789    3.7507 H         1 UNK         0.0808 
    151 H151      -42.8847  -24.9266    4.1997 H         1 UNK         0.0808 
    152 H152      -45.8479  -26.5236    5.4515 H         1 UNK         0.3098 
    153 H153      -49.0379  -25.8872    6.0218 H         1 UNK         0.0720 
    154 H154      -49.8354  -26.3059    3.6963 H         1 UNK         0.0791 
    155 H155      -50.1288  -27.6989    4.7186 H         1 UNK         0.0791 
    156 H156      -48.7863  -27.7110    3.5721 H         1 UNK         0.0791 
    157 H157      -47.9304  -28.5054    5.7471 H         1 UNK         0.3028 
@<TRIPOS>BOND
     1    1    2 1    
     2    1   82 1    
     3    1   83 1    
     4    1   84 1    
     5    2    3 2    
     6    2    4 am   BACKBONE|DICT|INTERRES
     7    4    5 1    
     8    4   85 1    
     9    5    6 1    
    10    5   80 1    
    11    5   86 1    
    12    6    7 1    
    13    6   87 1    
    14    6   88 1    
    15    7    8 1    
    16    8    9 1    
    17    8   89 1    
    18    8   90 1    
    19    9   10 ar   
    20    9   14 ar   
    21   10   11 ar   
    22   10   91 1    
    23   11   12 ar   
    24   11   58 1    
    25   12   13 ar   
    26   12   92 1    
    27   13   14 ar   
    28   13   15 1    
    29   14   93 1    
    30   15   16 1    
    31   15   94 1    
    32   15   95 1    
    33   16   17 1    
    34   17   18 1    
    35   17   96 1    
    36   17   97 1    
    37   18   19 1    
    38   18   22 1    
    39   18   98 1    
    40   19   20 am   BACKBONE|DICT|INTERRES
    41   19   21 2    
    42   20   99 1    
    43   20  100 1    
    44   22   23 am   BACKBONE|DICT|INTERRES
    45   22  101 1    
    46   23   24 2    
    47   23   25 1    
    48   25   26 1    
    49   25   27 1    
    50   25  102 1    
    51   26  103 1    
    52   26  104 1    
    53   26  105 1    
    54   27   28 am   BACKBONE|DICT|INTERRES
    55   27  106 1    
    56   28   29 2    
    57   28   30 1    
    58   30   31 1    
    59   30   32 1    
    60   30  107 1    
    61   31  108 1    
    62   31  109 1    
    63   31  110 1    
    64   32   33 am   BACKBONE|DICT|INTERRES
    65   32  111 1    
    66   33   34 2    
    67   33   35 1    
    68   35   36 1    
    69   35   37 1    
    70   35  112 1    
    71   36  113 1    
    72   36  114 1    
    73   36  115 1    
    74   37   38 am   BACKBONE|DICT|INTERRES
    75   37  116 1    
    76   38   39 2    
    77   38   40 1    
    78   40   41 1    
    79   40   42 1    
    80   40  117 1    
    81   41  118 1    
    82   41  119 1    
    83   41  120 1    
    84   42   43 am   BACKBONE|DICT|INTERRES
    85   42  121 1    
    86   43   44 2    
    87   43   45 1    
    88   45   46 1    
    89   45   47 1    
    90   45  122 1    
    91   46  123 1    
    92   46  124 1    
    93   46  125 1    
    94   47   48 am   BACKBONE|DICT|INTERRES
    95   47  126 1    
    96   48   49 2    
    97   48   50 1    
    98   50   51 1    
    99   50   52 1    
   100   50  127 1    
   101   51  128 1    
   102   51  129 1    
   103   51  130 1    
   104   52   53 am   BACKBONE|DICT|INTERRES
   105   52  131 1    
   106   53   54 2    
   107   53   55 1    
   108   55   56 1    
   109   55   59 1    
   110   55  132 1    
   111   56   57 1    
   112   56  133 1    
   113   56  134 1    
   114   57   58 1    
   115   58  135 1    
   116   58  136 1    
   117   59   60 am   BACKBONE|DICT|INTERRES
   118   59  137 1    
   119   60   61 2    
   120   60   62 1    
   121   62   63 1    
   122   62   64 1    
   123   62  138 1    
   124   63  139 1    
   125   63  140 1    
   126   63  141 1    
   127   64   65 am   BACKBONE|DICT|INTERRES
   128   64  142 1    
   129   65   66 2    
   130   65   67 1    
   131   67   68 1    
   132   67   69 1    
   133   67  143 1    
   134   68  144 1    
   135   68  145 1    
   136   68  146 1    
   137   69   70 am   BACKBONE|DICT|INTERRES
   138   69  147 1    
   139   70   71 2    
   140   70   72 1    
   141   72   73 1    
   142   72   74 1    
   143   72  148 1    
   144   73  149 1    
   145   73  150 1    
   146   73  151 1    
   147   74   75 am   BACKBONE|DICT|INTERRES
   148   74  152 1    
   149   75   76 2    
   150   75   77 1    
   151   77   78 1    
   152   77   79 1    
   153   77  153 1    
   154   78  154 1    
   155   78  155 1    
   156   78  156 1    
   157   79   80 am   BACKBONE|DICT|INTERRES
   158   79  157 1    
   159   80   81 2    
@<TRIPOS>SUBSTRUCTURE
     1 UNK         1 GROUP             0       ****    0 ROOT    
