@<TRIPOS>MOLECULE
3R207
157   159    1
SMALL
USER_CHARGES


@<TRIPOS>ATOM
      1 CA        -45.3699  -31.0117    6.1575 C.3       0 UNK        -0.1975 
      2 C         -46.6617  -30.4083    5.6265 C.2       0 UNK         0.4852 
      3 O         -46.8091  -30.2468    4.4146 O.2       0 UNK        -0.5216 
      4 N         -47.5963  -30.0707    6.5253 N.am      1 UNK        -0.4461 
      5 CA        -48.9082  -29.4916    6.2007 C.3       1 UNK         0.0864 
      6 C6        -49.8872  -29.5961    7.3942 C.3       14 UNK        -0.0898 
      7 S7        -50.2441  -31.3243    7.8629 S.3       14 UNK        -0.2598 
      8 C8        -51.2122  -31.1029    9.3934 C.3       14 UNK         0.0286 
      9 C9        -52.4000  -30.1755    9.1820 C.ar      14 UNK        -0.0844 
     10 C10       -52.3320  -28.8478    9.6074 C.ar      14 UNK        -0.0881 
     11 C11       -53.3753  -27.9587    9.3372 C.ar      14 UNK        -0.0643 
     12 C12       -54.5192  -28.4193    8.6747 C.ar      14 UNK        -0.0930 
     13 C13       -54.6132  -29.7570    8.2736 C.ar      14 UNK        -0.0827 
     14 C14       -53.5468  -30.6271    8.5250 C.ar      14 UNK        -0.1249 
     15 C15       -55.8342  -30.2630    7.5179 C.3       14 UNK         0.0141 
     16 S16       -56.7478  -31.5245    8.4657 S.3       14 UNK        -0.2313 
     17 C17       -58.1750  -30.6026    9.1399 C.3       14 UNK        -0.0915 
     18 CA        -58.1111  -30.2962   10.6607 C.3       13 UNK         0.0968 
     19 C         -58.0155  -31.5711   11.5491 C.2       13 UNK         0.5732 
     20 N         -59.0792  -32.3613   11.6095 N.am      13 UNK        -0.7310 
     21 O         -56.9918  -31.8613   12.1667 O.2       13 UNK        -0.5035 
     22 N         -57.0897  -29.2848   10.9586 N.am      13 UNK        -0.4233 
     23 C         -57.0620  -28.5487   12.0750 C.2       13 UNK         0.4989 
     24 O         -57.8978  -28.6242   12.9807 O.2       13 UNK        -0.4996 
     25 CA        -55.9441  -27.5076   12.1705 C.3       12 UNK         0.0216 
     26 CB        -56.3203  -26.2377   11.3832 C.3       12 UNK        -0.1964 
     27 N         -55.7363  -27.1615   13.5726 N.am      12 UNK        -0.4276 
     28 C         -54.5849  -26.7365   14.0978 C.2       12 UNK         0.5020 
     29 O         -53.5421  -26.5917   13.4533 O.2       12 UNK        -0.5489 
     30 CA        -54.5940  -26.4280   15.5988 C.3       11 UNK         0.0294 
     31 CB        -54.5799  -27.7241   16.4322 C.3       11 UNK        -0.2019 
     32 N         -53.4085  -25.6336   15.8932 N.am      11 UNK        -0.4493 
     33 C         -53.1968  -24.8754   16.9736 C.2       11 UNK         0.4932 
     34 O         -54.0271  -24.7123   17.8695 O.2       11 UNK        -0.5029 
     35 CA        -51.8131  -24.2002   17.0586 C.3       10 UNK         0.0280 
     36 CB        -51.4737  -23.6722   18.4683 C.3       10 UNK        -0.1976 
     37 N         -50.7463  -25.0669   16.5436 N.am      10 UNK        -0.4242 
     38 C         -50.3717  -26.2676   17.0139 C.2       10 UNK         0.5072 
     39 O         -50.8239  -26.7895   18.0340 O.2       10 UNK        -0.5224 
     40 CA        -49.3241  -27.0326   16.1882 C.3       9 UNK         0.0343 
     41 CB        -50.0191  -27.8807   15.1097 C.3       9 UNK        -0.2003 
     42 N         -48.3360  -26.1538   15.5584 N.am      9 UNK        -0.4272 
     43 C         -47.4048  -25.4580   16.2273 C.2       9 UNK         0.4988 
     44 O         -47.2357  -25.5319   17.4452 O.2       9 UNK        -0.5108 
     45 CA        -46.5152  -24.5119   15.4036 C.3       8 UNK         0.0248 
     46 CB        -45.3739  -25.2910   14.7306 C.3       8 UNK        -0.2001 
     47 N         -47.2638  -23.7513   14.3985 N.am      8 UNK        -0.4140 
     48 C         -48.1934  -22.8268   14.6846 C.2       8 UNK         0.5028 
     49 O         -48.4863  -22.4796   15.8290 O.2       8 UNK        -0.5428 
     50 CA        -48.9436  -22.1931   13.5004 C.3       7 UNK         0.0264 
     51 CB        -48.1079  -21.0730   12.8610 C.3       7 UNK        -0.1988 
     52 N         -49.3357  -23.1642   12.4761 N.am      7 UNK        -0.4454 
     53 C         -50.1851  -24.1840   12.6751 C.2       7 UNK         0.5027 
     54 O         -50.7547  -24.3989   13.7459 O.2       7 UNK        -0.5083 
     55 CA        -50.3959  -25.1532   11.4933 C.3       6 UNK         0.0844 
     56 C56       -51.3812  -24.5479   10.4613 C.3       14 UNK        -0.0967 
     57 S57       -51.7691  -25.7023    9.1053 S.3       14 UNK        -0.2604 
     58 C58       -53.2571  -26.5076    9.7782 C.3       14 UNK         0.0134 
     59 N         -49.1167  -25.5631   10.8992 N.am      6 UNK        -0.4116 
     60 C         -48.1341  -26.1948   11.5604 C.2       5 UNK         0.5034 
     61 O         -48.2222  -26.5778   12.7258 O.2       5 UNK        -0.5045 
     62 CA        -46.7981  -26.3668   10.8247 C.3       5 UNK         0.0224 
     63 CB        -46.8146  -27.6089    9.9170 C.3       5 UNK        -0.1978 
     64 N         -46.4542  -25.1677   10.0562 N.am      5 UNK        -0.4737 
     65 C         -46.0642  -24.0110   10.6136 C.2       4 UNK         0.5027 
     66 O         -45.9053  -23.8607   11.8237 O.2       4 UNK        -0.5211 
     67 CA        -45.8519  -22.8090    9.6766 C.3       4 UNK         0.0297 
     68 CB        -44.4208  -22.8112    9.1173 C.3       4 UNK        -0.1993 
     69 N         -46.8096  -22.7707    8.5704 N.am      4 UNK        -0.4486 
     70 C         -48.1328  -22.6048    8.7111 C.2       3 UNK         0.4961 
     71 O         -48.6827  -22.3800    9.7886 O.2       3 UNK        -0.5105 
     72 CA        -48.9919  -22.7835    7.4443 C.3       3 UNK         0.0299 
     73 CB        -49.1813  -21.4376    6.7280 C.3       3 UNK        -0.1972 
     74 N         -48.4497  -23.7737    6.5032 N.am      3 UNK        -0.4305 
     75 C         -48.2277  -25.0604    6.8063 C.2       2 UNK         0.5006 
     76 O         -48.4685  -25.5484    7.9124 O.2       2 UNK        -0.5106 
     77 CA        -47.5309  -25.9112    5.7333 C.3       2 UNK         0.0296 
     78 CB        -46.0212  -25.6141    5.7184 C.3       2 UNK        -0.2002 
     79 N         -47.7203  -27.3374    5.9963 N.am      2 UNK        -0.4032 
     80 C         -48.8306  -28.0288    5.7059 C.2       1 UNK         0.5000 
     81 O         -49.7777  -27.5574    5.0725 O.2       1 UNK        -0.5238 
     82 H82       -45.2258  -32.0101    5.7455 H         1 UNK         0.0889 
     83 H83       -45.3726  -31.0911    7.2445 H         1 UNK         0.0889 
     84 H84       -44.5198  -30.3961    5.8646 H         1 UNK         0.0889 
     85 H85       -47.4352  -30.2598    7.5045 H         1 UNK         0.3028 
     86 H86       -49.3273  -30.0701    5.3741 H         1 UNK         0.0864 
     87 H87       -49.4988  -29.0613    8.2632 H         1 UNK         0.0720 
     88 H88       -50.8377  -29.1220    7.1403 H         1 UNK         0.0720 
     89 H89       -50.5584  -30.7195   10.1784 H         1 UNK         0.0814 
     90 H90       -51.5642  -32.0766    9.7373 H         1 UNK         0.0814 
     91 H91       -51.4465  -28.4893   10.1149 H         1 UNK         0.1469 
     92 H92       -55.3274  -27.7341    8.4584 H         1 UNK         0.1381 
     93 H93       -53.6014  -31.6540    8.1896 H         1 UNK         0.1206 
     94 H94       -55.4988  -30.7140    6.5828 H         1 UNK         0.0813 
     95 H95       -56.4923  -29.4418    7.2314 H         1 UNK         0.0813 
     96 H96       -59.0674  -31.1927    8.9251 H         1 UNK         0.0638 
     97 H97       -58.3119  -29.6748    8.5832 H         1 UNK         0.0638 
     98 H98       -59.0673  -29.8354   10.9175 H         1 UNK         0.0568 
     99 H99       -59.0360  -33.1962   12.1726 H         1 UNK         0.3450 
    100 H100      -59.9230  -32.1417   11.1038 H         1 UNK         0.3450 
    101 H101      -56.3391  -29.2074   10.2882 H         1 UNK         0.2987 
    102 H102      -55.0307  -27.9478   11.7655 H         1 UNK         0.0766 
    103 H103      -55.5433  -25.4770   11.4575 H         1 UNK         0.0798 
    104 H104      -57.2473  -25.7977   11.7533 H         1 UNK         0.0798 
    105 H105      -56.4654  -26.4557   10.3249 H         1 UNK         0.0798 
    106 H106      -56.5410  -27.3268   14.1656 H         1 UNK         0.3198 
    107 H107      -55.4857  -25.8416   15.8311 H         1 UNK         0.0843 
    108 H108      -53.6934  -28.3244   16.2227 H         1 UNK         0.0831 
    109 H109      -55.4526  -28.3422   16.2186 H         1 UNK         0.0831 
    110 H110      -54.5915  -27.5111   17.5013 H         1 UNK         0.0831 
    111 H111      -52.7102  -25.6661   15.1567 H         1 UNK         0.3133 
    112 H112      -51.8510  -23.3419   16.3863 H         1 UNK         0.0566 
    113 H113      -50.4907  -23.2012   18.4866 H         1 UNK         0.0814 
    114 H114      -52.1984  -22.9228   18.7889 H         1 UNK         0.0814 
    115 H115      -51.4794  -24.4682   19.2134 H         1 UNK         0.0814 
    116 H116      -50.3613  -24.7758   15.6494 H         1 UNK         0.3091 
    117 H117      -48.7944  -27.7069   16.8644 H         1 UNK         0.0702 
    118 H118      -49.3014  -28.4942   14.5647 H         1 UNK         0.0785 
    119 H119      -50.5455  -27.2590   14.3836 H         1 UNK         0.0785 
    120 H120      -50.7527  -28.5551   15.5536 H         1 UNK         0.0785 
    121 H121      -48.3616  -26.0948   14.5427 H         1 UNK         0.2998 
    122 H122      -46.0696  -23.7935   16.0948 H         1 UNK         0.0697 
    123 H123      -45.7503  -26.0093   14.0019 H         1 UNK         0.0825 
    124 H124      -44.7927  -25.8470   15.4674 H         1 UNK         0.0825 
    125 H125      -44.6863  -24.6204   14.2150 H         1 UNK         0.0825 
    126 H126      -47.0239  -23.9222   13.4255 H         1 UNK         0.3029 
    127 H127      -49.8599  -21.7483   13.8947 H         1 UNK         0.0897 
    128 H128      -48.6610  -20.5684   12.0686 H         1 UNK         0.0792 
    129 H129      -47.8372  -20.3177   13.6000 H         1 UNK         0.0792 
    130 H130      -47.1821  -21.4551   12.4306 H         1 UNK         0.0792 
    131 H131      -48.9538  -23.0210   11.5432 H         1 UNK         0.3086 
    132 H132      -50.8566  -26.0550   11.9031 H         1 UNK         0.0583 
    133 H133      -52.3116  -24.2476   10.9483 H         1 UNK         0.1020 
    134 H134      -50.9719  -23.6378   10.0219 H         1 UNK         0.1020 
    135 H135      -53.2256  -26.4868   10.8669 H         1 UNK         0.0694 
    136 H136      -54.1299  -25.9296    9.4733 H         1 UNK         0.0694 
    137 H137      -48.9730  -25.3347    9.9211 H         1 UNK         0.2989 
    138 H138      -46.0221  -26.5166   11.5788 H         1 UNK         0.1055 
    139 H139      -46.9575  -28.5138   10.5091 H         1 UNK         0.0806 
    140 H140      -45.8739  -27.7204    9.3779 H         1 UNK         0.0806 
    141 H141      -47.6215  -27.5762    9.1863 H         1 UNK         0.0806 
    142 H142      -46.6657  -25.1891    9.0676 H         1 UNK         0.3061 
    143 H143      -45.9868  -21.9005   10.2673 H         1 UNK         0.0734 
    144 H144      -44.2272  -21.9224    8.5164 H         1 UNK         0.0832 
    145 H145      -43.6880  -22.8187    9.9256 H         1 UNK         0.0832 
    146 H146      -44.2285  -23.6870    8.4961 H         1 UNK         0.0832 
    147 H147      -46.4464  -22.9373    7.6438 H         1 UNK         0.3156 
    148 H148      -49.9732  -23.1408    7.7634 H         1 UNK         0.0589 
    149 H149      -48.2366  -21.0398    6.3550 H         1 UNK         0.0808 
    150 H150      -49.8652  -21.5292    5.8841 H         1 UNK         0.0808 
    151 H151      -49.6037  -20.6930    7.4045 H         1 UNK         0.0808 
    152 H152      -48.2171  -23.4424    5.5775 H         1 UNK         0.3098 
    153 H153      -47.9538  -25.6659    4.7567 H         1 UNK         0.0720 
    154 H154      -45.5084  -26.2163    4.9679 H         1 UNK         0.0791 
    155 H155      -45.5568  -25.8191    6.6842 H         1 UNK         0.0791 
    156 H156      -45.8251  -24.5688    5.4766 H         1 UNK         0.0791 
    157 H157      -47.0064  -27.7982    6.5392 H         1 UNK         0.3028 
@<TRIPOS>BOND
     1    1    2 1    
     2    1   82 1    
     3    1   83 1    
     4    1   84 1    
     5    2    3 2    
     6    2    4 am   BACKBONE|DICT|INTERRES
     7    4    5 1    
     8    4   85 1    
     9    5    6 1    
    10    5   80 1    
    11    5   86 1    
    12    6    7 1    
    13    6   87 1    
    14    6   88 1    
    15    7    8 1    
    16    8    9 1    
    17    8   89 1    
    18    8   90 1    
    19    9   10 ar   
    20    9   14 ar   
    21   10   11 ar   
    22   10   91 1    
    23   11   12 ar   
    24   11   58 1    
    25   12   13 ar   
    26   12   92 1    
    27   13   14 ar   
    28   13   15 1    
    29   14   93 1    
    30   15   16 1    
    31   15   94 1    
    32   15   95 1    
    33   16   17 1    
    34   17   18 1    
    35   17   96 1    
    36   17   97 1    
    37   18   19 1    
    38   18   22 1    
    39   18   98 1    
    40   19   20 am   BACKBONE|DICT|INTERRES
    41   19   21 2    
    42   20   99 1    
    43   20  100 1    
    44   22   23 am   BACKBONE|DICT|INTERRES
    45   22  101 1    
    46   23   24 2    
    47   23   25 1    
    48   25   26 1    
    49   25   27 1    
    50   25  102 1    
    51   26  103 1    
    52   26  104 1    
    53   26  105 1    
    54   27   28 am   BACKBONE|DICT|INTERRES
    55   27  106 1    
    56   28   29 2    
    57   28   30 1    
    58   30   31 1    
    59   30   32 1    
    60   30  107 1    
    61   31  108 1    
    62   31  109 1    
    63   31  110 1    
    64   32   33 am   BACKBONE|DICT|INTERRES
    65   32  111 1    
    66   33   34 2    
    67   33   35 1    
    68   35   36 1    
    69   35   37 1    
    70   35  112 1    
    71   36  113 1    
    72   36  114 1    
    73   36  115 1    
    74   37   38 am   BACKBONE|DICT|INTERRES
    75   37  116 1    
    76   38   39 2    
    77   38   40 1    
    78   40   41 1    
    79   40   42 1    
    80   40  117 1    
    81   41  118 1    
    82   41  119 1    
    83   41  120 1    
    84   42   43 am   BACKBONE|DICT|INTERRES
    85   42  121 1    
    86   43   44 2    
    87   43   45 1    
    88   45   46 1    
    89   45   47 1    
    90   45  122 1    
    91   46  123 1    
    92   46  124 1    
    93   46  125 1    
    94   47   48 am   BACKBONE|DICT|INTERRES
    95   47  126 1    
    96   48   49 2    
    97   48   50 1    
    98   50   51 1    
    99   50   52 1    
   100   50  127 1    
   101   51  128 1    
   102   51  129 1    
   103   51  130 1    
   104   52   53 am   BACKBONE|DICT|INTERRES
   105   52  131 1    
   106   53   54 2    
   107   53   55 1    
   108   55   56 1    
   109   55   59 1    
   110   55  132 1    
   111   56   57 1    
   112   56  133 1    
   113   56  134 1    
   114   57   58 1    
   115   58  135 1    
   116   58  136 1    
   117   59   60 am   BACKBONE|DICT|INTERRES
   118   59  137 1    
   119   60   61 2    
   120   60   62 1    
   121   62   63 1    
   122   62   64 1    
   123   62  138 1    
   124   63  139 1    
   125   63  140 1    
   126   63  141 1    
   127   64   65 am   BACKBONE|DICT|INTERRES
   128   64  142 1    
   129   65   66 2    
   130   65   67 1    
   131   67   68 1    
   132   67   69 1    
   133   67  143 1    
   134   68  144 1    
   135   68  145 1    
   136   68  146 1    
   137   69   70 am   BACKBONE|DICT|INTERRES
   138   69  147 1    
   139   70   71 2    
   140   70   72 1    
   141   72   73 1    
   142   72   74 1    
   143   72  148 1    
   144   73  149 1    
   145   73  150 1    
   146   73  151 1    
   147   74   75 am   BACKBONE|DICT|INTERRES
   148   74  152 1    
   149   75   76 2    
   150   75   77 1    
   151   77   78 1    
   152   77   79 1    
   153   77  153 1    
   154   78  154 1    
   155   78  155 1    
   156   78  156 1    
   157   79   80 am   BACKBONE|DICT|INTERRES
   158   79  157 1    
   159   80   81 2    
@<TRIPOS>SUBSTRUCTURE
     1 UNK         1 GROUP             0       ****    0 ROOT    
