@<TRIPOS>MOLECULE
3R207
157   159    1
SMALL
USER_CHARGES


@<TRIPOS>ATOM
      1 CA        -49.2107  -31.5664    3.4233 C.3       0 UNK        -0.1975 
      2 C         -49.5045  -30.2852    4.1895 C.2       0 UNK         0.4852 
      3 O         -50.3461  -29.4956    3.7601 O.2       0 UNK        -0.5216 
      4 N         -48.8143  -30.0720    5.3183 N.am      1 UNK        -0.4461 
      5 CA        -48.9774  -28.9052    6.1957 C.3       1 UNK         0.0864 
      6 C6        -48.3315  -29.1419    7.5855 C.3       14 UNK        -0.0898 
      7 S7        -49.2621  -30.3524    8.5833 S.3       14 UNK        -0.2598 
      8 C8        -50.0527  -29.2821    9.8318 C.3       14 UNK         0.0286 
      9 C9        -51.3146  -28.6096    9.3055 C.ar      14 UNK        -0.0844 
     10 C10       -51.2280  -27.4961    8.4655 C.ar      14 UNK        -0.0881 
     11 C11       -52.3805  -26.8646    7.9922 C.ar      14 UNK        -0.0643 
     12 C12       -53.6339  -27.3333    8.3964 C.ar      14 UNK        -0.0930 
     13 C13       -53.7371  -28.4281    9.2606 C.ar      14 UNK        -0.0827 
     14 C14       -52.5749  -29.0758    9.6926 C.ar      14 UNK        -0.1249 
     15 C15       -55.1008  -28.8979    9.7460 C.3       14 UNK         0.0141 
     16 S16       -55.8052  -27.7250   10.9484 S.3       14 UNK        -0.2313 
     17 C17       -57.1713  -28.7063   11.6535 C.3       14 UNK        -0.0915 
     18 CA        -57.5147  -28.2923   13.1102 C.3       13 UNK         0.0968 
     19 C         -58.7706  -29.0571   13.6211 C.2       13 UNK         0.5732 
     20 N         -58.6678  -29.9118   14.6322 N.am      13 UNK        -0.7310 
     21 O         -59.8629  -28.8642   13.0921 O.2       13 UNK        -0.5035 
     22 N         -56.3402  -28.3793   13.9933 N.am      13 UNK        -0.4233 
     23 C         -56.1988  -27.7606   15.1702 C.2       13 UNK         0.4989 
     24 O         -57.0607  -27.0338   15.6654 O.2       13 UNK        -0.4996 
     25 CA        -54.8724  -27.9661   15.9289 C.3       12 UNK         0.0216 
     26 CB        -54.9181  -29.2422   16.7911 C.3       12 UNK        -0.1964 
     27 N         -53.6633  -27.9256   15.0925 N.am      12 UNK        -0.4276 
     28 C         -53.2736  -28.7655   14.1213 C.2       12 UNK         0.5020 
     29 O         -53.9090  -29.7591   13.7658 O.2       12 UNK        -0.5489 
     30 CA        -51.9614  -28.4161   13.4109 C.3       11 UNK         0.0294 
     31 CB        -52.1710  -27.2266   12.4629 C.3       11 UNK        -0.2019 
     32 N         -50.9068  -28.0963   14.3715 N.am      11 UNK        -0.4493 
     33 C         -50.1197  -29.0027   14.9668 C.2       11 UNK         0.4932 
     34 O         -50.1264  -30.2031   14.6935 O.2       11 UNK        -0.5029 
     35 CA        -49.1642  -28.4885   16.0611 C.3       10 UNK         0.0280 
     36 CB        -47.8347  -28.0269   15.4429 C.3       10 UNK        -0.1976 
     37 N         -49.7316  -27.3926   16.8492 N.am      10 UNK        -0.4242 
     38 C         -50.7858  -27.4955   17.6725 C.2       10 UNK         0.5072 
     39 O         -51.3269  -28.5622   17.9633 O.2       10 UNK        -0.5224 
     40 CA        -51.3521  -26.1823   18.2524 C.3       9 UNK         0.0343 
     41 CB        -50.8530  -25.9709   19.6908 C.3       9 UNK        -0.2003 
     42 N         -51.0494  -24.9847   17.4545 N.am      9 UNK        -0.4272 
     43 C         -51.4253  -24.7966   16.1820 C.2       9 UNK         0.4988 
     44 O         -52.0834  -25.6226   15.5433 O.2       9 UNK        -0.5108 
     45 CA        -50.9303  -23.5085   15.5053 C.3       8 UNK         0.0248 
     46 CB        -49.3932  -23.4938   15.4074 C.3       8 UNK        -0.2001 
     47 N         -51.4915  -23.4112   14.1572 N.am      8 UNK        -0.4140 
     48 C         -52.6118  -22.7456   13.8443 C.2       8 UNK         0.5028 
     49 O         -53.2227  -22.0396   14.6493 O.2       8 UNK        -0.5428 
     50 CA        -53.1877  -22.9077   12.4203 C.3       7 UNK         0.0264 
     51 CB        -53.5885  -21.5532   11.7976 C.3       7 UNK        -0.1988 
     52 N         -52.3572  -23.6911   11.4956 N.am      7 UNK        -0.4454 
     53 C         -51.1573  -23.3719   10.9885 C.2       7 UNK         0.5027 
     54 O         -50.5624  -22.3149   11.2073 O.2       7 UNK        -0.5083 
     55 CA        -50.5054  -24.4475   10.0936 C.3       6 UNK         0.0844 
     56 C56       -50.5409  -24.0583    8.5958 C.3       14 UNK        -0.0967 
     57 S57       -52.2330  -24.0892    7.9041 S.3       14 UNK        -0.2604 
     58 C58       -52.2713  -25.6872    7.0337 C.3       14 UNK         0.0134 
     59 N         -49.1471  -24.7717   10.5372 N.am      6 UNK        -0.4116 
     60 C         -48.8153  -25.1998   11.7669 C.2       5 UNK         0.5034 
     61 O         -49.6284  -25.3940   12.6706 O.2       5 UNK        -0.5045 
     62 CA        -47.3267  -25.4708   12.0491 C.3       5 UNK         0.0224 
     63 CB        -47.0223  -26.9671   11.8623 C.3       5 UNK        -0.1978 
     64 N         -46.4180  -24.6915   11.2062 N.am      5 UNK        -0.4737 
     65 C         -46.3138  -23.3552   11.1997 C.2       4 UNK         0.5027 
     66 O         -46.8726  -22.6274   12.0196 O.2       4 UNK        -0.5211 
     67 CA        -45.4593  -22.7152   10.0853 C.3       4 UNK         0.0297 
     68 CB        -44.2190  -22.0301   10.6838 C.3       4 UNK        -0.1993 
     69 N         -45.0266  -23.6359    9.0240 N.am      4 UNK        -0.4486 
     70 C         -45.8243  -24.3004    8.1767 C.2       3 UNK         0.4961 
     71 O         -47.0575  -24.2493    8.2016 O.2       3 UNK        -0.5105 
     72 CA        -45.1102  -25.2288    7.1884 C.3       3 UNK         0.0299 
     73 CB        -44.5953  -26.4934    7.9054 C.3       3 UNK        -0.1972 
     74 N         -46.0307  -25.6115    6.1240 N.am      3 UNK        -0.4305 
     75 C         -45.6860  -26.0696    4.9158 C.2       2 UNK         0.5006 
     76 O         -44.5186  -26.1759    4.5342 O.2       2 UNK        -0.5106 
     77 CA        -46.8418  -26.5314    4.0053 C.3       2 UNK         0.0296 
     78 CB        -46.3708  -26.9142    2.5893 C.3       2 UNK        -0.2002 
     79 N         -47.5416  -27.6747    4.5974 N.am      2 UNK        -0.4032 
     80 C         -48.4409  -27.5919    5.5879 C.2       1 UNK         0.5000 
     81 O         -48.8220  -26.5186    6.0586 O.2       1 UNK        -0.5238 
     82 H82       -48.4475  -32.1701    3.9142 H         1 UNK         0.0889 
     83 H83       -48.8626  -31.3312    2.4179 H         1 UNK         0.0889 
     84 H84       -50.1154  -32.1680    3.3388 H         1 UNK         0.0889 
     85 H85       -48.1548  -30.7687    5.6357 H         1 UNK         0.3028 
     86 H86       -50.0500  -28.7551    6.3315 H         1 UNK         0.0864 
     87 H87       -47.3077  -29.5033    7.4729 H         1 UNK         0.0720 
     88 H88       -48.2451  -28.2143    8.1544 H         1 UNK         0.0720 
     89 H89       -49.3488  -28.5294   10.1894 H         1 UNK         0.0814 
     90 H90       -50.2937  -29.8950   10.7017 H         1 UNK         0.0814 
     91 H91       -50.2609  -27.1145    8.1761 H         1 UNK         0.1469 
     92 H92       -54.5305  -26.8358    8.0526 H         1 UNK         0.1381 
     93 H93       -52.6510  -29.9236   10.3598 H         1 UNK         0.1206 
     94 H94       -55.7808  -29.0042    8.8996 H         1 UNK         0.0813 
     95 H95       -55.0166  -29.8843   10.2049 H         1 UNK         0.0813 
     96 H96       -56.9093  -29.7652   11.6208 H         1 UNK         0.0638 
     97 H97       -58.0375  -28.5818   11.0009 H         1 UNK         0.0638 
     98 H98       -57.8087  -27.2414   13.0830 H         1 UNK         0.0568 
     99 H99       -57.7768  -30.0779   15.0707 H         1 UNK         0.3450 
    100 H100      -59.4903  -30.3964   14.9550 H         1 UNK         0.3450 
    101 H101      -55.5744  -28.9716   13.6803 H         1 UNK         0.2987 
    102 H102      -54.7737  -27.1189   16.6097 H         1 UNK         0.0766 
    103 H103      -54.0153  -29.3426   17.3938 H         1 UNK         0.0798 
    104 H104      -55.0167  -30.1432   16.1851 H         1 UNK         0.0798 
    105 H105      -55.7652  -29.2183   17.4778 H         1 UNK         0.0798 
    106 H106      -53.0739  -27.1082   15.2507 H         1 UNK         0.3198 
    107 H107      -51.6651  -29.2799   12.8122 H         1 UNK         0.0843 
    108 H108      -52.2917  -26.2862   12.9992 H         1 UNK         0.0831 
    109 H109      -53.0588  -27.3614   11.8479 H         1 UNK         0.0831 
    110 H110      -51.3258  -27.1256   11.7854 H         1 UNK         0.0831 
    111 H111      -50.8597  -27.1316   14.6754 H         1 UNK         0.3133 
    112 H112      -48.9574  -29.3196   16.7386 H         1 UNK         0.0566 
    113 H113      -47.1060  -27.7736   16.2132 H         1 UNK         0.0814 
    114 H114      -47.3940  -28.8135   14.8286 H         1 UNK         0.0814 
    115 H115      -47.9690  -27.1508   14.8077 H         1 UNK         0.0814 
    116 H116      -49.3386  -26.4755   16.7013 H         1 UNK         0.3091 
    117 H117      -52.4386  -26.2894   18.2801 H         1 UNK         0.0702 
    118 H118      -51.3233  -25.1018   20.1513 H         1 UNK         0.0785 
    119 H119      -49.7721  -25.8284   19.7267 H         1 UNK         0.0785 
    120 H120      -51.0889  -26.8330   20.3166 H         1 UNK         0.0785 
    121 H121      -50.5116  -24.2631   17.9134 H         1 UNK         0.2998 
    122 H122      -51.2492  -22.6559   16.1082 H         1 UNK         0.0697 
    123 H123      -49.0006  -24.4144   14.9761 H         1 UNK         0.0825 
    124 H124      -48.9354  -23.3766   16.3900 H         1 UNK         0.0825 
    125 H125      -49.0424  -22.6650   14.7915 H         1 UNK         0.0825 
    126 H126      -51.0650  -24.0118   13.4609 H         1 UNK         0.3029 
    127 H127      -54.1035  -23.4872   12.5467 H         1 UNK         0.0897 
    128 H128      -54.0158  -21.6839   10.8034 H         1 UNK         0.0792 
    129 H129      -52.7377  -20.8770   11.7119 H         1 UNK         0.0792 
    130 H130      -54.3395  -21.0491   12.4072 H         1 UNK         0.0792 
    131 H131      -52.7463  -24.5866   11.2338 H         1 UNK         0.3086 
    132 H132      -51.0761  -25.3691   10.2108 H         1 UNK         0.0583 
    133 H133      -50.1151  -23.0642    8.4455 H         1 UNK         0.1020 
    134 H134      -49.9105  -24.7315    8.0124 H         1 UNK         0.1020 
    135 H135      -53.1252  -25.6910    6.3547 H         1 UNK         0.0694 
    136 H136      -51.3880  -25.7859    6.4015 H         1 UNK         0.0694 
    137 H137      -48.4049  -24.6060    9.8676 H         1 UNK         0.2989 
    138 H138      -47.1409  -25.2001   13.0907 H         1 UNK         0.1055 
    139 H139      -47.7183  -27.5860   12.4302 H         1 UNK         0.0806 
    140 H140      -46.0173  -27.2131   12.2056 H         1 UNK         0.0806 
    141 H141      -47.1044  -27.2691   10.8174 H         1 UNK         0.0806 
    142 H142      -45.9037  -25.1999   10.5026 H         1 UNK         0.3061 
    143 H143      -46.0803  -21.9483    9.6176 H         1 UNK         0.0734 
    144 H144      -43.6556  -21.4895    9.9230 H         1 UNK         0.0832 
    145 H145      -44.5024  -21.3040   11.4473 H         1 UNK         0.0832 
    146 H146      -43.5479  -22.7500   11.1539 H         1 UNK         0.0832 
    147 H147      -44.0283  -23.7637    8.9331 H         1 UNK         0.3156 
    148 H148      -44.2701  -24.6822    6.7545 H         1 UNK         0.0589 
    149 H149      -45.4131  -27.0684    8.3421 H         1 UNK         0.0808 
    150 H150      -44.0590  -27.1491    7.2192 H         1 UNK         0.0808 
    151 H151      -43.9033  -26.2433    8.7103 H         1 UNK         0.0808 
    152 H152      -47.0176  -25.5372    6.3617 H         1 UNK         0.3098 
    153 H153      -47.5380  -25.6953    3.9089 H         1 UNK         0.0720 
    154 H154      -47.2125  -27.1884    1.9530 H         1 UNK         0.0791 
    155 H155      -45.6752  -27.7544    2.6057 H         1 UNK         0.0791 
    156 H156      -45.8617  -26.0779    2.1082 H         1 UNK         0.0791 
    157 H157      -47.2578  -28.5923    4.2871 H         1 UNK         0.3028 
@<TRIPOS>BOND
     1    1    2 1    
     2    1   82 1    
     3    1   83 1    
     4    1   84 1    
     5    2    3 2    
     6    2    4 am   BACKBONE|DICT|INTERRES
     7    4    5 1    
     8    4   85 1    
     9    5    6 1    
    10    5   80 1    
    11    5   86 1    
    12    6    7 1    
    13    6   87 1    
    14    6   88 1    
    15    7    8 1    
    16    8    9 1    
    17    8   89 1    
    18    8   90 1    
    19    9   10 ar   
    20    9   14 ar   
    21   10   11 ar   
    22   10   91 1    
    23   11   12 ar   
    24   11   58 1    
    25   12   13 ar   
    26   12   92 1    
    27   13   14 ar   
    28   13   15 1    
    29   14   93 1    
    30   15   16 1    
    31   15   94 1    
    32   15   95 1    
    33   16   17 1    
    34   17   18 1    
    35   17   96 1    
    36   17   97 1    
    37   18   19 1    
    38   18   22 1    
    39   18   98 1    
    40   19   20 am   BACKBONE|DICT|INTERRES
    41   19   21 2    
    42   20   99 1    
    43   20  100 1    
    44   22   23 am   BACKBONE|DICT|INTERRES
    45   22  101 1    
    46   23   24 2    
    47   23   25 1    
    48   25   26 1    
    49   25   27 1    
    50   25  102 1    
    51   26  103 1    
    52   26  104 1    
    53   26  105 1    
    54   27   28 am   BACKBONE|DICT|INTERRES
    55   27  106 1    
    56   28   29 2    
    57   28   30 1    
    58   30   31 1    
    59   30   32 1    
    60   30  107 1    
    61   31  108 1    
    62   31  109 1    
    63   31  110 1    
    64   32   33 am   BACKBONE|DICT|INTERRES
    65   32  111 1    
    66   33   34 2    
    67   33   35 1    
    68   35   36 1    
    69   35   37 1    
    70   35  112 1    
    71   36  113 1    
    72   36  114 1    
    73   36  115 1    
    74   37   38 am   BACKBONE|DICT|INTERRES
    75   37  116 1    
    76   38   39 2    
    77   38   40 1    
    78   40   41 1    
    79   40   42 1    
    80   40  117 1    
    81   41  118 1    
    82   41  119 1    
    83   41  120 1    
    84   42   43 am   BACKBONE|DICT|INTERRES
    85   42  121 1    
    86   43   44 2    
    87   43   45 1    
    88   45   46 1    
    89   45   47 1    
    90   45  122 1    
    91   46  123 1    
    92   46  124 1    
    93   46  125 1    
    94   47   48 am   BACKBONE|DICT|INTERRES
    95   47  126 1    
    96   48   49 2    
    97   48   50 1    
    98   50   51 1    
    99   50   52 1    
   100   50  127 1    
   101   51  128 1    
   102   51  129 1    
   103   51  130 1    
   104   52   53 am   BACKBONE|DICT|INTERRES
   105   52  131 1    
   106   53   54 2    
   107   53   55 1    
   108   55   56 1    
   109   55   59 1    
   110   55  132 1    
   111   56   57 1    
   112   56  133 1    
   113   56  134 1    
   114   57   58 1    
   115   58  135 1    
   116   58  136 1    
   117   59   60 am   BACKBONE|DICT|INTERRES
   118   59  137 1    
   119   60   61 2    
   120   60   62 1    
   121   62   63 1    
   122   62   64 1    
   123   62  138 1    
   124   63  139 1    
   125   63  140 1    
   126   63  141 1    
   127   64   65 am   BACKBONE|DICT|INTERRES
   128   64  142 1    
   129   65   66 2    
   130   65   67 1    
   131   67   68 1    
   132   67   69 1    
   133   67  143 1    
   134   68  144 1    
   135   68  145 1    
   136   68  146 1    
   137   69   70 am   BACKBONE|DICT|INTERRES
   138   69  147 1    
   139   70   71 2    
   140   70   72 1    
   141   72   73 1    
   142   72   74 1    
   143   72  148 1    
   144   73  149 1    
   145   73  150 1    
   146   73  151 1    
   147   74   75 am   BACKBONE|DICT|INTERRES
   148   74  152 1    
   149   75   76 2    
   150   75   77 1    
   151   77   78 1    
   152   77   79 1    
   153   77  153 1    
   154   78  154 1    
   155   78  155 1    
   156   78  156 1    
   157   79   80 am   BACKBONE|DICT|INTERRES
   158   79  157 1    
   159   80   81 2    
@<TRIPOS>SUBSTRUCTURE
     1 UNK         1 GROUP             0       ****    0 ROOT    
