@<TRIPOS>MOLECULE
3R207
157   159    1
SMALL
USER_CHARGES


@<TRIPOS>ATOM
      1 CA        -50.9471  -24.7462    1.8460 C.3       0 UNK        -0.1975 
      2 C         -50.3906  -26.1378    2.1379 C.2       0 UNK         0.4852 
      3 O         -49.5472  -26.6186    1.3833 O.2       0 UNK        -0.5216 
      4 N         -50.8219  -26.8281    3.2054 N.am      1 UNK        -0.4461 
      5 CA        -51.7862  -26.3862    4.2240 C.3       1 UNK         0.0864 
      6 C6        -52.3518  -27.5976    5.0096 C.3       14 UNK        -0.0898 
      7 S7        -54.0317  -27.3099    5.6686 S.3       14 UNK        -0.2598 
      8 C8        -53.7300  -27.0767    7.4516 C.3       14 UNK         0.0286 
      9 C9        -53.3400  -28.3776    8.1381 C.ar      14 UNK        -0.0844 
     10 C10       -51.9973  -28.6621    8.3970 C.ar      14 UNK        -0.0881 
     11 C11       -51.6303  -29.8604    9.0144 C.ar      14 UNK        -0.0643 
     12 C12       -52.6195  -30.7764    9.3840 C.ar      14 UNK        -0.0930 
     13 C13       -53.9686  -30.4980    9.1435 C.ar      14 UNK        -0.0827 
     14 C14       -54.3216  -29.2977    8.5178 C.ar      14 UNK        -0.1249 
     15 C15       -55.0478  -31.5007    9.5252 C.3       14 UNK         0.0141 
     16 S16       -55.9820  -30.9614   10.9938 S.3       14 UNK        -0.2313 
     17 C17       -55.3982  -32.0913   12.3086 C.3       14 UNK        -0.0915 
     18 CA        -54.4741  -31.4326   13.3693 C.3       13 UNK         0.0968 
     19 C         -53.0059  -31.2909   12.8736 C.2       13 UNK         0.5732 
     20 N         -52.4222  -30.0992   12.8427 N.am      13 UNK        -0.7310 
     21 O         -52.3796  -32.2893   12.5266 O.2       13 UNK        -0.5035 
     22 N         -55.0655  -30.2031   13.9184 N.am      13 UNK        -0.4233 
     23 C         -54.7964  -29.6807   15.1189 C.2       13 UNK         0.4989 
     24 O         -54.0633  -30.2177   15.9511 O.2       13 UNK        -0.4996 
     25 CA        -55.4289  -28.3064   15.4117 C.3       12 UNK         0.0216 
     26 CB        -55.3120  -27.9081   16.8942 C.3       12 UNK        -0.1964 
     27 N         -54.8200  -27.2650   14.5768 N.am      12 UNK        -0.4276 
     28 C         -55.0961  -27.0721   13.2772 C.2       12 UNK         0.5020 
     29 O         -55.9561  -27.7192   12.6771 O.2       12 UNK        -0.5489 
     30 CA        -54.2514  -26.0410   12.5018 C.3       11 UNK         0.0294 
     31 CB        -55.0209  -25.3925   11.3317 C.3       11 UNK        -0.2019 
     32 N         -53.6131  -25.0277   13.3480 N.am      11 UNK        -0.4493 
     33 C         -54.2056  -24.0886   14.1002 C.2       11 UNK         0.4932 
     34 O         -55.4250  -23.9223   14.1579 O.2       11 UNK        -0.5029 
     35 CA        -53.2647  -23.1968   14.9380 C.3       10 UNK         0.0280 
     36 CB        -53.9977  -22.4504   16.0728 C.3       10 UNK        -0.1976 
     37 N         -52.0938  -23.9140   15.4627 N.am      10 UNK        -0.4242 
     38 C         -52.0984  -24.9906   16.2668 C.2       10 UNK         0.5072 
     39 O         -53.1332  -25.5225   16.6681 O.2       10 UNK        -0.5224 
     40 CA        -50.7481  -25.6187   16.6730 C.3       9 UNK         0.0343 
     41 CB        -50.7227  -27.1196   16.3313 C.3       9 UNK        -0.2003 
     42 N         -49.5855  -24.9741   16.0578 N.am      9 UNK        -0.4272 
     43 C         -49.0175  -23.8357   16.4786 C.2       9 UNK         0.4988 
     44 O         -49.3619  -23.2333   17.4955 O.2       9 UNK        -0.5108 
     45 CA        -47.9103  -23.2418   15.5872 C.3       8 UNK         0.0248 
     46 CB        -46.5367  -23.8091   15.9785 C.3       8 UNK        -0.2001 
     47 N         -48.1448  -23.4533   14.1531 N.am      8 UNK        -0.4140 
     48 C         -49.2017  -22.9755   13.4772 C.2       8 UNK         0.5028 
     49 O         -50.0646  -22.2559   13.9803 O.2       8 UNK        -0.5428 
     50 CA        -49.3714  -23.4363   12.0203 C.3       7 UNK         0.0264 
     51 CB        -48.4385  -22.6593   11.0781 C.3       7 UNK        -0.1988 
     52 N         -49.1522  -24.8753   11.8636 N.am      7 UNK        -0.4454 
     53 C         -49.8978  -25.8300   12.4382 C.2       7 UNK         0.5027 
     54 O         -50.9023  -25.5965   13.1083 O.2       7 UNK        -0.5083 
     55 CA        -49.4259  -27.2869   12.2860 C.3       6 UNK         0.0844 
     56 C56       -49.9791  -27.9284   10.9952 C.3       14 UNK        -0.0967 
     57 S57       -49.6312  -29.7193   10.9428 S.3       14 UNK        -0.2604 
     58 C58       -50.1613  -30.1679    9.2605 C.3       14 UNK         0.0134 
     59 N         -47.9695  -27.3868   12.3863 N.am      6 UNK        -0.4116 
     60 C         -47.2758  -27.2203   13.5192 C.2       5 UNK         0.5034 
     61 O         -47.7896  -26.9788   14.6111 O.2       5 UNK        -0.5045 
     62 CA        -45.7455  -27.3012   13.4015 C.3       5 UNK         0.0224 
     63 CB        -45.2769  -28.7650   13.4078 C.3       5 UNK        -0.1978 
     64 N         -45.2341  -26.6242   12.2054 N.am      5 UNK        -0.4737 
     65 C         -45.3082  -25.3013   12.0055 C.2       4 UNK         0.5027 
     66 O         -45.8007  -24.5140   12.8129 O.2       4 UNK        -0.5211 
     67 CA        -44.7818  -24.7720   10.6611 C.3       4 UNK         0.0297 
     68 CB        -43.2536  -24.6140   10.7066 C.3       4 UNK        -0.1993 
     69 N         -45.1618  -25.5781    9.4931 N.am      4 UNK        -0.4486 
     70 C         -46.4191  -25.8811    9.1442 C.2       3 UNK         0.4961 
     71 O         -47.4063  -25.6444    9.8421 O.2       3 UNK        -0.5105 
     72 CA        -46.6233  -26.5829    7.7935 C.3       3 UNK         0.0299 
     73 CB        -46.8448  -28.0885    8.0044 C.3       3 UNK        -0.1972 
     74 N         -47.7830  -26.0049    7.1066 N.am      3 UNK        -0.4305 
     75 C         -47.7879  -24.7828    6.5542 C.2       2 UNK         0.5006 
     76 O         -46.7736  -24.0952    6.4211 O.2       2 UNK        -0.5106 
     77 CA        -49.1454  -24.2470    6.0712 C.3       2 UNK         0.0296 
     78 CB        -49.0236  -22.9473    5.2463 C.3       2 UNK        -0.2002 
     79 N         -49.8688  -25.2633    5.3051 N.am      2 UNK        -0.4032 
     80 C         -51.2025  -25.3105    5.1705 C.2       1 UNK         0.5000 
     81 O         -51.9666  -24.5229    5.7298 O.2       1 UNK        -0.5238 
     82 H82       -52.0353  -24.7559    1.7989 H         1 UNK         0.0889 
     83 H83       -50.5833  -24.3871    0.8834 H         1 UNK         0.0889 
     84 H84       -50.6309  -24.0306    2.6039 H         1 UNK         0.0889 
     85 H85       -50.4451  -27.7549    3.3473 H         1 UNK         0.3028 
     86 H86       -52.6205  -25.9220    3.6951 H         1 UNK         0.0864 
     87 H87       -51.6669  -27.9195    5.7931 H         1 UNK         0.0720 
     88 H88       -52.4456  -28.4567    4.3432 H         1 UNK         0.0720 
     89 H89       -54.6376  -26.6837    7.9122 H         1 UNK         0.0814 
     90 H90       -52.9638  -26.3146    7.6003 H         1 UNK         0.0814 
     91 H91       -51.2336  -27.9521    8.1132 H         1 UNK         0.1469 
     92 H92       -52.3359  -31.7045    9.8611 H         1 UNK         0.1381 
     93 H93       -55.3632  -29.0820    8.3216 H         1 UNK         0.1206 
     94 H94       -55.7446  -31.6047    8.6923 H         1 UNK         0.0813 
     95 H95       -54.6193  -32.4917    9.6789 H         1 UNK         0.0813 
     96 H96       -54.9305  -32.9756   11.8731 H         1 UNK         0.0638 
     97 H97       -56.2904  -32.4663   12.8120 H         1 UNK         0.0638 
     98 H98       -54.4103  -32.1431   14.1956 H         1 UNK         0.0568 
     99 H99       -52.9240  -29.2789   13.1325 H         1 UNK         0.3450 
    100 H100      -51.4789  -30.0330   12.4914 H         1 UNK         0.3450 
    101 H101      -55.6180  -29.6500   13.2699 H         1 UNK         0.2987 
    102 H102      -56.4928  -28.3732   15.1733 H         1 UNK         0.0766 
    103 H103      -55.8186  -28.6326   17.5329 H         1 UNK         0.0798 
    104 H104      -55.7665  -26.9350   17.0815 H         1 UNK         0.0798 
    105 H105      -54.2726  -27.8588   17.2209 H         1 UNK         0.0798 
    106 H106      -54.1234  -26.6795   15.0238 H         1 UNK         0.3198 
    107 H107      -53.4307  -26.6121   12.0649 H         1 UNK         0.0843 
    108 H108      -55.9067  -24.8583   11.6760 H         1 UNK         0.0831 
    109 H109      -55.3548  -26.1474   10.6185 H         1 UNK         0.0831 
    110 H110      -54.3933  -24.6891   10.7849 H         1 UNK         0.0831 
    111 H111      -52.5945  -25.0916   13.3822 H         1 UNK         0.3133 
    112 H112      -52.8734  -22.4458   14.2505 H         1 UNK         0.0566 
    113 H113      -54.4660  -23.1413   16.7748 H         1 UNK         0.0814 
    114 H114      -54.7844  -21.8081   15.6753 H         1 UNK         0.0814 
    115 H115      -53.3142  -21.8133   16.6341 H         1 UNK         0.0814 
    116 H116      -51.2000  -23.5577   15.1409 H         1 UNK         0.3091 
    117 H117      -50.6652  -25.5206   17.7572 H         1 UNK         0.0702 
    118 H118      -49.7785  -27.5785   16.6254 H         1 UNK         0.0785 
    119 H119      -50.8603  -27.2921   15.2642 H         1 UNK         0.0785 
    120 H120      -51.5174  -27.6566   16.8511 H         1 UNK         0.0785 
    121 H121      -49.1977  -25.4332   15.2420 H         1 UNK         0.2998 
    122 H122      -47.8939  -22.1638   15.7598 H         1 UNK         0.0697 
    123 H123      -45.7357  -23.3334   15.4123 H         1 UNK         0.0825 
    124 H124      -46.4777  -24.8832   15.8011 H         1 UNK         0.0825 
    125 H125      -46.3306  -23.6404   17.0363 H         1 UNK         0.0825 
    126 H126      -47.4435  -23.9935   13.6506 H         1 UNK         0.3029 
    127 H127      -50.4021  -23.2269   11.7258 H         1 UNK         0.0897 
    128 H128      -47.3887  -22.8315   11.3151 H         1 UNK         0.0792 
    129 H129      -48.6179  -21.5858   11.1497 H         1 UNK         0.0792 
    130 H130      -48.5963  -22.9471   10.0383 H         1 UNK         0.0792 
    131 H131      -48.3793  -25.1571   11.2608 H         1 UNK         0.3086 
    132 H132      -49.8477  -27.8393   13.1286 H         1 UNK         0.0583 
    133 H133      -51.0614  -27.7932   10.9429 H         1 UNK         0.1020 
    134 H134      -49.5601  -27.4472   10.1097 H         1 UNK         0.1020 
    135 H135      -49.5392  -29.6522    8.5290 H         1 UNK         0.0694 
    136 H136      -49.9805  -31.2333    9.1104 H         1 UNK         0.0694 
    137 H137      -47.4663  -27.5371   11.5250 H         1 UNK         0.2989 
    138 H138      -45.3241  -26.8024   14.2775 H         1 UNK         0.1055 
    139 H139      -45.6334  -29.2835   14.2991 H         1 UNK         0.0806 
    140 H140      -44.1888  -28.8332   13.4097 H         1 UNK         0.0806 
    141 H141      -45.6472  -29.3150   12.5416 H         1 UNK         0.0806 
    142 H142      -44.8162  -27.1979   11.4870 H         1 UNK         0.3061 
    143 H143      -45.2160  -23.7806   10.5164 H         1 UNK         0.0734 
    144 H144      -42.7484  -25.5764   10.7976 H         1 UNK         0.0832 
    145 H145      -42.8777  -24.1197    9.8106 H         1 UNK         0.0832 
    146 H146      -42.9499  -24.0053   11.5596 H         1 UNK         0.0832 
    147 H147      -44.4155  -25.8299    8.8605 H         1 UNK         0.3156 
    148 H148      -45.7382  -26.4426    7.1692 H         1 UNK         0.0589 
    149 H149      -47.0551  -28.5982    7.0640 H         1 UNK         0.0808 
    150 H150      -47.6716  -28.2821    8.6870 H         1 UNK         0.0808 
    151 H151      -45.9573  -28.5553    8.4336 H         1 UNK         0.0808 
    152 H152      -48.6621  -26.4861    7.2203 H         1 UNK         0.3098 
    153 H153      -49.7118  -24.0200    6.9772 H         1 UNK         0.0720 
    154 H154      -48.5074  -22.1696    5.8107 H         1 UNK         0.0791 
    155 H155      -50.0027  -22.5493    4.9797 H         1 UNK         0.0791 
    156 H156      -48.4652  -23.1095    4.3237 H         1 UNK         0.0791 
    157 H157      -49.3026  -25.9417    4.8129 H         1 UNK         0.3028 
@<TRIPOS>BOND
     1    1    2 1    
     2    1   82 1    
     3    1   83 1    
     4    1   84 1    
     5    2    3 2    
     6    2    4 am   BACKBONE|DICT|INTERRES
     7    4    5 1    
     8    4   85 1    
     9    5    6 1    
    10    5   80 1    
    11    5   86 1    
    12    6    7 1    
    13    6   87 1    
    14    6   88 1    
    15    7    8 1    
    16    8    9 1    
    17    8   89 1    
    18    8   90 1    
    19    9   10 ar   
    20    9   14 ar   
    21   10   11 ar   
    22   10   91 1    
    23   11   12 ar   
    24   11   58 1    
    25   12   13 ar   
    26   12   92 1    
    27   13   14 ar   
    28   13   15 1    
    29   14   93 1    
    30   15   16 1    
    31   15   94 1    
    32   15   95 1    
    33   16   17 1    
    34   17   18 1    
    35   17   96 1    
    36   17   97 1    
    37   18   19 1    
    38   18   22 1    
    39   18   98 1    
    40   19   20 am   BACKBONE|DICT|INTERRES
    41   19   21 2    
    42   20   99 1    
    43   20  100 1    
    44   22   23 am   BACKBONE|DICT|INTERRES
    45   22  101 1    
    46   23   24 2    
    47   23   25 1    
    48   25   26 1    
    49   25   27 1    
    50   25  102 1    
    51   26  103 1    
    52   26  104 1    
    53   26  105 1    
    54   27   28 am   BACKBONE|DICT|INTERRES
    55   27  106 1    
    56   28   29 2    
    57   28   30 1    
    58   30   31 1    
    59   30   32 1    
    60   30  107 1    
    61   31  108 1    
    62   31  109 1    
    63   31  110 1    
    64   32   33 am   BACKBONE|DICT|INTERRES
    65   32  111 1    
    66   33   34 2    
    67   33   35 1    
    68   35   36 1    
    69   35   37 1    
    70   35  112 1    
    71   36  113 1    
    72   36  114 1    
    73   36  115 1    
    74   37   38 am   BACKBONE|DICT|INTERRES
    75   37  116 1    
    76   38   39 2    
    77   38   40 1    
    78   40   41 1    
    79   40   42 1    
    80   40  117 1    
    81   41  118 1    
    82   41  119 1    
    83   41  120 1    
    84   42   43 am   BACKBONE|DICT|INTERRES
    85   42  121 1    
    86   43   44 2    
    87   43   45 1    
    88   45   46 1    
    89   45   47 1    
    90   45  122 1    
    91   46  123 1    
    92   46  124 1    
    93   46  125 1    
    94   47   48 am   BACKBONE|DICT|INTERRES
    95   47  126 1    
    96   48   49 2    
    97   48   50 1    
    98   50   51 1    
    99   50   52 1    
   100   50  127 1    
   101   51  128 1    
   102   51  129 1    
   103   51  130 1    
   104   52   53 am   BACKBONE|DICT|INTERRES
   105   52  131 1    
   106   53   54 2    
   107   53   55 1    
   108   55   56 1    
   109   55   59 1    
   110   55  132 1    
   111   56   57 1    
   112   56  133 1    
   113   56  134 1    
   114   57   58 1    
   115   58  135 1    
   116   58  136 1    
   117   59   60 am   BACKBONE|DICT|INTERRES
   118   59  137 1    
   119   60   61 2    
   120   60   62 1    
   121   62   63 1    
   122   62   64 1    
   123   62  138 1    
   124   63  139 1    
   125   63  140 1    
   126   63  141 1    
   127   64   65 am   BACKBONE|DICT|INTERRES
   128   64  142 1    
   129   65   66 2    
   130   65   67 1    
   131   67   68 1    
   132   67   69 1    
   133   67  143 1    
   134   68  144 1    
   135   68  145 1    
   136   68  146 1    
   137   69   70 am   BACKBONE|DICT|INTERRES
   138   69  147 1    
   139   70   71 2    
   140   70   72 1    
   141   72   73 1    
   142   72   74 1    
   143   72  148 1    
   144   73  149 1    
   145   73  150 1    
   146   73  151 1    
   147   74   75 am   BACKBONE|DICT|INTERRES
   148   74  152 1    
   149   75   76 2    
   150   75   77 1    
   151   77   78 1    
   152   77   79 1    
   153   77  153 1    
   154   78  154 1    
   155   78  155 1    
   156   78  156 1    
   157   79   80 am   BACKBONE|DICT|INTERRES
   158   79  157 1    
   159   80   81 2    
@<TRIPOS>SUBSTRUCTURE
     1 UNK         1 GROUP             0       ****    0 ROOT    
