@<TRIPOS>MOLECULE
3R207
157   159    1
SMALL
USER_CHARGES


@<TRIPOS>ATOM
      1 CA        -50.1692  -30.9159    2.9100 C.3       0 UNK        -0.1975 
      2 C         -49.2223  -29.8112    3.3549 C.2       0 UNK         0.4852 
      3 O         -48.1569  -29.6424    2.7609 O.2       0 UNK        -0.5216 
      4 N         -49.6014  -29.0602    4.3982 N.am      1 UNK        -0.4461 
      5 CA        -48.8235  -27.9425    4.9527 C.3       1 UNK         0.0864 
      6 C6        -49.6910  -27.0071    5.8317 C.3       14 UNK        -0.0898 
      7 S7        -51.0417  -26.2210    4.8908 S.3       14 UNK        -0.2598 
      8 C8        -52.5120  -27.0961    5.5164 C.3       14 UNK         0.0286 
      9 C9        -52.8489  -26.7049    6.9483 C.ar      14 UNK        -0.0844 
     10 C10       -53.4361  -25.4649    7.2156 C.ar      14 UNK        -0.0881 
     11 C11       -53.7728  -25.1051    8.5239 C.ar      14 UNK        -0.0643 
     12 C12       -53.5296  -26.0008    9.5681 C.ar      14 UNK        -0.0930 
     13 C13       -52.9268  -27.2358    9.3158 C.ar      14 UNK        -0.0827 
     14 C14       -52.5914  -27.5845    8.0042 C.ar      14 UNK        -0.1249 
     15 C15       -52.6141  -28.1847   10.4596 C.3       14 UNK         0.0141 
     16 S16       -53.7929  -29.5670   10.5230 S.3       14 UNK        -0.2313 
     17 C17       -53.0231  -30.5961   11.8171 C.3       14 UNK        -0.0915 
     18 CA        -53.9824  -30.9480   12.9840 C.3       13 UNK         0.0968 
     19 C         -53.2727  -31.8648   14.0226 C.2       13 UNK         0.5732 
     20 N         -53.0205  -31.4123   15.2463 N.am      13 UNK        -0.7310 
     21 O         -52.9525  -33.0098   13.7125 O.2       13 UNK        -0.5035 
     22 N         -54.6214  -29.7610   13.5787 N.am      13 UNK        -0.4233 
     23 C         -55.7836  -29.8006   14.2452 C.2       13 UNK         0.4989 
     24 O         -56.4664  -30.8199   14.3598 O.2       13 UNK        -0.4996 
     25 CA        -56.2807  -28.5086   14.9112 C.3       12 UNK         0.0216 
     26 CB        -56.2512  -28.6550   16.4431 C.3       12 UNK        -0.1964 
     27 N         -55.4812  -27.3374   14.5505 N.am      12 UNK        -0.4276 
     28 C         -55.9124  -26.2977   13.8225 C.2       12 UNK         0.5020 
     29 O         -57.0077  -26.2699   13.2584 O.2       12 UNK        -0.5489 
     30 CA        -54.9694  -25.0775   13.7079 C.3       11 UNK         0.0294 
     31 CB        -55.7335  -23.7421   13.5955 C.3       11 UNK        -0.2019 
     32 N         -53.9575  -25.0100   14.7700 N.am      11 UNK        -0.4493 
     33 C         -54.1583  -24.9589   16.0965 C.2       11 UNK         0.4932 
     34 O         -55.2639  -24.7913   16.6127 O.2       11 UNK        -0.5029 
     35 CA        -52.9264  -25.1803   17.0012 C.3       10 UNK         0.0280 
     36 CB        -53.3032  -25.8911   18.3180 C.3       10 UNK        -0.1976 
     37 N         -51.8034  -25.8845   16.3619 N.am      10 UNK        -0.4242 
     38 C         -51.8083  -27.0909   15.7655 C.2       10 UNK         0.5072 
     39 O         -52.8239  -27.7759   15.6130 O.2       10 UNK        -0.5224 
     40 CA        -50.4622  -27.5990   15.2142 C.3       9 UNK         0.0343 
     41 CB        -50.6347  -28.4924   13.9764 C.3       9 UNK        -0.2003 
     42 N         -49.5861  -26.4803   14.8689 N.am      9 UNK        -0.4272 
     43 C         -48.3733  -26.2542   15.3920 C.2       9 UNK         0.4988 
     44 O         -47.7989  -27.0282   16.1584 O.2       9 UNK        -0.5108 
     45 CA        -47.6910  -24.9211   15.0294 C.3       8 UNK         0.0248 
     46 CB        -46.6424  -25.1352   13.9289 C.3       8 UNK        -0.2001 
     47 N         -48.6305  -23.8746   14.6114 N.am      8 UNK        -0.4140 
     48 C         -49.5627  -23.3296   15.4080 C.2       8 UNK         0.5028 
     49 O         -49.7171  -23.6437   16.5885 O.2       8 UNK        -0.5428 
     50 CA        -50.5275  -22.3086   14.7825 C.3       7 UNK         0.0264 
     51 CB        -50.0375  -20.8769   15.0504 C.3       7 UNK        -0.1988 
     52 N         -50.7504  -22.4806   13.3442 N.am      7 UNK        -0.4454 
     53 C         -51.2713  -23.5688   12.7570 C.2       7 UNK         0.5027 
     54 O         -51.5607  -24.6051   13.3591 O.2       7 UNK        -0.5083 
     55 CA        -51.4720  -23.4834   11.2305 C.3       6 UNK         0.0844 
     56 C56       -52.7896  -22.7269   10.9180 C.3       14 UNK        -0.0967 
     57 S57       -53.1129  -22.4940    9.1355 S.3       14 UNK        -0.2604 
     58 C58       -54.3927  -23.7458    8.8032 C.3       14 UNK         0.0134 
     59 N         -50.3088  -22.9103   10.5394 N.am      6 UNK        -0.4116 
     60 C         -49.0656  -23.4065   10.5937 C.2       5 UNK         0.5034 
     61 O         -48.7355  -24.3592   11.3032 O.2       5 UNK        -0.5045 
     62 CA        -48.0030  -22.7079    9.7408 C.3       5 UNK         0.0224 
     63 CB        -47.3369  -21.5646   10.5244 C.3       5 UNK        -0.1978 
     64 N         -46.9983  -23.7023    9.3805 N.am      5 UNK        -0.4737 
     65 C         -46.3871  -23.8180    8.1997 C.2       4 UNK         0.5027 
     66 O         -46.5147  -23.0025    7.2862 O.2       4 UNK        -0.5211 
     67 CA        -45.5113  -25.0651    7.9742 C.3       4 UNK         0.0297 
     68 CB        -44.0664  -24.8340    8.4583 C.3       4 UNK        -0.1993 
     69 N         -46.0859  -26.3108    8.5093 N.am      4 UNK        -0.4486 
     70 C         -46.2452  -26.6879    9.7892 C.2       3 UNK         0.4961 
     71 O         -45.8589  -26.0163   10.7440 O.2       3 UNK        -0.5105 
     72 CA        -46.9918  -28.0085   10.0719 C.3       3 UNK         0.0299 
     73 CB        -48.3858  -27.7211   10.6598 C.3       3 UNK        -0.1972 
     74 N         -47.1452  -28.8633    8.8928 N.am      3 UNK        -0.4305 
     75 C         -46.1607  -29.5697    8.3189 C.2       2 UNK         0.5006 
     76 O         -45.0205  -29.6530    8.7762 O.2       2 UNK        -0.5106 
     77 CA        -46.4945  -30.2828    6.9935 C.3       2 UNK         0.0296 
     78 CB        -46.8343  -31.7603    7.2488 C.3       2 UNK        -0.2002 
     79 N         -47.5827  -29.6631    6.2245 N.am      2 UNK        -0.4032 
     80 C         -47.5840  -28.4080    5.7457 C.2       1 UNK         0.5000 
     81 O         -46.6663  -27.6095    5.9399 O.2       1 UNK        -0.5238 
     82 H82       -50.4673  -30.7587    1.8737 H         1 UNK         0.0889 
     83 H83       -51.0718  -30.9512    3.5200 H         1 UNK         0.0889 
     84 H84       -49.6747  -31.8844    2.9793 H         1 UNK         0.0889 
     85 H85       -50.4947  -29.2343    4.8342 H         1 UNK         0.3028 
     86 H86       -48.4451  -27.3538    4.1137 H         1 UNK         0.0864 
     87 H87       -50.0935  -27.5456    6.6903 H         1 UNK         0.0720 
     88 H88       -49.0840  -26.1984    6.2446 H         1 UNK         0.0720 
     89 H89       -52.3647  -28.1733    5.4317 H         1 UNK         0.0814 
     90 H90       -53.3601  -26.8577    4.8727 H         1 UNK         0.0814 
     91 H91       -53.6246  -24.7761    6.4031 H         1 UNK         0.1469 
     92 H92       -53.7924  -25.7274   10.5791 H         1 UNK         0.1381 
     93 H93       -52.1343  -28.5450    7.8090 H         1 UNK         0.1206 
     94 H94       -51.6007  -28.5712   10.3399 H         1 UNK         0.0813 
     95 H95       -52.6360  -27.6523   11.4111 H         1 UNK         0.0813 
     96 H96       -52.1303  -30.0992   12.1943 H         1 UNK         0.0638 
     97 H97       -52.6705  -31.5091   11.3336 H         1 UNK         0.0638 
     98 H98       -54.7772  -31.5593   12.5521 H         1 UNK         0.0568 
     99 H99       -52.5667  -32.0182   15.9109 H         1 UNK         0.3450 
    100 H100      -53.2645  -30.4690   15.5051 H         1 UNK         0.3450 
    101 H101      -54.1056  -28.8962   13.5365 H         1 UNK         0.2987 
    102 H102      -57.3191  -28.3705   14.6031 H         1 UNK         0.0766 
    103 H103      -56.8643  -29.4955   16.7711 H         1 UNK         0.0798 
    104 H104      -56.6392  -27.7611   16.9323 H         1 UNK         0.0798 
    105 H105      -55.2388  -28.8236   16.8130 H         1 UNK         0.0798 
    106 H106      -54.5548  -27.2892   14.9705 H         1 UNK         0.3198 
    107 H107      -54.4147  -25.2197   12.7809 H         1 UNK         0.0843 
    108 H108      -56.3801  -23.5745   14.4573 H         1 UNK         0.0831 
    109 H109      -56.3665  -23.7262   12.7074 H         1 UNK         0.0831 
    110 H110      -55.0498  -22.8967   13.5207 H         1 UNK         0.0831 
    111 H111      -52.9966  -25.0865   14.4423 H         1 UNK         0.3133 
    112 H112      -52.5552  -24.1860   17.2530 H         1 UNK         0.0566 
    113 H113      -53.7359  -26.8753   18.1338 H         1 UNK         0.0814 
    114 H114      -54.0356  -25.3141   18.8840 H         1 UNK         0.0814 
    115 H115      -52.4332  -26.0224   18.9614 H         1 UNK         0.0814 
    116 H116      -50.9183  -25.3912   16.4136 H         1 UNK         0.3091 
    117 H117      -50.0184  -28.2025   16.0083 H         1 UNK         0.0702 
    118 H118      -49.6720  -28.8413   13.6026 H         1 UNK         0.0785 
    119 H119      -51.1344  -27.9593   13.1687 H         1 UNK         0.0785 
    120 H120      -51.2252  -29.3758   14.2169 H         1 UNK         0.0785 
    121 H121      -49.9864  -25.7850   14.2478 H         1 UNK         0.2998 
    122 H122      -47.1770  -24.5643   15.9244 H         1 UNK         0.0697 
    123 H123      -47.0970  -25.5220   13.0176 H         1 UNK         0.0825 
    124 H124      -45.8860  -25.8558   14.2427 H         1 UNK         0.0825 
    125 H125      -46.1248  -24.2092   13.6786 H         1 UNK         0.0825 
    126 H126      -48.6042  -23.6056   13.6369 H         1 UNK         0.3029 
    127 H127      -51.4927  -22.4373   15.2775 H         1 UNK         0.0897 
    128 H128      -49.0892  -20.6738   14.5510 H         1 UNK         0.0792 
    129 H129      -49.8858  -20.7094   16.1179 H         1 UNK         0.0792 
    130 H130      -50.7630  -20.1375   14.7102 H         1 UNK         0.0792 
    131 H131      -50.5243  -21.6895   12.7586 H         1 UNK         0.3086 
    132 H132      -51.5710  -24.5075   10.8674 H         1 UNK         0.0583 
    133 H133      -53.6382  -23.2395   11.3731 H         1 UNK         0.1020 
    134 H134      -52.7748  -21.7324   11.3689 H         1 UNK         0.1020 
    135 H135      -55.0975  -23.8040    9.6340 H         1 UNK         0.0694 
    136 H136      -54.9756  -23.4243    7.9387 H         1 UNK         0.0694 
    137 H137      -50.5033  -22.1310    9.9272 H         1 UNK         0.2989 
    138 H138      -48.4784  -22.3135    8.8396 H         1 UNK         0.1055 
    139 H139      -46.5709  -21.0706    9.9262 H         1 UNK         0.0806 
    140 H140      -46.8643  -21.9253   11.4393 H         1 UNK         0.0806 
    141 H141      -48.0658  -20.8046   10.8085 H         1 UNK         0.0806 
    142 H142      -46.8505  -24.4345   10.0725 H         1 UNK         0.3061 
    143 H143      -45.4666  -25.2166    6.8943 H         1 UNK         0.0734 
    144 H144      -44.0198  -24.6182    9.5259 H         1 UNK         0.0832 
    145 H145      -43.4386  -25.7033    8.2626 H         1 UNK         0.0832 
    146 H146      -43.6175  -23.9856    7.9404 H         1 UNK         0.0832 
    147 H147      -46.4271  -26.9382    7.7870 H         1 UNK         0.3156 
    148 H148      -46.4137  -28.5555   10.8196 H         1 UNK         0.0589 
    149 H149      -48.9114  -28.6422   10.9117 H         1 UNK         0.0808 
    150 H150      -49.0094  -27.1528    9.9681 H         1 UNK         0.0808 
    151 H151      -48.3101  -27.1358   11.5774 H         1 UNK         0.0808 
    152 H152      -48.0553  -28.8762    8.4576 H         1 UNK         0.3098 
    153 H153      -45.5964  -30.2417    6.3737 H         1 UNK         0.0720 
    154 H154      -46.0306  -32.2573    7.7943 H         1 UNK         0.0791 
    155 H155      -46.9714  -32.3041    6.3139 H         1 UNK         0.0791 
    156 H156      -47.7448  -31.8697    7.8394 H         1 UNK         0.0791 
    157 H157      -48.3776  -30.2485    6.0133 H         1 UNK         0.3028 
@<TRIPOS>BOND
     1    1    2 1    
     2    1   82 1    
     3    1   83 1    
     4    1   84 1    
     5    2    3 2    
     6    2    4 am   BACKBONE|DICT|INTERRES
     7    4    5 1    
     8    4   85 1    
     9    5    6 1    
    10    5   80 1    
    11    5   86 1    
    12    6    7 1    
    13    6   87 1    
    14    6   88 1    
    15    7    8 1    
    16    8    9 1    
    17    8   89 1    
    18    8   90 1    
    19    9   10 ar   
    20    9   14 ar   
    21   10   11 ar   
    22   10   91 1    
    23   11   12 ar   
    24   11   58 1    
    25   12   13 ar   
    26   12   92 1    
    27   13   14 ar   
    28   13   15 1    
    29   14   93 1    
    30   15   16 1    
    31   15   94 1    
    32   15   95 1    
    33   16   17 1    
    34   17   18 1    
    35   17   96 1    
    36   17   97 1    
    37   18   19 1    
    38   18   22 1    
    39   18   98 1    
    40   19   20 am   BACKBONE|DICT|INTERRES
    41   19   21 2    
    42   20   99 1    
    43   20  100 1    
    44   22   23 am   BACKBONE|DICT|INTERRES
    45   22  101 1    
    46   23   24 2    
    47   23   25 1    
    48   25   26 1    
    49   25   27 1    
    50   25  102 1    
    51   26  103 1    
    52   26  104 1    
    53   26  105 1    
    54   27   28 am   BACKBONE|DICT|INTERRES
    55   27  106 1    
    56   28   29 2    
    57   28   30 1    
    58   30   31 1    
    59   30   32 1    
    60   30  107 1    
    61   31  108 1    
    62   31  109 1    
    63   31  110 1    
    64   32   33 am   BACKBONE|DICT|INTERRES
    65   32  111 1    
    66   33   34 2    
    67   33   35 1    
    68   35   36 1    
    69   35   37 1    
    70   35  112 1    
    71   36  113 1    
    72   36  114 1    
    73   36  115 1    
    74   37   38 am   BACKBONE|DICT|INTERRES
    75   37  116 1    
    76   38   39 2    
    77   38   40 1    
    78   40   41 1    
    79   40   42 1    
    80   40  117 1    
    81   41  118 1    
    82   41  119 1    
    83   41  120 1    
    84   42   43 am   BACKBONE|DICT|INTERRES
    85   42  121 1    
    86   43   44 2    
    87   43   45 1    
    88   45   46 1    
    89   45   47 1    
    90   45  122 1    
    91   46  123 1    
    92   46  124 1    
    93   46  125 1    
    94   47   48 am   BACKBONE|DICT|INTERRES
    95   47  126 1    
    96   48   49 2    
    97   48   50 1    
    98   50   51 1    
    99   50   52 1    
   100   50  127 1    
   101   51  128 1    
   102   51  129 1    
   103   51  130 1    
   104   52   53 am   BACKBONE|DICT|INTERRES
   105   52  131 1    
   106   53   54 2    
   107   53   55 1    
   108   55   56 1    
   109   55   59 1    
   110   55  132 1    
   111   56   57 1    
   112   56  133 1    
   113   56  134 1    
   114   57   58 1    
   115   58  135 1    
   116   58  136 1    
   117   59   60 am   BACKBONE|DICT|INTERRES
   118   59  137 1    
   119   60   61 2    
   120   60   62 1    
   121   62   63 1    
   122   62   64 1    
   123   62  138 1    
   124   63  139 1    
   125   63  140 1    
   126   63  141 1    
   127   64   65 am   BACKBONE|DICT|INTERRES
   128   64  142 1    
   129   65   66 2    
   130   65   67 1    
   131   67   68 1    
   132   67   69 1    
   133   67  143 1    
   134   68  144 1    
   135   68  145 1    
   136   68  146 1    
   137   69   70 am   BACKBONE|DICT|INTERRES
   138   69  147 1    
   139   70   71 2    
   140   70   72 1    
   141   72   73 1    
   142   72   74 1    
   143   72  148 1    
   144   73  149 1    
   145   73  150 1    
   146   73  151 1    
   147   74   75 am   BACKBONE|DICT|INTERRES
   148   74  152 1    
   149   75   76 2    
   150   75   77 1    
   151   77   78 1    
   152   77   79 1    
   153   77  153 1    
   154   78  154 1    
   155   78  155 1    
   156   78  156 1    
   157   79   80 am   BACKBONE|DICT|INTERRES
   158   79  157 1    
   159   80   81 2    
@<TRIPOS>SUBSTRUCTURE
     1 UNK         1 GROUP             0       ****    0 ROOT    
