@<TRIPOS>MOLECULE
3R207
157   159    1
SMALL
USER_CHARGES


@<TRIPOS>ATOM
      1 CA        -44.9974  -31.6157    6.3844 C.3       0 UNK        -0.1975 
      2 C         -45.9499  -30.4324    6.4648 C.2       0 UNK         0.4852 
      3 O         -45.7033  -29.5060    7.2363 O.2       0 UNK        -0.5216 
      4 N         -47.0242  -30.4540    5.6634 N.am      1 UNK        -0.4461 
      5 CA        -48.1178  -29.4716    5.5584 C.3       1 UNK         0.0864 
      6 C6        -48.9045  -29.2219    6.8717 C.3       14 UNK        -0.0898 
      7 S7        -49.4849  -30.7184    7.7342 S.3       14 UNK        -0.2598 
      8 C8        -50.0176  -29.9931    9.3226 C.3       14 UNK         0.0286 
      9 C9        -51.3818  -29.3242    9.2102 C.ar      14 UNK        -0.0844 
     10 C10       -51.4971  -28.0313    8.6892 C.ar      14 UNK        -0.0881 
     11 C11       -52.7502  -27.4308    8.5399 C.ar      14 UNK        -0.0643 
     12 C12       -53.8927  -28.1166    8.9628 C.ar      14 UNK        -0.0930 
     13 C13       -53.7909  -29.4028    9.5015 C.ar      14 UNK        -0.0827 
     14 C14       -52.5340  -30.0041    9.6174 C.ar      14 UNK        -0.1249 
     15 C15       -55.0433  -30.1538    9.9241 C.3       14 UNK         0.0141 
     16 S16       -55.3632  -29.9698   11.7044 S.3       14 UNK        -0.2313 
     17 C17       -57.0337  -30.6942   11.8138 C.3       14 UNK        -0.0915 
     18 CA        -58.1272  -29.6065   11.9713 C.3       13 UNK         0.0968 
     19 C         -59.5451  -30.2225   11.8264 C.2       13 UNK         0.5732 
     20 N         -60.0687  -30.2949   10.6104 N.am      13 UNK        -0.7310 
     21 O         -60.1549  -30.6701   12.7966 O.2       13 UNK        -0.5035 
     22 N         -57.9673  -28.8810   13.2375 N.am      13 UNK        -0.4233 
     23 C         -58.5676  -27.7271   13.5531 C.2       13 UNK         0.4989 
     24 O         -59.2695  -27.0866   12.7690 O.2       13 UNK        -0.4996 
     25 CA        -58.3688  -27.1931   14.9862 C.3       12 UNK         0.0216 
     26 CB        -59.6948  -27.2405   15.7653 C.3       12 UNK        -0.1964 
     27 N         -57.3468  -27.9220   15.7469 N.am      12 UNK        -0.4276 
     28 C         -56.0271  -27.7284   15.6301 C.2       12 UNK         0.5020 
     29 O         -55.5165  -26.8921   14.8818 O.2       12 UNK        -0.5489 
     30 CA        -55.1331  -28.6739   16.4500 C.3       11 UNK         0.0294 
     31 CB        -54.7572  -29.9095   15.6143 C.3       11 UNK        -0.2019 
     32 N         -53.9066  -28.0204   16.9076 N.am      11 UNK        -0.4493 
     33 C         -53.8463  -27.0609   17.8417 C.2       11 UNK         0.4932 
     34 O         -54.8329  -26.6319   18.4419 O.2       11 UNK        -0.5029 
     35 CA        -52.4543  -26.5073   18.2025 C.3       10 UNK         0.0280 
     36 CB        -52.0408  -26.9751   19.6085 C.3       10 UNK        -0.1976 
     37 N         -51.4125  -26.9019   17.2486 N.am      10 UNK        -0.4242 
     38 C         -51.1240  -26.2401   16.1209 C.2       10 UNK         0.5072 
     39 O         -51.6918  -25.2062   15.7632 O.2       10 UNK        -0.5224 
     40 CA        -50.0359  -26.8666   15.2307 C.3       9 UNK         0.0343 
     41 CB        -50.6683  -27.5455   14.0033 C.3       9 UNK        -0.2003 
     42 N         -49.0394  -25.8889   14.7884 N.am      9 UNK        -0.4272 
     43 C         -48.2110  -25.2140   15.5988 C.2       9 UNK         0.4988 
     44 O         -48.1799  -25.3605   16.8219 O.2       9 UNK        -0.5108 
     45 CA        -47.2251  -24.2294   14.9452 C.3       8 UNK         0.0248 
     46 CB        -45.9179  -24.9491   14.5767 C.3       8 UNK        -0.2001 
     47 N         -47.7642  -23.5540   13.7619 N.am      8 UNK        -0.4140 
     48 C         -48.7240  -22.6181   13.7942 C.2       8 UNK         0.5028 
     49 O         -49.2327  -22.1940   14.8328 O.2       8 UNK        -0.5428 
     50 CA        -49.1953  -22.0481   12.4438 C.3       7 UNK         0.0264 
     51 CB        -48.2763  -20.9051   11.9836 C.3       7 UNK        -0.1988 
     52 N         -49.2847  -23.0591   11.3878 N.am      7 UNK        -0.4454 
     53 C         -50.1593  -24.0766   11.3825 C.2       7 UNK         0.5027 
     54 O         -51.0160  -24.2431   12.2501 O.2       7 UNK        -0.5083 
     55 CA        -50.0320  -25.1006   10.2323 C.3       6 UNK         0.0844 
     56 C56       -50.7077  -24.5919    8.9350 C.3       14 UNK        -0.0967 
     57 S57       -52.5291  -24.6937    9.0055 S.3       14 UNK        -0.2604 
     58 C58       -52.8810  -26.0697    7.8694 C.3       14 UNK         0.0134 
     59 N         -48.6390  -25.4937    9.9983 N.am      6 UNK        -0.4116 
     60 C         -47.8397  -26.0680   10.9093 C.2       5 UNK         0.5034 
     61 O         -48.2085  -26.4145   12.0298 O.2       5 UNK        -0.5045 
     62 CA        -46.3602  -26.2248   10.5305 C.3       5 UNK         0.0224 
     63 CB        -46.1329  -27.5025    9.7125 C.3       5 UNK        -0.1978 
     64 N         -45.8578  -25.0616    9.7958 N.am      5 UNK        -0.4737 
     65 C         -45.6732  -23.8529   10.3455 C.2       4 UNK         0.5027 
     66 O         -45.8574  -23.6115   11.5371 O.2       4 UNK        -0.5211 
     67 CA        -45.2612  -22.7138    9.3984 C.3       4 UNK         0.0297 
     68 CB        -43.7423  -22.7264    9.1664 C.3       4 UNK        -0.1993 
     69 N         -45.9579  -22.7709    8.1107 N.am      4 UNK        -0.4486 
     70 C         -47.2813  -22.6189    7.9559 C.2       3 UNK         0.4961 
     71 O         -48.0528  -22.3622    8.8794 O.2       3 UNK        -0.5105 
     72 CA        -47.8465  -22.8458    6.5422 C.3       3 UNK         0.0299 
     73 CB        -47.8139  -21.5404    5.7325 C.3       3 UNK        -0.1972 
     74 N         -47.1505  -23.9059    5.8025 N.am      3 UNK        -0.4305 
     75 C         -47.1051  -25.1895    6.1844 C.2       2 UNK         0.5006 
     76 O         -47.6588  -25.6169    7.2021 O.2       2 UNK        -0.5106 
     77 CA        -46.2360  -26.1254    5.3269 C.3       2 UNK         0.0296 
     78 CB        -44.7554  -25.9788    5.7167 C.3       2 UNK        -0.2002 
     79 N         -46.6303  -27.5181    5.5217 N.am      2 UNK        -0.4032 
     80 C         -47.6943  -28.1088    4.9677 C.2       1 UNK         0.5000 
     81 O         -48.3564  -27.6090    4.0558 O.2       1 UNK        -0.5238 
     82 H82       -44.0038  -31.2774    6.0916 H         1 UNK         0.0889 
     83 H83       -45.3300  -32.3605    5.6617 H         1 UNK         0.0889 
     84 H84       -44.9200  -32.0987    7.3581 H         1 UNK         0.0889 
     85 H85       -47.1301  -31.2460    5.0444 H         1 UNK         0.3028 
     86 H86       -48.8184  -29.9085    4.8446 H         1 UNK         0.0864 
     87 H87       -49.7821  -28.6189    6.6376 H         1 UNK         0.0720 
     88 H88       -48.3069  -28.6383    7.5733 H         1 UNK         0.0720 
     89 H89       -49.2746  -29.2774    9.6787 H         1 UNK         0.0814 
     90 H90       -50.0522  -30.7856   10.0717 H         1 UNK         0.0814 
     91 H91       -50.6111  -27.4983    8.3780 H         1 UNK         0.1469 
     92 H92       -54.8653  -27.6560    8.8550 H         1 UNK         0.1381 
     93 H93       -52.4553  -31.0045   10.0209 H         1 UNK         0.1206 
     94 H94       -54.9430  -31.2131    9.6821 H         1 UNK         0.0813 
     95 H95       -55.9044  -29.7896    9.3614 H         1 UNK         0.0813 
     96 H96       -57.2154  -31.3022   10.9253 H         1 UNK         0.0638 
     97 H97       -57.0548  -31.3852   12.6586 H         1 UNK         0.0638 
     98 H98       -58.0019  -28.8815   11.1643 H         1 UNK         0.0568 
     99 H99       -59.5745  -29.9410    9.8062 H         1 UNK         0.3450 
    100 H100      -60.9821  -30.7055   10.4953 H         1 UNK         0.3450 
    101 H101      -57.4167  -29.3431   13.9426 H         1 UNK         0.2987 
    102 H102      -58.0625  -26.1481   14.9011 H         1 UNK         0.0766 
    103 H103      -59.5857  -26.8131   16.7623 H         1 UNK         0.0798 
    104 H104      -60.0642  -28.2611   15.8739 H         1 UNK         0.0798 
    105 H105      -60.4698  -26.6674   15.2541 H         1 UNK         0.0798 
    106 H106      -57.6814  -28.6312   16.3849 H         1 UNK         0.3198 
    107 H107      -55.6852  -29.0045   17.3328 H         1 UNK         0.0843 
    108 H108      -54.2002  -29.6352   14.7169 H         1 UNK         0.0831 
    109 H109      -55.6460  -30.4521   15.2899 H         1 UNK         0.0831 
    110 H110      -54.1475  -30.6082   16.1876 H         1 UNK         0.0831 
    111 H111      -53.0526  -28.2815   16.4400 H         1 UNK         0.3133 
    112 H112      -52.5309  -25.4180   18.2201 H         1 UNK         0.0566 
    113 H113      -51.0813  -26.5486   19.9024 H         1 UNK         0.0814 
    114 H114      -52.7726  -26.6637   20.3553 H         1 UNK         0.0814 
    115 H115      -51.9589  -28.0612   19.6669 H         1 UNK         0.0814 
    116 H116      -50.8866  -27.7349   17.4737 H         1 UNK         0.3091 
    117 H117      -49.5068  -27.6301   15.8048 H         1 UNK         0.0702 
    118 H118      -51.4158  -28.2823   14.2999 H         1 UNK         0.0785 
    119 H119      -49.9192  -28.0673   13.4075 H         1 UNK         0.0785 
    120 H120      -51.1639  -26.8208   13.3556 H         1 UNK         0.0785 
    121 H121      -48.9573  -25.7505   13.7867 H         1 UNK         0.2998 
    122 H122      -46.9882  -23.4630   15.6863 H         1 UNK         0.0697 
    123 H123      -46.0832  -25.7240   13.8279 H         1 UNK         0.0825 
    124 H124      -45.4762  -25.4291   15.4511 H         1 UNK         0.0825 
    125 H125      -45.1783  -24.2526   14.1814 H         1 UNK         0.0825 
    126 H126      -47.3318  -23.7779   12.8705 H         1 UNK         0.3029 
    127 H127      -50.1965  -21.6381   12.5937 H         1 UNK         0.0897 
    128 H128      -48.6438  -20.4461   11.0655 H         1 UNK         0.0792 
    129 H129      -47.2597  -21.2532   11.7985 H         1 UNK         0.0792 
    130 H130      -48.2206  -20.1207   12.7396 H         1 UNK         0.0792 
    131 H131      -48.6598  -22.9473   10.5927 H         1 UNK         0.3086 
    132 H132      -50.5478  -26.0081   10.5536 H         1 UNK         0.0583 
    133 H133      -50.4287  -23.5582    8.7237 H         1 UNK         0.1020 
    134 H134      -50.3528  -25.1613    8.0751 H         1 UNK         0.1020 
    135 H135      -53.8952  -25.9427    7.4875 H         1 UNK         0.0694 
    136 H136      -52.2296  -26.0158    6.9959 H         1 UNK         0.0694 
    137 H137      -48.2505  -25.2898    9.0828 H         1 UNK         0.2989 
    138 H138      -45.7902  -26.3131   11.4579 H         1 UNK         0.1055 
    139 H139      -46.6517  -27.4675    8.7561 H         1 UNK         0.0806 
    140 H140      -46.4969  -28.3814   10.2464 H         1 UNK         0.0806 
    141 H141      -45.0741  -27.6636    9.5099 H         1 UNK         0.0806 
    142 H142      -45.7347  -25.1670    8.7997 H         1 UNK         0.3061 
    143 H143      -45.5259  -21.7705    9.8811 H         1 UNK         0.0734 
    144 H144      -43.4253  -21.8747    8.5641 H         1 UNK         0.0832 
    145 H145      -43.2044  -22.6681   10.1138 H         1 UNK         0.0832 
    146 H146      -43.4148  -23.6364    8.6620 H         1 UNK         0.0832 
    147 H147      -45.3996  -22.9692    7.2937 H         1 UNK         0.3156 
    148 H148      -48.8893  -23.1507    6.6514 H         1 UNK         0.0589 
    149 H149      -46.7941  -21.1936    5.5609 H         1 UNK         0.0808 
    150 H150      -48.2958  -21.6625    4.7623 H         1 UNK         0.0808 
    151 H151      -48.3445  -20.7441    6.2568 H         1 UNK         0.0808 
    152 H152      -46.6677  -23.6303    4.9587 H         1 UNK         0.3098 
    153 H153      -46.3590  -25.8616    4.2744 H         1 UNK         0.0720 
    154 H154      -44.1235  -26.6308    5.1131 H         1 UNK         0.0791 
    155 H155      -44.5861  -26.2311    6.7646 H         1 UNK         0.0791 
    156 H156      -44.4026  -24.9584    5.5627 H         1 UNK         0.0791 
    157 H157      -46.1739  -28.0272    6.2765 H         1 UNK         0.3028 
@<TRIPOS>BOND
     1    1    2 1    
     2    1   82 1    
     3    1   83 1    
     4    1   84 1    
     5    2    3 2    
     6    2    4 am   BACKBONE|DICT|INTERRES
     7    4    5 1    
     8    4   85 1    
     9    5    6 1    
    10    5   80 1    
    11    5   86 1    
    12    6    7 1    
    13    6   87 1    
    14    6   88 1    
    15    7    8 1    
    16    8    9 1    
    17    8   89 1    
    18    8   90 1    
    19    9   10 ar   
    20    9   14 ar   
    21   10   11 ar   
    22   10   91 1    
    23   11   12 ar   
    24   11   58 1    
    25   12   13 ar   
    26   12   92 1    
    27   13   14 ar   
    28   13   15 1    
    29   14   93 1    
    30   15   16 1    
    31   15   94 1    
    32   15   95 1    
    33   16   17 1    
    34   17   18 1    
    35   17   96 1    
    36   17   97 1    
    37   18   19 1    
    38   18   22 1    
    39   18   98 1    
    40   19   20 am   BACKBONE|DICT|INTERRES
    41   19   21 2    
    42   20   99 1    
    43   20  100 1    
    44   22   23 am   BACKBONE|DICT|INTERRES
    45   22  101 1    
    46   23   24 2    
    47   23   25 1    
    48   25   26 1    
    49   25   27 1    
    50   25  102 1    
    51   26  103 1    
    52   26  104 1    
    53   26  105 1    
    54   27   28 am   BACKBONE|DICT|INTERRES
    55   27  106 1    
    56   28   29 2    
    57   28   30 1    
    58   30   31 1    
    59   30   32 1    
    60   30  107 1    
    61   31  108 1    
    62   31  109 1    
    63   31  110 1    
    64   32   33 am   BACKBONE|DICT|INTERRES
    65   32  111 1    
    66   33   34 2    
    67   33   35 1    
    68   35   36 1    
    69   35   37 1    
    70   35  112 1    
    71   36  113 1    
    72   36  114 1    
    73   36  115 1    
    74   37   38 am   BACKBONE|DICT|INTERRES
    75   37  116 1    
    76   38   39 2    
    77   38   40 1    
    78   40   41 1    
    79   40   42 1    
    80   40  117 1    
    81   41  118 1    
    82   41  119 1    
    83   41  120 1    
    84   42   43 am   BACKBONE|DICT|INTERRES
    85   42  121 1    
    86   43   44 2    
    87   43   45 1    
    88   45   46 1    
    89   45   47 1    
    90   45  122 1    
    91   46  123 1    
    92   46  124 1    
    93   46  125 1    
    94   47   48 am   BACKBONE|DICT|INTERRES
    95   47  126 1    
    96   48   49 2    
    97   48   50 1    
    98   50   51 1    
    99   50   52 1    
   100   50  127 1    
   101   51  128 1    
   102   51  129 1    
   103   51  130 1    
   104   52   53 am   BACKBONE|DICT|INTERRES
   105   52  131 1    
   106   53   54 2    
   107   53   55 1    
   108   55   56 1    
   109   55   59 1    
   110   55  132 1    
   111   56   57 1    
   112   56  133 1    
   113   56  134 1    
   114   57   58 1    
   115   58  135 1    
   116   58  136 1    
   117   59   60 am   BACKBONE|DICT|INTERRES
   118   59  137 1    
   119   60   61 2    
   120   60   62 1    
   121   62   63 1    
   122   62   64 1    
   123   62  138 1    
   124   63  139 1    
   125   63  140 1    
   126   63  141 1    
   127   64   65 am   BACKBONE|DICT|INTERRES
   128   64  142 1    
   129   65   66 2    
   130   65   67 1    
   131   67   68 1    
   132   67   69 1    
   133   67  143 1    
   134   68  144 1    
   135   68  145 1    
   136   68  146 1    
   137   69   70 am   BACKBONE|DICT|INTERRES
   138   69  147 1    
   139   70   71 2    
   140   70   72 1    
   141   72   73 1    
   142   72   74 1    
   143   72  148 1    
   144   73  149 1    
   145   73  150 1    
   146   73  151 1    
   147   74   75 am   BACKBONE|DICT|INTERRES
   148   74  152 1    
   149   75   76 2    
   150   75   77 1    
   151   77   78 1    
   152   77   79 1    
   153   77  153 1    
   154   78  154 1    
   155   78  155 1    
   156   78  156 1    
   157   79   80 am   BACKBONE|DICT|INTERRES
   158   79  157 1    
   159   80   81 2    
@<TRIPOS>SUBSTRUCTURE
     1 UNK         1 GROUP             0       ****    0 ROOT    
