@<TRIPOS>MOLECULE
3R207
157   159    1
SMALL
USER_CHARGES


@<TRIPOS>ATOM
      1 CA        -56.3772  -27.9164    4.8172 C.3       0 UNK        -0.1975 
      2 C         -55.1696  -27.9144    5.7431 C.2       0 UNK         0.4852 
      3 O         -55.3387  -27.8850    6.9612 O.2       0 UNK        -0.5216 
      4 N         -53.9578  -27.9482    5.1701 N.am      1 UNK        -0.4461 
      5 CA        -52.6721  -27.9312    5.8774 C.3       1 UNK         0.0864 
      6 C6        -51.5046  -28.1011    4.8703 C.3       14 UNK        -0.0898 
      7 S7        -49.8326  -28.1526    5.6076 S.3       14 UNK        -0.2598 
      8 C8        -49.5252  -29.9405    5.7382 C.3       14 UNK         0.0286 
      9 C9        -50.1347  -30.5107    7.0085 C.ar      14 UNK        -0.0844 
     10 C10       -49.4332  -30.4258    8.2138 C.ar      14 UNK        -0.0881 
     11 C11       -49.9738  -30.9456    9.3975 C.ar      14 UNK        -0.0643 
     12 C12       -51.2271  -31.5636    9.3526 C.ar      14 UNK        -0.0930 
     13 C13       -51.9387  -31.6568    8.1523 C.ar      14 UNK        -0.0827 
     14 C14       -51.3846  -31.1327    6.9817 C.ar      14 UNK        -0.1249 
     15 C15       -53.2925  -32.3496    8.1073 C.3       14 UNK         0.0141 
     16 S16       -54.6705  -31.1637    8.1948 S.3       14 UNK        -0.2313 
     17 C17       -54.7025  -30.7464    9.9713 C.3       14 UNK        -0.0915 
     18 CA        -54.8541  -29.2168   10.2404 C.3       13 UNK         0.0968 
     19 C         -56.3440  -28.7473   10.2926 C.2       13 UNK         0.5732 
     20 N         -56.7121  -27.7803   11.1263 N.am      13 UNK        -0.7310 
     21 O         -57.1910  -29.2573    9.5631 O.2       13 UNK        -0.5035 
     22 N         -54.0358  -28.7593   11.3777 N.am      13 UNK        -0.4233 
     23 C         -54.1331  -29.2038   12.6383 C.2       13 UNK         0.4989 
     24 O         -54.8633  -30.1305   12.9914 O.2       13 UNK        -0.4996 
     25 CA        -53.2795  -28.4858   13.6989 C.3       12 UNK         0.0216 
     26 CB        -51.9162  -29.1806   13.8511 C.3       12 UNK        -0.1964 
     27 N         -53.0653  -27.0512   13.4738 N.am      12 UNK        -0.4276 
     28 C         -54.0135  -26.1197   13.3085 C.2       12 UNK         0.5020 
     29 O         -55.2111  -26.3735   13.1647 O.2       12 UNK        -0.5489 
     30 CA        -53.5241  -24.6583   13.3335 C.3       11 UNK         0.0294 
     31 CB        -54.6158  -23.6511   12.9167 C.3       11 UNK        -0.2019 
     32 N         -52.9442  -24.2877   14.6326 N.am      11 UNK        -0.4493 
     33 C         -53.5327  -24.3763   15.8371 C.2       11 UNK         0.4932 
     34 O         -54.6974  -24.7387   16.0132 O.2       11 UNK        -0.5029 
     35 CA        -52.6715  -23.9807   17.0543 C.3       10 UNK         0.0280 
     36 CB        -53.3236  -24.3626   18.4003 C.3       10 UNK        -0.1976 
     37 N         -51.2969  -24.4902   16.9992 N.am      10 UNK        -0.4242 
     38 C         -50.8816  -25.7590   16.8686 C.2       10 UNK         0.5072 
     39 O         -51.6458  -26.7175   16.7456 O.2       10 UNK        -0.5224 
     40 CA        -49.3521  -25.9972   16.8935 C.3       9 UNK         0.0343 
     41 CB        -48.9738  -27.4155   16.4270 C.3       9 UNK        -0.2003 
     42 N         -48.5927  -25.0251   16.0986 N.am      9 UNK        -0.4272 
     43 C         -48.3710  -23.7422   16.4178 C.2       9 UNK         0.4988 
     44 O         -48.7296  -23.2344   17.4808 O.2       9 UNK        -0.5108 
     45 CA        -47.7179  -22.8538   15.3456 C.3       8 UNK         0.0248 
     46 CB        -46.1861  -22.9528   15.4144 C.3       8 UNK        -0.2001 
     47 N         -48.1729  -23.1506   13.9836 N.am      8 UNK        -0.4140 
     48 C         -49.4473  -23.1147   13.5592 C.2       8 UNK         0.5028 
     49 O         -50.4162  -22.8354   14.2669 O.2       8 UNK        -0.5428 
     50 CA        -49.6762  -23.5137   12.0965 C.3       7 UNK         0.0264 
     51 CB        -49.1971  -22.3968   11.1529 C.3       7 UNK        -0.1988 
     52 N         -49.0010  -24.7823   11.8075 N.am      7 UNK        -0.4454 
     53 C         -49.4304  -25.9710   12.2642 C.2       7 UNK         0.5027 
     54 O         -50.5131  -26.1254   12.8276 O.2       7 UNK        -0.5083 
     55 CA        -48.5028  -27.1917   12.1076 C.3       6 UNK         0.0844 
     56 C56       -48.9394  -28.0922   10.9287 C.3       14 UNK        -0.0967 
     57 S57       -47.9381  -29.6164   10.8600 S.3       14 UNK        -0.2604 
     58 C58       -49.2227  -30.9064   10.7298 C.3       14 UNK         0.0134 
     59 N         -47.0965  -26.7948   12.0146 N.am      6 UNK        -0.4116 
     60 C         -46.3566  -26.3915   13.0555 C.2       5 UNK         0.5034 
     61 O         -46.7808  -26.3224   14.2079 O.2       5 UNK        -0.5045 
     62 CA        -44.9163  -25.9398   12.7569 C.3       5 UNK         0.0224 
     63 CB        -43.9491  -27.1292   12.8608 C.3       5 UNK        -0.1978 
     64 N         -44.7637  -25.2985   11.4468 N.am      5 UNK        -0.4737 
     65 C         -45.4055  -24.1875   11.0609 C.2       4 UNK         0.5027 
     66 O         -46.1826  -23.5722   11.7926 O.2       4 UNK        -0.5211 
     67 CA        -45.1864  -23.6996    9.6139 C.3       4 UNK         0.0297 
     68 CB        -44.1158  -24.4982    8.8349 C.3       4 UNK        -0.1993 
     69 N         -46.4376  -23.6562    8.8435 N.am      4 UNK        -0.4486 
     70 C         -47.3042  -24.6620    8.6554 C.2       3 UNK         0.4961 
     71 O         -47.1827  -25.7837    9.1541 O.2       3 UNK        -0.5105 
     72 CA        -48.4973  -24.3697    7.7358 C.3       3 UNK         0.0299 
     73 CB        -48.1331  -24.6907    6.2772 C.3       3 UNK        -0.1972 
     74 N         -49.6294  -25.2052    8.1336 N.am      3 UNK        -0.4305 
     75 C         -50.8191  -24.7548    8.5511 C.2       2 UNK         0.5006 
     76 O         -51.1363  -23.5646    8.5742 O.2       2 UNK        -0.5106 
     77 CA        -51.8221  -25.8303    9.0136 C.3       2 UNK         0.0296 
     78 CB        -53.1620  -25.2372    9.5023 C.3       2 UNK        -0.2002 
     79 N         -52.0542  -26.8563    7.9901 N.am      2 UNK        -0.4032 
     80 C         -52.5195  -26.6627    6.7444 C.2       1 UNK         0.5000 
     81 O         -52.8128  -25.5639    6.2642 O.2       1 UNK        -0.5238 
     82 H82       -56.0881  -27.9613    3.7673 H         1 UNK         0.0889 
     83 H83       -56.9666  -27.0126    4.9689 H         1 UNK         0.0889 
     84 H84       -57.0108  -28.7766    5.0318 H         1 UNK         0.0889 
     85 H85       -53.8970  -27.9421    4.1623 H         1 UNK         0.3028 
     86 H86       -52.6822  -28.7935    6.5450 H         1 UNK         0.0864 
     87 H87       -51.6557  -29.0060    4.2800 H         1 UNK         0.0720 
     88 H88       -51.5141  -27.2789    4.1521 H         1 UNK         0.0720 
     89 H89       -48.4472  -30.1091    5.7453 H         1 UNK         0.0814 
     90 H90       -49.9026  -30.4591    4.8557 H         1 UNK         0.0814 
     91 H91       -48.4591  -29.9578    8.2162 H         1 UNK         0.1469 
     92 H92       -51.6435  -31.9870   10.2562 H         1 UNK         0.1381 
     93 H93       -51.9293  -31.2076    6.0501 H         1 UNK         0.1206 
     94 H94       -53.3789  -32.9154    7.1785 H         1 UNK         0.0813 
     95 H95       -53.3830  -33.0799    8.9131 H         1 UNK         0.0813 
     96 H96       -55.4986  -31.3157   10.4543 H         1 UNK         0.0638 
     97 H97       -53.7810  -31.1127   10.4207 H         1 UNK         0.0638 
     98 H98       -54.4293  -28.6854    9.3887 H         1 UNK         0.0568 
     99 H99       -57.6772  -27.4935   11.1373 H         1 UNK         0.3450 
    100 H100      -56.0590  -27.3543   11.7788 H         1 UNK         0.3450 
    101 H101      -53.4257  -27.9776   11.1984 H         1 UNK         0.2987 
    102 H102      -53.8112  -28.5749   14.6483 H         1 UNK         0.0766 
    103 H103      -52.0374  -30.2489   14.0357 H         1 UNK         0.0798 
    104 H104      -51.3575  -28.7701   14.6924 H         1 UNK         0.0798 
    105 H105      -51.3042  -29.0699   12.9562 H         1 UNK         0.0798 
    106 H106      -52.0987  -26.7298   13.5091 H         1 UNK         0.3198 
    107 H107      -52.7187  -24.5887   12.6049 H         1 UNK         0.0843 
    108 H108      -55.0065  -23.8880   11.9263 H         1 UNK         0.0831 
    109 H109      -54.2230  -22.6353   12.8768 H         1 UNK         0.0831 
    110 H110      -55.4600  -23.6581   13.6070 H         1 UNK         0.0831 
    111 H111      -51.9885  -23.9377   14.6023 H         1 UNK         0.3133 
    112 H112      -52.5908  -22.8932   17.0243 H         1 UNK         0.0566 
    113 H113      -52.7138  -24.0381   19.2435 H         1 UNK         0.0814 
    114 H114      -53.4681  -25.4403   18.4857 H         1 UNK         0.0814 
    115 H115      -54.3016  -23.8925   18.5108 H         1 UNK         0.0814 
    116 H116      -50.5669  -23.7911   17.1004 H         1 UNK         0.3091 
    117 H117      -49.0393  -25.8984   17.9349 H         1 UNK         0.0702 
    118 H118      -47.8991  -27.5837   16.4994 H         1 UNK         0.0785 
    119 H119      -49.2697  -27.5857   15.3916 H         1 UNK         0.0785 
    120 H120      -49.4603  -28.1770   17.0379 H         1 UNK         0.0785 
    121 H121      -48.1991  -25.3725   15.2298 H         1 UNK         0.2998 
    122 H122      -48.0018  -21.8212   15.5582 H         1 UNK         0.0697 
    123 H123      -45.8388  -23.9705   15.2383 H         1 UNK         0.0825 
    124 H124      -45.8213  -22.6516   16.3973 H         1 UNK         0.0825 
    125 H125      -45.7106  -22.3036   14.6788 H         1 UNK         0.0825 
    126 H126      -47.4519  -23.3709   13.3017 H         1 UNK         0.3029 
    127 H127      -50.7464  -23.6464   11.9332 H         1 UNK         0.0897 
    128 H128      -48.1738  -22.0831   11.3541 H         1 UNK         0.0792 
    129 H129      -49.8258  -21.5123   11.2613 H         1 UNK         0.0792 
    130 H130      -49.2481  -22.6977   10.1102 H         1 UNK         0.0792 
    131 H131      -48.0781  -24.7238   11.3958 H         1 UNK         0.3086 
    132 H132      -48.6197  -27.7808   13.0199 H         1 UNK         0.0583 
    133 H133      -49.9938  -28.3582   11.0205 H         1 UNK         0.1020 
    134 H134      -48.8410  -27.5733    9.9755 H         1 UNK         0.1020 
    135 H135      -48.7455  -31.8759   10.8775 H         1 UNK         0.0694 
    136 H136      -49.9263  -30.7819   11.5545 H         1 UNK         0.0694 
    137 H137      -46.6972  -26.7764   11.0838 H         1 UNK         0.2989 
    138 H138      -44.6409  -25.2063   13.5172 H         1 UNK         0.1055 
    139 H139      -44.1588  -27.8889   12.1066 H         1 UNK         0.0806 
    140 H140      -42.9132  -26.8114   12.7405 H         1 UNK         0.0806 
    141 H141      -44.0266  -27.6099   13.8373 H         1 UNK         0.0806 
    142 H142      -44.1566  -25.7554   10.7814 H         1 UNK         0.3061 
    143 H143      -44.8358  -22.6697    9.6964 H         1 UNK         0.0734 
    144 H144      -44.4026  -25.5404    8.6886 H         1 UNK         0.0832 
    145 H145      -43.9511  -24.0657    7.8479 H         1 UNK         0.0832 
    146 H146      -43.1537  -24.4815    9.3490 H         1 UNK         0.0832 
    147 H147      -46.6463  -22.7649    8.4147 H         1 UNK         0.3156 
    148 H148      -48.7501  -23.3103    7.8104 H         1 UNK         0.0589 
    149 H149      -48.9782  -24.5144    5.6113 H         1 UNK         0.0808 
    150 H150      -47.3097  -24.0651    5.9304 H         1 UNK         0.0808 
    151 H151      -47.8263  -25.7307    6.1568 H         1 UNK         0.0808 
    152 H152      -49.4365  -26.1964    8.1619 H         1 UNK         0.3098 
    153 H153      -51.3611  -26.3331    9.8642 H         1 UNK         0.0720 
    154 H154      -52.9987  -24.4970   10.2849 H         1 UNK         0.0791 
    155 H155      -53.8184  -26.0062    9.9085 H         1 UNK         0.0791 
    156 H156      -53.6994  -24.7343    8.6977 H         1 UNK         0.0791 
    157 H157      -51.8140  -27.8019    8.2536 H         1 UNK         0.3028 
@<TRIPOS>BOND
     1    1    2 1    
     2    1   82 1    
     3    1   83 1    
     4    1   84 1    
     5    2    3 2    
     6    2    4 am   BACKBONE|DICT|INTERRES
     7    4    5 1    
     8    4   85 1    
     9    5    6 1    
    10    5   80 1    
    11    5   86 1    
    12    6    7 1    
    13    6   87 1    
    14    6   88 1    
    15    7    8 1    
    16    8    9 1    
    17    8   89 1    
    18    8   90 1    
    19    9   10 ar   
    20    9   14 ar   
    21   10   11 ar   
    22   10   91 1    
    23   11   12 ar   
    24   11   58 1    
    25   12   13 ar   
    26   12   92 1    
    27   13   14 ar   
    28   13   15 1    
    29   14   93 1    
    30   15   16 1    
    31   15   94 1    
    32   15   95 1    
    33   16   17 1    
    34   17   18 1    
    35   17   96 1    
    36   17   97 1    
    37   18   19 1    
    38   18   22 1    
    39   18   98 1    
    40   19   20 am   BACKBONE|DICT|INTERRES
    41   19   21 2    
    42   20   99 1    
    43   20  100 1    
    44   22   23 am   BACKBONE|DICT|INTERRES
    45   22  101 1    
    46   23   24 2    
    47   23   25 1    
    48   25   26 1    
    49   25   27 1    
    50   25  102 1    
    51   26  103 1    
    52   26  104 1    
    53   26  105 1    
    54   27   28 am   BACKBONE|DICT|INTERRES
    55   27  106 1    
    56   28   29 2    
    57   28   30 1    
    58   30   31 1    
    59   30   32 1    
    60   30  107 1    
    61   31  108 1    
    62   31  109 1    
    63   31  110 1    
    64   32   33 am   BACKBONE|DICT|INTERRES
    65   32  111 1    
    66   33   34 2    
    67   33   35 1    
    68   35   36 1    
    69   35   37 1    
    70   35  112 1    
    71   36  113 1    
    72   36  114 1    
    73   36  115 1    
    74   37   38 am   BACKBONE|DICT|INTERRES
    75   37  116 1    
    76   38   39 2    
    77   38   40 1    
    78   40   41 1    
    79   40   42 1    
    80   40  117 1    
    81   41  118 1    
    82   41  119 1    
    83   41  120 1    
    84   42   43 am   BACKBONE|DICT|INTERRES
    85   42  121 1    
    86   43   44 2    
    87   43   45 1    
    88   45   46 1    
    89   45   47 1    
    90   45  122 1    
    91   46  123 1    
    92   46  124 1    
    93   46  125 1    
    94   47   48 am   BACKBONE|DICT|INTERRES
    95   47  126 1    
    96   48   49 2    
    97   48   50 1    
    98   50   51 1    
    99   50   52 1    
   100   50  127 1    
   101   51  128 1    
   102   51  129 1    
   103   51  130 1    
   104   52   53 am   BACKBONE|DICT|INTERRES
   105   52  131 1    
   106   53   54 2    
   107   53   55 1    
   108   55   56 1    
   109   55   59 1    
   110   55  132 1    
   111   56   57 1    
   112   56  133 1    
   113   56  134 1    
   114   57   58 1    
   115   58  135 1    
   116   58  136 1    
   117   59   60 am   BACKBONE|DICT|INTERRES
   118   59  137 1    
   119   60   61 2    
   120   60   62 1    
   121   62   63 1    
   122   62   64 1    
   123   62  138 1    
   124   63  139 1    
   125   63  140 1    
   126   63  141 1    
   127   64   65 am   BACKBONE|DICT|INTERRES
   128   64  142 1    
   129   65   66 2    
   130   65   67 1    
   131   67   68 1    
   132   67   69 1    
   133   67  143 1    
   134   68  144 1    
   135   68  145 1    
   136   68  146 1    
   137   69   70 am   BACKBONE|DICT|INTERRES
   138   69  147 1    
   139   70   71 2    
   140   70   72 1    
   141   72   73 1    
   142   72   74 1    
   143   72  148 1    
   144   73  149 1    
   145   73  150 1    
   146   73  151 1    
   147   74   75 am   BACKBONE|DICT|INTERRES
   148   74  152 1    
   149   75   76 2    
   150   75   77 1    
   151   77   78 1    
   152   77   79 1    
   153   77  153 1    
   154   78  154 1    
   155   78  155 1    
   156   78  156 1    
   157   79   80 am   BACKBONE|DICT|INTERRES
   158   79  157 1    
   159   80   81 2    
@<TRIPOS>SUBSTRUCTURE
     1 UNK         1 GROUP             0       ****    0 ROOT    
