@<TRIPOS>MOLECULE
3R207
157   159    1
SMALL
USER_CHARGES


@<TRIPOS>ATOM
      1 CA        -51.7032  -28.7088    4.8811 C.3       0 UNK        -0.1975 
      2 C         -50.8077  -29.8540    4.4117 C.2       0 UNK         0.4852 
      3 O         -51.2318  -30.6435    3.5689 O.2       0 UNK        -0.5216 
      4 N         -49.5786  -29.9966    4.9256 N.am      1 UNK        -0.4461 
      5 CA        -48.9194  -29.0970    5.8782 C.3       1 UNK         0.0864 
      6 C6        -47.9335  -29.8524    6.8056 C.3       14 UNK        -0.0898 
      7 S7        -48.7409  -31.1219    7.8414 S.3       14 UNK        -0.2598 
      8 C8        -49.0883  -30.2265    9.3939 C.3       14 UNK         0.0286 
      9 C9        -50.4863  -29.6262    9.3910 C.ar      14 UNK        -0.0844 
     10 C10       -50.6975  -28.3126    8.9621 C.ar      14 UNK        -0.0881 
     11 C11       -51.9924  -27.7768    8.9023 C.ar      14 UNK        -0.0643 
     12 C12       -53.0684  -28.5656    9.3206 C.ar      14 UNK        -0.0930 
     13 C13       -52.8672  -29.8686    9.7836 C.ar      14 UNK        -0.0827 
     14 C14       -51.5743  -30.3959    9.8112 C.ar      14 UNK        -0.1249 
     15 C15       -54.0513  -30.7077   10.2362 C.3       14 UNK         0.0141 
     16 S16       -54.5576  -30.2562   11.9221 S.3       14 UNK        -0.2313 
     17 C17       -56.0359  -31.3046   12.1325 C.3       14 UNK        -0.0915 
     18 CA        -57.3515  -30.6359   11.6290 C.3       13 UNK         0.0968 
     19 C         -58.5842  -31.5847   11.7439 C.2       13 UNK         0.5732 
     20 N         -59.7840  -31.0830   12.0120 N.am      13 UNK        -0.7310 
     21 O         -58.4629  -32.7926   11.5515 O.2       13 UNK        -0.5035 
     22 N         -57.5641  -29.2753   12.1596 N.am      13 UNK        -0.4233 
     23 C         -57.7148  -28.9420   13.4472 C.2       13 UNK         0.4989 
     24 O         -57.7487  -29.7489   14.3797 O.2       13 UNK        -0.4996 
     25 CA        -57.9035  -27.4428   13.7346 C.3       12 UNK         0.0216 
     26 CB        -59.3989  -27.0913   13.8079 C.3       12 UNK        -0.1964 
     27 N         -57.2549  -27.0553   14.9884 N.am      12 UNK        -0.4276 
     28 C         -55.9295  -26.9705   15.1564 C.2       12 UNK         0.5020 
     29 O         -55.1093  -27.1432   14.2510 O.2       12 UNK        -0.5489 
     30 CA        -55.4488  -26.6727   16.5873 C.3       11 UNK         0.0294 
     31 CB        -55.4058  -27.9662   17.4180 C.3       11 UNK        -0.2019 
     32 N         -54.1186  -26.0650   16.5999 N.am      11 UNK        -0.4493 
     33 C         -53.8230  -24.8234   16.2021 C.2       11 UNK         0.4932 
     34 O         -54.6715  -23.9990   15.8583 O.2       11 UNK        -0.5029 
     35 CA        -52.3369  -24.4169   16.1917 C.3       10 UNK         0.0280 
     36 CB        -51.8777  -23.9626   17.5905 C.3       10 UNK        -0.1976 
     37 N         -51.4135  -25.4115   15.6254 N.am      10 UNK        -0.4242 
     38 C         -51.0899  -26.6322   16.0795 C.2       10 UNK         0.5072 
     39 O         -51.6003  -27.1639   17.0670 O.2       10 UNK        -0.5224 
     40 CA        -49.9938  -27.3851   15.3068 C.3       9 UNK         0.0343 
     41 CB        -50.5634  -28.0218   14.0275 C.3       9 UNK        -0.2003 
     42 N         -48.8521  -26.5285   14.9741 N.am      9 UNK        -0.4272 
     43 C         -48.0206  -25.9788   15.8731 C.2       9 UNK         0.4988 
     44 O         -48.0769  -26.1969   17.0840 O.2       9 UNK        -0.5108 
     45 CA        -46.9465  -25.0147   15.3382 C.3       8 UNK         0.0248 
     46 CB        -45.7321  -25.7914   14.8053 C.3       8 UNK        -0.2001 
     47 N         -47.4581  -24.1111   14.3039 N.am      8 UNK        -0.4140 
     48 C         -48.3667  -23.1485   14.5238 C.2       8 UNK         0.5028 
     49 O         -48.8090  -22.8639   15.6370 O.2       8 UNK        -0.5428 
     50 CA        -48.8943  -22.3858   13.2961 C.3       7 UNK         0.0264 
     51 CB        -47.9551  -21.2265   12.9275 C.3       7 UNK        -0.1988 
     52 N         -49.1027  -23.2448   12.1274 N.am      7 UNK        -0.4454 
     53 C         -49.9831  -24.2571   12.0732 C.2       7 UNK         0.5027 
     54 O         -50.7466  -24.5483   12.9940 O.2       7 UNK        -0.5083 
     55 CA        -49.9796  -25.1136   10.7904 C.3       6 UNK         0.0844 
     56 C56       -50.7765  -24.3928    9.6740 C.3       14 UNK        -0.0967 
     57 S57       -50.8561  -25.2964    8.0924 S.3       14 UNK        -0.2604 
     58 C58       -52.2975  -26.3867    8.3399 C.3       14 UNK         0.0134 
     59 N         -48.6113  -25.4737   10.4018 N.am      6 UNK        -0.4116 
     60 C         -47.7653  -26.1911   11.1576 C.2       5 UNK         0.5034 
     61 O         -48.0765  -26.7133   12.2262 O.2       5 UNK        -0.5045 
     62 CA        -46.3080  -26.2918   10.6821 C.3       5 UNK         0.0224 
     63 CB        -46.1162  -27.4554    9.6990 C.3       5 UNK        -0.1978 
     64 N         -45.8501  -25.0437   10.0720 N.am      5 UNK        -0.4737 
     65 C         -45.5488  -23.9362   10.7618 C.2       4 UNK         0.5027 
     66 O         -45.5888  -23.8682   11.9896 O.2       4 UNK        -0.5211 
     67 CA        -45.1701  -22.6894    9.9437 C.3       4 UNK         0.0297 
     68 CB        -43.6700  -22.7001    9.6111 C.3       4 UNK        -0.1993 
     69 N         -45.9466  -22.5570    8.7071 N.am      4 UNK        -0.4486 
     70 C         -47.2634  -22.3121    8.6699 C.2       3 UNK         0.4961 
     71 O         -47.9575  -22.1498    9.6742 O.2       3 UNK        -0.5105 
     72 CA        -47.9304  -22.2931    7.2813 C.3       3 UNK         0.0299 
     73 CB        -47.7386  -20.9223    6.6132 C.3       3 UNK        -0.1972 
     74 N         -47.5082  -23.3574    6.3558 N.am      3 UNK        -0.4305 
     75 C         -47.4811  -24.6656    6.6439 C.2       2 UNK         0.5006 
     76 O         -47.6333  -25.1220    7.7786 O.2       2 UNK        -0.5106 
     77 CA        -47.2430  -25.6482    5.4937 C.3       2 UNK         0.0296 
     78 CB        -45.7370  -25.8668    5.2604 C.3       2 UNK        -0.2002 
     79 N         -47.8855  -26.8929    5.9018 N.am      2 UNK        -0.4032 
     80 C         -48.2063  -27.9426    5.1417 C.2       1 UNK         0.5000 
     81 O         -47.9585  -28.0217    3.9353 O.2       1 UNK        -0.5238 
     82 H82       -51.2105  -27.7445    4.7610 H         1 UNK         0.0889 
     83 H83       -51.9753  -28.8395    5.9285 H         1 UNK         0.0889 
     84 H84       -52.6251  -28.6818    4.3004 H         1 UNK         0.0889 
     85 H85       -49.0001  -30.7498    4.5834 H         1 UNK         0.3028 
     86 H86       -49.6791  -28.6437    6.5113 H         1 UNK         0.0864 
     87 H87       -47.3968  -29.1646    7.4590 H         1 UNK         0.0720 
     88 H88       -47.1649  -30.3494    6.2104 H         1 UNK         0.0720 
     89 H89       -48.3410  -29.4545    9.5711 H         1 UNK         0.0814 
     90 H90       -48.9957  -30.9259   10.2262 H         1 UNK         0.0814 
     91 H91       -49.8468  -27.7253    8.6518 H         1 UNK         0.1469 
     92 H92       -54.0728  -28.1661    9.2817 H         1 UNK         0.1381 
     93 H93       -51.4141  -31.4098   10.1519 H         1 UNK         0.1206 
     94 H94       -53.8040  -31.7699   10.2034 H         1 UNK         0.0813 
     95 H95       -54.8873  -30.5620    9.5508 H         1 UNK         0.0813 
     96 H96       -56.1196  -31.5548   13.1911 H         1 UNK         0.0638 
     97 H97       -55.8613  -32.2503   11.6164 H         1 UNK         0.0638 
     98 H98       -57.2350  -30.4945   10.5544 H         1 UNK         0.0568 
     99 H99       -60.5753  -31.7043   12.0718 H         1 UNK         0.3450 
    100 H100      -59.9042  -30.0949   12.1624 H         1 UNK         0.3450 
    101 H101      -57.5771  -28.5420   11.4659 H         1 UNK         0.2987 
    102 H102      -57.4501  -26.8661   12.9251 H         1 UNK         0.0766 
    103 H103      -59.5485  -26.0268   13.9896 H         1 UNK         0.0798 
    104 H104      -59.9057  -27.6423   14.6015 H         1 UNK         0.0798 
    105 H105      -59.9040  -27.3312   12.8713 H         1 UNK         0.0798 
    106 H106      -57.8561  -26.9478   15.7926 H         1 UNK         0.3198 
    107 H107      -56.1474  -25.9743   17.0533 H         1 UNK         0.0843 
    108 H108      -54.7091  -28.6913   16.9948 H         1 UNK         0.0831 
    109 H109      -56.3862  -28.4429   17.4574 H         1 UNK         0.0831 
    110 H110      -55.1008  -27.7687   18.4459 H         1 UNK         0.0831 
    111 H111      -53.3340  -26.6655   16.8451 H         1 UNK         0.3133 
    112 H112      -52.2573  -23.5530   15.5298 H         1 UNK         0.0566 
    113 H113      -50.8527  -23.5913   17.5669 H         1 UNK         0.0814 
    114 H114      -52.5076  -23.1541   17.9634 H         1 UNK         0.0814 
    115 H115      -51.9238  -24.7724   18.3192 H         1 UNK         0.0814 
    116 H116      -50.9898  -25.1239   14.7445 H         1 UNK         0.3091 
    117 H117      -49.6284  -28.1888   15.9494 H         1 UNK         0.0702 
    118 H118      -49.8135  -28.6273   13.5180 H         1 UNK         0.0785 
    119 H119      -50.9174  -27.2701   13.3214 H         1 UNK         0.0785 
    120 H120      -51.4071  -28.6743   14.2569 H         1 UNK         0.0785 
    121 H121      -48.6809  -26.3634   13.9853 H         1 UNK         0.2998 
    122 H122      -46.6090  -24.3990   16.1747 H         1 UNK         0.0697 
    123 H123      -46.0006  -26.4426   13.9740 H         1 UNK         0.0825 
    124 H124      -45.3015  -26.4213   15.5848 H         1 UNK         0.0825 
    125 H125      -44.9472  -25.1165   14.4632 H         1 UNK         0.0825 
    126 H126      -47.0781  -24.2194   13.3692 H         1 UNK         0.3029 
    127 H127      -49.8639  -21.9628   13.5678 H         1 UNK         0.0897 
    128 H128      -48.3619  -20.6317   12.1094 H         1 UNK         0.0792 
    129 H129      -47.8109  -20.5562   13.7759 H         1 UNK         0.0792 
    130 H130      -46.9713  -21.5840   12.6227 H         1 UNK         0.0792 
    131 H131      -48.5514  -23.0287   11.3000 H         1 UNK         0.3086 
    132 H132      -50.4995  -26.0456   11.0220 H         1 UNK         0.0583 
    133 H133      -51.7939  -24.1819   10.0088 H         1 UNK         0.1020 
    134 H134      -50.3324  -23.4190    9.4613 H         1 UNK         0.1020 
    135 H135      -53.0303  -25.8840    8.9725 H         1 UNK         0.0694 
    136 H136      -52.7770  -26.5209    7.3695 H         1 UNK         0.0694 
    137 H137      -48.2854  -25.1320    9.5005 H         1 UNK         0.2989 
    138 H138      -45.6860  -26.4894   11.5578 H         1 UNK         0.1055 
    139 H139      -46.3397  -28.4071   10.1815 H         1 UNK         0.0806 
    140 H140      -45.0867  -27.5103    9.3448 H         1 UNK         0.0806 
    141 H141      -46.7647  -27.3627    8.8294 H         1 UNK         0.0806 
    142 H142      -45.9019  -24.9875    9.0631 H         1 UNK         0.3061 
    143 H143      -45.3747  -21.8143   10.5644 H         1 UNK         0.0734 
    144 H144      -43.3686  -21.7832    9.1043 H         1 UNK         0.0832 
    145 H145      -43.0712  -22.7774   10.5199 H         1 UNK         0.0832 
    146 H146      -43.4017  -23.5425    8.9724 H         1 UNK         0.0832 
    147 H147      -45.4571  -22.6899    7.8341 H         1 UNK         0.3156 
    148 H148      -49.0004  -22.4354    7.4460 H         1 UNK         0.0589 
    149 H149      -46.6941  -20.7384    6.3585 H         1 UNK         0.0808 
    150 H150      -48.3273  -20.8391    5.6994 H         1 UNK         0.0808 
    151 H151      -48.0595  -20.1164    7.2752 H         1 UNK         0.0808 
    152 H152      -47.3440  -23.0761    5.3997 H         1 UNK         0.3098 
    153 H153      -47.7212  -25.2725    4.5870 H         1 UNK         0.0720 
    154 H154      -45.5580  -26.5771    4.4532 H         1 UNK         0.0791 
    155 H155      -45.2426  -26.2474    6.1553 H         1 UNK         0.0791 
    156 H156      -45.2433  -24.9344    4.9839 H         1 UNK         0.0791 
    157 H157      -48.1468  -26.8731    6.8806 H         1 UNK         0.3028 
@<TRIPOS>BOND
     1    1    2 1    
     2    1   82 1    
     3    1   83 1    
     4    1   84 1    
     5    2    3 2    
     6    2    4 am   BACKBONE|DICT|INTERRES
     7    4    5 1    
     8    4   85 1    
     9    5    6 1    
    10    5   80 1    
    11    5   86 1    
    12    6    7 1    
    13    6   87 1    
    14    6   88 1    
    15    7    8 1    
    16    8    9 1    
    17    8   89 1    
    18    8   90 1    
    19    9   10 ar   
    20    9   14 ar   
    21   10   11 ar   
    22   10   91 1    
    23   11   12 ar   
    24   11   58 1    
    25   12   13 ar   
    26   12   92 1    
    27   13   14 ar   
    28   13   15 1    
    29   14   93 1    
    30   15   16 1    
    31   15   94 1    
    32   15   95 1    
    33   16   17 1    
    34   17   18 1    
    35   17   96 1    
    36   17   97 1    
    37   18   19 1    
    38   18   22 1    
    39   18   98 1    
    40   19   20 am   BACKBONE|DICT|INTERRES
    41   19   21 2    
    42   20   99 1    
    43   20  100 1    
    44   22   23 am   BACKBONE|DICT|INTERRES
    45   22  101 1    
    46   23   24 2    
    47   23   25 1    
    48   25   26 1    
    49   25   27 1    
    50   25  102 1    
    51   26  103 1    
    52   26  104 1    
    53   26  105 1    
    54   27   28 am   BACKBONE|DICT|INTERRES
    55   27  106 1    
    56   28   29 2    
    57   28   30 1    
    58   30   31 1    
    59   30   32 1    
    60   30  107 1    
    61   31  108 1    
    62   31  109 1    
    63   31  110 1    
    64   32   33 am   BACKBONE|DICT|INTERRES
    65   32  111 1    
    66   33   34 2    
    67   33   35 1    
    68   35   36 1    
    69   35   37 1    
    70   35  112 1    
    71   36  113 1    
    72   36  114 1    
    73   36  115 1    
    74   37   38 am   BACKBONE|DICT|INTERRES
    75   37  116 1    
    76   38   39 2    
    77   38   40 1    
    78   40   41 1    
    79   40   42 1    
    80   40  117 1    
    81   41  118 1    
    82   41  119 1    
    83   41  120 1    
    84   42   43 am   BACKBONE|DICT|INTERRES
    85   42  121 1    
    86   43   44 2    
    87   43   45 1    
    88   45   46 1    
    89   45   47 1    
    90   45  122 1    
    91   46  123 1    
    92   46  124 1    
    93   46  125 1    
    94   47   48 am   BACKBONE|DICT|INTERRES
    95   47  126 1    
    96   48   49 2    
    97   48   50 1    
    98   50   51 1    
    99   50   52 1    
   100   50  127 1    
   101   51  128 1    
   102   51  129 1    
   103   51  130 1    
   104   52   53 am   BACKBONE|DICT|INTERRES
   105   52  131 1    
   106   53   54 2    
   107   53   55 1    
   108   55   56 1    
   109   55   59 1    
   110   55  132 1    
   111   56   57 1    
   112   56  133 1    
   113   56  134 1    
   114   57   58 1    
   115   58  135 1    
   116   58  136 1    
   117   59   60 am   BACKBONE|DICT|INTERRES
   118   59  137 1    
   119   60   61 2    
   120   60   62 1    
   121   62   63 1    
   122   62   64 1    
   123   62  138 1    
   124   63  139 1    
   125   63  140 1    
   126   63  141 1    
   127   64   65 am   BACKBONE|DICT|INTERRES
   128   64  142 1    
   129   65   66 2    
   130   65   67 1    
   131   67   68 1    
   132   67   69 1    
   133   67  143 1    
   134   68  144 1    
   135   68  145 1    
   136   68  146 1    
   137   69   70 am   BACKBONE|DICT|INTERRES
   138   69  147 1    
   139   70   71 2    
   140   70   72 1    
   141   72   73 1    
   142   72   74 1    
   143   72  148 1    
   144   73  149 1    
   145   73  150 1    
   146   73  151 1    
   147   74   75 am   BACKBONE|DICT|INTERRES
   148   74  152 1    
   149   75   76 2    
   150   75   77 1    
   151   77   78 1    
   152   77   79 1    
   153   77  153 1    
   154   78  154 1    
   155   78  155 1    
   156   78  156 1    
   157   79   80 am   BACKBONE|DICT|INTERRES
   158   79  157 1    
   159   80   81 2    
@<TRIPOS>SUBSTRUCTURE
     1 UNK         1 GROUP             0       ****    0 ROOT    
