@<TRIPOS>MOLECULE
3R207
157   159    1
SMALL
USER_CHARGES


@<TRIPOS>ATOM
      1 CA        -45.8031  -27.2293    5.5926 C.3       0 UNK        -0.1975 
      2 C         -46.4370  -28.3708    4.8038 C.2       0 UNK         0.4852 
      3 O         -45.9603  -28.6858    3.7143 O.2       0 UNK        -0.5216 
      4 N         -47.5079  -29.0140    5.2905 N.am      1 UNK        -0.4461 
      5 CA        -48.1685  -28.8082    6.5860 C.3       1 UNK         0.0864 
      6 C6        -49.6905  -29.1025    6.4771 C.3       14 UNK        -0.0898 
      7 S7        -50.6930  -28.0450    7.5780 S.3       14 UNK        -0.2598 
      8 C8        -51.8668  -27.3233    6.3839 C.3       14 UNK         0.0286 
      9 C9        -52.9686  -26.5234    7.0662 C.ar      14 UNK        -0.0844 
     10 C10       -53.1435  -25.1647    6.7830 C.ar      14 UNK        -0.0881 
     11 C11       -54.1776  -24.4363    7.3855 C.ar      14 UNK        -0.0643 
     12 C12       -55.0358  -25.0843    8.2809 C.ar      14 UNK        -0.0930 
     13 C13       -54.8839  -26.4468    8.5583 C.ar      14 UNK        -0.0827 
     14 C14       -53.8513  -27.1593    7.9434 C.ar      14 UNK        -0.1249 
     15 C15       -55.8640  -27.1551    9.4851 C.3       14 UNK         0.0141 
     16 S16       -55.3003  -27.1467   11.2154 S.3       14 UNK        -0.2313 
     17 C17       -54.1123  -28.5335   11.2427 C.3       14 UNK        -0.0915 
     18 CA        -54.4743  -29.6369   12.2727 C.3       13 UNK         0.0968 
     19 C         -53.4960  -30.8462   12.1866 C.2       13 UNK         0.5732 
     20 N         -52.9040  -31.3200   13.2781 N.am      13 UNK        -0.7310 
     21 O         -53.2800  -31.3829   11.1029 O.2       13 UNK        -0.5035 
     22 N         -54.6124  -29.0983   13.6350 N.am      13 UNK        -0.4233 
     23 C         -55.5129  -29.5287   14.5278 C.2       13 UNK         0.4989 
     24 O         -56.3720  -30.3757   14.2739 O.2       13 UNK        -0.4996 
     25 CA        -55.4466  -28.9127   15.9409 C.3       12 UNK         0.0216 
     26 CB        -56.1926  -29.7568   16.9966 C.3       12 UNK        -0.1964 
     27 N         -54.0844  -28.6131   16.3992 N.am      12 UNK        -0.4276 
     28 C         -53.0537  -29.4668   16.5202 C.2       12 UNK         0.5020 
     29 O         -53.1226  -30.6593   16.2181 O.2       12 UNK        -0.5489 
     30 CA        -51.7147  -28.8964   17.0313 C.3       11 UNK         0.0294 
     31 CB        -50.5173  -29.5090   16.2802 C.3       11 UNK        -0.2019 
     32 N         -51.6680  -27.4424   16.8757 N.am      11 UNK        -0.4493 
     33 C         -51.7916  -26.5383   17.8571 C.2       11 UNK         0.4932 
     34 O         -51.8640  -26.8293   19.0508 O.2       11 UNK        -0.5029 
     35 CA        -51.8819  -25.0560   17.4387 C.3       10 UNK         0.0280 
     36 CB        -50.5236  -24.3635   17.6298 C.3       10 UNK        -0.1976 
     37 N         -52.3358  -24.8670   16.0553 N.am      10 UNK        -0.4242 
     38 C         -53.5635  -25.1859   15.6103 C.2       10 UNK         0.5072 
     39 O         -54.4654  -25.5878   16.3456 O.2       10 UNK        -0.5224 
     40 CA        -53.8115  -25.1419   14.0896 C.3       9 UNK         0.0343 
     41 CB        -54.4591  -23.8106   13.6834 C.3       9 UNK        -0.2003 
     42 N         -52.5996  -25.3646   13.2949 N.am      9 UNK        -0.4272 
     43 C         -51.8416  -26.4712   13.3616 C.2       9 UNK         0.4988 
     44 O         -52.1829  -27.4731   13.9898 O.2       9 UNK        -0.5108 
     45 CA        -50.4575  -26.4652   12.6827 C.3       8 UNK         0.0248 
     46 CB        -50.4597  -27.3750   11.4464 C.3       8 UNK        -0.2001 
     47 N         -49.9708  -25.1382   12.3006 N.am      8 UNK        -0.4140 
     48 C         -49.7728  -24.1028   13.1342 C.2       8 UNK         0.5028 
     49 O         -49.8968  -24.1800   14.3568 O.2       8 UNK        -0.5428 
     50 CA        -49.4701  -22.7330   12.4938 C.3       7 UNK         0.0264 
     51 CB        -47.9595  -22.4615   12.5223 C.3       7 UNK        -0.1988 
     52 N         -49.9674  -22.6147   11.1162 N.am      7 UNK        -0.4454 
     53 C         -51.2537  -22.7731   10.7566 C.2       7 UNK         0.5027 
     54 O         -52.1691  -22.8611   11.5755 O.2       7 UNK        -0.5083 
     55 CA        -51.5859  -22.9502    9.2591 C.3       6 UNK         0.0844 
     56 C56       -52.4886  -21.8006    8.7498 C.3       14 UNK        -0.0967 
     57 S57       -52.9077  -21.9524    6.9790 S.3       14 UNK        -0.2604 
     58 C58       -54.4214  -22.9697    7.0324 C.3       14 UNK         0.0134 
     59 N         -50.4198  -23.1731    8.3974 N.am      6 UNK        -0.4116 
     60 C         -49.5816  -24.2150    8.4602 C.2       5 UNK         0.5034 
     61 O         -49.6366  -25.0872    9.3286 O.2       5 UNK        -0.5045 
     62 CA        -48.4519  -24.2745    7.4163 C.3       5 UNK         0.0224 
     63 CB        -48.5112  -23.1702    6.3364 C.3       5 UNK        -0.1978 
     64 N         -47.1405  -24.2839    8.0705 N.am      5 UNK        -0.4737 
     65 C         -46.6506  -23.3905    8.9408 C.2       4 UNK         0.5027 
     66 O         -47.2410  -22.3619    9.2772 O.2       4 UNK        -0.5211 
     67 CA        -45.2906  -23.7524    9.5752 C.3       4 UNK         0.0297 
     68 CB        -44.6580  -22.5689   10.3309 C.3       4 UNK        -0.1993 
     69 N         -45.4038  -24.8995   10.4847 N.am      4 UNK        -0.4486 
     70 C         -45.6200  -26.1662   10.1059 C.2       3 UNK         0.4961 
     71 O         -45.6718  -26.5156    8.9231 O.2       3 UNK        -0.5105 
     72 CA        -45.8526  -27.2153   11.2051 C.3       3 UNK         0.0299 
     73 CB        -46.4941  -26.6455   12.4870 C.3       3 UNK        -0.1972 
     74 N         -46.7139  -28.2410   10.6290 N.am      3 UNK        -0.4305 
     75 C         -46.7164  -29.5471   10.9108 C.2       2 UNK         0.5006 
     76 O         -46.0337  -30.0581   11.7994 O.2       2 UNK        -0.5106 
     77 CA        -47.6341  -30.4413   10.0527 C.3       2 UNK         0.0296 
     78 CB        -48.8157  -30.9690   10.8836 C.3       2 UNK        -0.2002 
     79 N         -48.1498  -29.7598    8.8569 N.am      2 UNK        -0.4032 
     80 C         -47.4746  -29.6229    7.7063 C.2       1 UNK         0.5000 
     81 O         -46.3521  -30.1015    7.5235 O.2       1 UNK        -0.5238 
     82 H82       -46.5119  -26.4173    5.7488 H         1 UNK         0.0889 
     83 H83       -44.9474  -26.8215    5.0550 H         1 UNK         0.0889 
     84 H84       -45.4454  -27.5844    6.5577 H         1 UNK         0.0889 
     85 H85       -47.8717  -29.7866    4.7515 H         1 UNK         0.3028 
     86 H86       -48.0531  -27.7589    6.8603 H         1 UNK         0.0864 
     87 H87       -50.0270  -28.9274    5.4537 H         1 UNK         0.0720 
     88 H88       -49.9199  -30.1520    6.6734 H         1 UNK         0.0720 
     89 H89       -51.3152  -26.7015    5.6770 H         1 UNK         0.0814 
     90 H90       -52.3280  -28.1230    5.8024 H         1 UNK         0.0814 
     91 H91       -52.4834  -24.6735    6.0815 H         1 UNK         0.1469 
     92 H92       -55.8433  -24.5343    8.7447 H         1 UNK         0.1381 
     93 H93       -53.7330  -28.2159    8.1374 H         1 UNK         0.1206 
     94 H94       -56.0344  -28.1802    9.1528 H         1 UNK         0.0813 
     95 H95       -56.8357  -26.6615    9.4369 H         1 UNK         0.0813 
     96 H96       -54.0496  -28.9676   10.2453 H         1 UNK         0.0638 
     97 H97       -53.1268  -28.1266   11.4495 H         1 UNK         0.0638 
     98 H98       -55.4408  -30.0368   11.9613 H         1 UNK         0.0568 
     99 H99       -53.0899  -30.9305   14.1954 H         1 UNK         0.3450 
    100 H100      -52.2833  -32.1077   13.1902 H         1 UNK         0.3450 
    101 H101      -53.8896  -28.4452   13.9204 H         1 UNK         0.2987 
    102 H102      -55.9583  -27.9519   15.8683 H         1 UNK         0.0766 
    103 H103      -56.1575  -29.2850   17.9785 H         1 UNK         0.0798 
    104 H104      -57.2447  -29.8751   16.7346 H         1 UNK         0.0798 
    105 H105      -55.7654  -30.7560   17.0889 H         1 UNK         0.0798 
    106 H106      -53.9246  -27.6412   16.6392 H         1 UNK         0.3198 
    107 H107      -51.6329  -29.1683   18.0856 H         1 UNK         0.0843 
    108 H108      -50.4677  -30.5877   16.4336 H         1 UNK         0.0831 
    109 H109      -49.5734  -29.0909   16.6298 H         1 UNK         0.0831 
    110 H110      -50.5837  -29.3363   15.2052 H         1 UNK         0.0831 
    111 H111      -51.6589  -27.1217   15.9132 H         1 UNK         0.3133 
    112 H112      -52.6065  -24.5719   18.0967 H         1 UNK         0.0566 
    113 H113      -49.7488  -24.8182   17.0111 H         1 UNK         0.0814 
    114 H114      -50.1932  -24.4314   18.6672 H         1 UNK         0.0814 
    115 H115      -50.5767  -23.3048   17.3750 H         1 UNK         0.0814 
    116 H116      -51.6313  -24.5629   15.3885 H         1 UNK         0.3091 
    117 H117      -54.5112  -25.9458   13.8545 H         1 UNK         0.0702 
    118 H118      -54.7131  -23.8035   12.6230 H         1 UNK         0.0785 
    119 H119      -53.7971  -22.9651   13.8752 H         1 UNK         0.0785 
    120 H120      -55.3819  -23.6385   14.2390 H         1 UNK         0.0785 
    121 H121      -52.2820  -24.5808   12.7345 H         1 UNK         0.2998 
    122 H122      -49.7499  -26.8749   13.4060 H         1 UNK         0.0697 
    123 H123      -51.1207  -26.9939   10.6662 H         1 UNK         0.0825 
    124 H124      -50.7995  -28.3781   11.7034 H         1 UNK         0.0825 
    125 H125      -49.4620  -27.4669   11.0192 H         1 UNK         0.0825 
    126 H126      -49.8483  -24.9862   11.3029 H         1 UNK         0.3029 
    127 H127      -49.9724  -21.9714   13.0939 H         1 UNK         0.0897 
    128 H128      -47.7194  -21.4895   12.0908 H         1 UNK         0.0792 
    129 H129      -47.5817  -22.4657   13.5457 H         1 UNK         0.0792 
    130 H130      -47.4088  -23.2216   11.9688 H         1 UNK         0.0792 
    131 H131      -49.2661  -22.5440   10.3878 H         1 UNK         0.3086 
    132 H132      -52.1710  -23.8701    9.2117 H         1 UNK         0.0583 
    133 H133      -53.4121  -21.7515    9.3305 H         1 UNK         0.1020 
    134 H134      -51.9931  -20.8383    8.8928 H         1 UNK         0.1020 
    135 H135      -55.1283  -22.5136    7.7273 H         1 UNK         0.0694 
    136 H136      -54.8935  -22.9325    6.0499 H         1 UNK         0.0694 
    137 H137      -50.2815  -22.4913    7.6662 H         1 UNK         0.2989 
    138 H138      -48.5641  -25.2371    6.9155 H         1 UNK         0.1055 
    139 H139      -47.7214  -23.3087    5.5979 H         1 UNK         0.0806 
    140 H140      -48.3904  -22.1712    6.7574 H         1 UNK         0.0806 
    141 H141      -49.4574  -23.1949    5.7935 H         1 UNK         0.0806 
    142 H142      -46.6085  -25.1466    7.9869 H         1 UNK         0.3061 
    143 H143      -44.6140  -24.0216    8.7610 H         1 UNK         0.0734 
    144 H144      -44.5503  -21.7033    9.6758 H         1 UNK         0.0832 
    145 H145      -45.2620  -22.2564   11.1828 H         1 UNK         0.0832 
    146 H146      -43.6630  -22.8194   10.6989 H         1 UNK         0.0832 
    147 H147      -45.3865  -24.6927   11.4724 H         1 UNK         0.3156 
    148 H148      -44.8828  -27.6533   11.4491 H         1 UNK         0.0589 
    149 H149      -47.4029  -26.0876   12.2655 H         1 UNK         0.0808 
    150 H150      -46.7576  -27.4408   13.1846 H         1 UNK         0.0808 
    151 H151      -45.8118  -25.9779   13.0138 H         1 UNK         0.0808 
    152 H152      -47.2378  -27.9283    9.8237 H         1 UNK         0.3098 
    153 H153      -47.0396  -31.3013    9.7367 H         1 UNK         0.0720 
    154 H154      -49.4467  -31.6382   10.2984 H         1 UNK         0.0791 
    155 H155      -48.4631  -31.5330   11.7483 H         1 UNK         0.0791 
    156 H156      -49.4415  -30.1615   11.2590 H         1 UNK         0.0791 
    157 H157      -49.0764  -29.3566    8.9191 H         1 UNK         0.3028 
@<TRIPOS>BOND
     1    1    2 1    
     2    1   82 1    
     3    1   83 1    
     4    1   84 1    
     5    2    3 2    
     6    2    4 am   BACKBONE|DICT|INTERRES
     7    4    5 1    
     8    4   85 1    
     9    5    6 1    
    10    5   80 1    
    11    5   86 1    
    12    6    7 1    
    13    6   87 1    
    14    6   88 1    
    15    7    8 1    
    16    8    9 1    
    17    8   89 1    
    18    8   90 1    
    19    9   10 ar   
    20    9   14 ar   
    21   10   11 ar   
    22   10   91 1    
    23   11   12 ar   
    24   11   58 1    
    25   12   13 ar   
    26   12   92 1    
    27   13   14 ar   
    28   13   15 1    
    29   14   93 1    
    30   15   16 1    
    31   15   94 1    
    32   15   95 1    
    33   16   17 1    
    34   17   18 1    
    35   17   96 1    
    36   17   97 1    
    37   18   19 1    
    38   18   22 1    
    39   18   98 1    
    40   19   20 am   BACKBONE|DICT|INTERRES
    41   19   21 2    
    42   20   99 1    
    43   20  100 1    
    44   22   23 am   BACKBONE|DICT|INTERRES
    45   22  101 1    
    46   23   24 2    
    47   23   25 1    
    48   25   26 1    
    49   25   27 1    
    50   25  102 1    
    51   26  103 1    
    52   26  104 1    
    53   26  105 1    
    54   27   28 am   BACKBONE|DICT|INTERRES
    55   27  106 1    
    56   28   29 2    
    57   28   30 1    
    58   30   31 1    
    59   30   32 1    
    60   30  107 1    
    61   31  108 1    
    62   31  109 1    
    63   31  110 1    
    64   32   33 am   BACKBONE|DICT|INTERRES
    65   32  111 1    
    66   33   34 2    
    67   33   35 1    
    68   35   36 1    
    69   35   37 1    
    70   35  112 1    
    71   36  113 1    
    72   36  114 1    
    73   36  115 1    
    74   37   38 am   BACKBONE|DICT|INTERRES
    75   37  116 1    
    76   38   39 2    
    77   38   40 1    
    78   40   41 1    
    79   40   42 1    
    80   40  117 1    
    81   41  118 1    
    82   41  119 1    
    83   41  120 1    
    84   42   43 am   BACKBONE|DICT|INTERRES
    85   42  121 1    
    86   43   44 2    
    87   43   45 1    
    88   45   46 1    
    89   45   47 1    
    90   45  122 1    
    91   46  123 1    
    92   46  124 1    
    93   46  125 1    
    94   47   48 am   BACKBONE|DICT|INTERRES
    95   47  126 1    
    96   48   49 2    
    97   48   50 1    
    98   50   51 1    
    99   50   52 1    
   100   50  127 1    
   101   51  128 1    
   102   51  129 1    
   103   51  130 1    
   104   52   53 am   BACKBONE|DICT|INTERRES
   105   52  131 1    
   106   53   54 2    
   107   53   55 1    
   108   55   56 1    
   109   55   59 1    
   110   55  132 1    
   111   56   57 1    
   112   56  133 1    
   113   56  134 1    
   114   57   58 1    
   115   58  135 1    
   116   58  136 1    
   117   59   60 am   BACKBONE|DICT|INTERRES
   118   59  137 1    
   119   60   61 2    
   120   60   62 1    
   121   62   63 1    
   122   62   64 1    
   123   62  138 1    
   124   63  139 1    
   125   63  140 1    
   126   63  141 1    
   127   64   65 am   BACKBONE|DICT|INTERRES
   128   64  142 1    
   129   65   66 2    
   130   65   67 1    
   131   67   68 1    
   132   67   69 1    
   133   67  143 1    
   134   68  144 1    
   135   68  145 1    
   136   68  146 1    
   137   69   70 am   BACKBONE|DICT|INTERRES
   138   69  147 1    
   139   70   71 2    
   140   70   72 1    
   141   72   73 1    
   142   72   74 1    
   143   72  148 1    
   144   73  149 1    
   145   73  150 1    
   146   73  151 1    
   147   74   75 am   BACKBONE|DICT|INTERRES
   148   74  152 1    
   149   75   76 2    
   150   75   77 1    
   151   77   78 1    
   152   77   79 1    
   153   77  153 1    
   154   78  154 1    
   155   78  155 1    
   156   78  156 1    
   157   79   80 am   BACKBONE|DICT|INTERRES
   158   79  157 1    
   159   80   81 2    
@<TRIPOS>SUBSTRUCTURE
     1 UNK         1 GROUP             0       ****    0 ROOT    
