@<TRIPOS>MOLECULE
3R207
157   159    1
SMALL
USER_CHARGES


@<TRIPOS>ATOM
      1 CA        -47.7523  -31.6848    7.4481 C.3       0 UNK        -0.1975 
      2 C         -47.6256  -30.8843    6.1623 C.2       0 UNK         0.4852 
      3 O         -46.5156  -30.7069    5.6595 O.2       0 UNK        -0.5216 
      4 N         -48.7460  -30.3840    5.6245 N.am      1 UNK        -0.4461 
      5 CA        -48.8445  -29.6847    4.3327 C.3       1 UNK         0.0864 
      6 C6        -50.2527  -29.8338    3.6863 C.3       14 UNK        -0.0898 
      7 S7        -50.9170  -31.5375    3.7695 S.3       14 UNK        -0.2598 
      8 C8        -52.5588  -31.3085    4.5414 C.3       14 UNK         0.0286 
      9 C9        -52.5337  -30.4511    5.8038 C.ar      14 UNK        -0.0844 
     10 C10       -51.8038  -30.8512    6.9288 C.ar      14 UNK        -0.0881 
     11 C11       -51.7677  -30.0463    8.0733 C.ar      14 UNK        -0.0643 
     12 C12       -52.4933  -28.8528    8.0928 C.ar      14 UNK        -0.0930 
     13 C13       -53.2380  -28.4473    6.9857 C.ar      14 UNK        -0.0827 
     14 C14       -53.2512  -29.2499    5.8416 C.ar      14 UNK        -0.1249 
     15 C15       -54.0104  -27.1360    7.0213 C.3       14 UNK         0.0141 
     16 S16       -55.4229  -27.1992    8.1709 S.3       14 UNK        -0.2313 
     17 C17       -54.7641  -26.3613    9.6556 C.3       14 UNK        -0.0915 
     18 CA        -55.2592  -27.0127   10.9826 C.3       13 UNK         0.0968 
     19 C         -54.1733  -27.9146   11.6435 C.2       13 UNK         0.5732 
     20 N         -53.6102  -27.5551   12.7927 N.am      13 UNK        -0.7310 
     21 O         -53.8458  -28.9700   11.1111 O.2       13 UNK        -0.5035 
     22 N         -55.8281  -26.0072   11.8928 N.am      13 UNK        -0.4233 
     23 C         -56.6769  -26.2947   12.8858 C.2       13 UNK         0.4989 
     24 O         -57.1776  -27.4059   13.0738 O.2       13 UNK        -0.4996 
     25 CA        -56.9919  -25.1540   13.8656 C.3       12 UNK         0.0216 
     26 CB        -58.5041  -24.8814   13.9392 C.3       12 UNK        -0.1964 
     27 N         -56.4852  -25.4790   15.2002 N.am      12 UNK        -0.4276 
     28 C         -55.1874  -25.6000   15.5055 C.2       12 UNK         0.5020 
     29 O         -54.2690  -25.3965   14.7053 O.2       12 UNK        -0.5489 
     30 CA        -54.8558  -26.0506   16.9299 C.3       11 UNK         0.0294 
     31 CB        -54.7143  -27.5808   17.0022 C.3       11 UNK        -0.2019 
     32 N         -53.5996  -25.4217   17.3177 N.am      11 UNK        -0.4493 
     33 C         -53.2699  -25.0418   18.5562 C.2       11 UNK         0.4932 
     34 O         -53.9751  -25.2409   19.5473 O.2       11 UNK        -0.5029 
     35 CA        -51.9254  -24.3084   18.6900 C.3       10 UNK         0.0280 
     36 CB        -51.5570  -23.9429   20.1447 C.3       10 UNK        -0.1976 
     37 N         -50.8442  -25.0338   18.0161 N.am      10 UNK        -0.4242 
     38 C         -50.2882  -26.2064   18.3663 C.2       10 UNK         0.5072 
     39 O         -50.6135  -26.8480   19.3662 O.2       10 UNK        -0.5224 
     40 CA        -49.1797  -26.7803   17.4544 C.3       9 UNK         0.0343 
     41 CB        -49.6302  -28.1140   16.8355 C.3       9 UNK        -0.2003 
     42 N         -48.7679  -25.8690   16.3816 N.am      9 UNK        -0.4272 
     43 C         -48.0537  -24.7467   16.5654 C.2       9 UNK         0.4988 
     44 O         -47.5257  -24.4518   17.6381 O.2       9 UNK        -0.5108 
     45 CA        -47.9448  -23.7520   15.3902 C.3       8 UNK         0.0248 
     46 CB        -46.5103  -23.7205   14.8384 C.3       8 UNK        -0.2001 
     47 N         -48.8933  -23.9806   14.2920 N.am      8 UNK        -0.4140 
     48 C         -50.2312  -23.9623   14.3994 C.2       8 UNK         0.5028 
     49 O         -50.8256  -23.7079   15.4482 O.2       8 UNK        -0.5428 
     50 CA        -51.0448  -24.3549   13.1541 C.3       7 UNK         0.0264 
     51 CB        -51.4012  -23.1106   12.3275 C.3       7 UNK        -0.1988 
     52 N         -50.3802  -25.3453   12.2989 N.am      7 UNK        -0.4454 
     53 C         -50.0591  -26.5922   12.6791 C.2       7 UNK         0.5027 
     54 O         -50.2883  -27.0373   13.8035 O.2       7 UNK        -0.5083 
     55 CA        -49.3246  -27.4806   11.6528 C.3       6 UNK         0.0844 
     56 C56       -50.2989  -28.0329   10.5896 C.3       14 UNK        -0.0967 
     57 S57       -49.5412  -29.3538    9.5824 S.3       14 UNK        -0.2604 
     58 C58       -50.9598  -30.4649    9.2943 C.3       14 UNK         0.0134 
     59 N         -48.1936  -26.7694   11.0546 N.am      6 UNK        -0.4116 
     60 C         -47.0946  -26.3954   11.7231 C.2       5 UNK         0.5034 
     61 O         -46.8536  -26.7164   12.8864 O.2       5 UNK        -0.5045 
     62 CA        -46.1184  -25.4692   10.9826 C.3       5 UNK         0.0224 
     63 CB        -45.0816  -26.2829   10.1916 C.3       5 UNK        -0.1978 
     64 N         -46.8171  -24.5413   10.0881 N.am      5 UNK        -0.4737 
     65 C         -47.5391  -23.4938   10.5118 C.2       4 UNK         0.5027 
     66 O         -47.6624  -23.1886   11.6968 O.2       4 UNK        -0.5211 
     67 CA        -48.2732  -22.6661    9.4427 C.3       4 UNK         0.0297 
     68 CB        -47.3356  -21.6039    8.8479 C.3       4 UNK        -0.1993 
     69 N         -48.8343  -23.4842    8.3653 N.am      4 UNK        -0.4486 
     70 C         -49.8154  -24.3831    8.5260 C.2       3 UNK         0.4961 
     71 O         -50.3821  -24.5963    9.5959 O.2       3 UNK        -0.5105 
     72 CA        -50.1989  -25.2250    7.2984 C.3       3 UNK         0.0299 
     73 CB        -51.2614  -24.4961    6.4614 C.3       3 UNK        -0.1972 
     74 N         -49.0701  -25.5951    6.4377 N.am      3 UNK        -0.4305 
     75 C         -47.9511  -26.2163    6.8351 C.2       2 UNK         0.5006 
     76 O         -47.6995  -26.4975    8.0080 O.2       2 UNK        -0.5106 
     77 CA        -46.9706  -26.6243    5.7227 C.3       2 UNK         0.0296 
     78 CB        -45.5161  -26.6754    6.2242 C.3       2 UNK        -0.2002 
     79 N         -47.3475  -27.9400    5.2140 N.am      2 UNK        -0.4032 
     80 C         -48.4205  -28.2010    4.4559 C.2       1 UNK         0.5000 
     81 O         -49.0852  -27.3155    3.9111 O.2       1 UNK        -0.5238 
     82 H82       -47.3539  -31.1147    8.2868 H         1 UNK         0.0889 
     83 H83       -47.1889  -32.6141    7.3690 H         1 UNK         0.0889 
     84 H84       -48.7882  -31.9397    7.6645 H         1 UNK         0.0889 
     85 H85       -49.6280  -30.5121    6.0999 H         1 UNK         0.3028 
     86 H86       -48.1307  -30.1494    3.6491 H         1 UNK         0.0864 
     87 H87       -50.2096  -29.5438    2.6350 H         1 UNK         0.0720 
     88 H88       -50.9611  -29.1453    4.1475 H         1 UNK         0.0720 
     89 H89       -52.9720  -32.2880    4.7860 H         1 UNK         0.0814 
     90 H90       -53.2292  -30.8757    3.7972 H         1 UNK         0.0814 
     91 H91       -51.2635  -31.7878    6.9068 H         1 UNK         0.1469 
     92 H92       -52.4882  -28.2378    8.9780 H         1 UNK         0.1381 
     93 H93       -53.8203  -28.9372    4.9767 H         1 UNK         0.1206 
     94 H94       -54.3895  -26.8940    6.0274 H         1 UNK         0.0813 
     95 H95       -53.3400  -26.3211    7.2921 H         1 UNK         0.0813 
     96 H96       -55.0953  -25.3240    9.5860 H         1 UNK         0.0638 
     97 H97       -53.6745  -26.3101    9.6138 H         1 UNK         0.0638 
     98 H98       -56.0782  -27.6925   10.7393 H         1 UNK         0.0568 
     99 H99       -53.8857  -26.7073   13.2774 H         1 UNK         0.3450 
    100 H100      -52.9176  -28.1564   13.2070 H         1 UNK         0.3450 
    101 H101      -55.4342  -25.0798   11.8372 H         1 UNK         0.2987 
    102 H102      -56.4981  -24.2403   13.5269 H         1 UNK         0.0766 
    103 H103      -58.7251  -24.0436   14.6008 H         1 UNK         0.0798 
    104 H104      -59.0568  -25.7498   14.3007 H         1 UNK         0.0798 
    105 H105      -58.9020  -24.6294   12.9552 H         1 UNK         0.0798 
    106 H106      -57.1754  -25.7042   15.9023 H         1 UNK         0.3198 
    107 H107      -55.6550  -25.7222   17.5983 H         1 UNK         0.0843 
    108 H108      -54.4796  -27.9099   18.0147 H         1 UNK         0.0831 
    109 H109      -53.9248  -27.9423   16.3415 H         1 UNK         0.0831 
    110 H110      -55.6404  -28.0749   16.7058 H         1 UNK         0.0831 
    111 H111      -52.9992  -25.1762   16.5382 H         1 UNK         0.3133 
    112 H112      -52.0377  -23.3709   18.1433 H         1 UNK         0.0566 
    113 H113      -50.6008  -23.4220   20.1928 H         1 UNK         0.0814 
    114 H114      -52.3083  -23.2828   20.5796 H         1 UNK         0.0814 
    115 H115      -51.4935  -24.8225   20.7857 H         1 UNK         0.0814 
    116 H116      -50.5545  -24.6184   17.1339 H         1 UNK         0.3091 
    117 H117      -48.3099  -26.9758   18.0848 H         1 UNK         0.0702 
    118 H118      -50.5514  -28.0000   16.2629 H         1 UNK         0.0785 
    119 H119      -49.8212  -28.8584   17.6096 H         1 UNK         0.0785 
    120 H120      -48.8695  -28.5246   16.1712 H         1 UNK         0.0785 
    121 H121      -49.1617  -26.0519   15.4656 H         1 UNK         0.2998 
    122 H122      -48.1674  -22.7640   15.7977 H         1 UNK         0.0697 
    123 H123      -46.3939  -22.9533   14.0730 H         1 UNK         0.0825 
    124 H124      -45.7923  -23.4960   15.6283 H         1 UNK         0.0825 
    125 H125      -46.2237  -24.6774   14.4039 H         1 UNK         0.0825 
    126 H126      -48.4914  -24.1168   13.3704 H         1 UNK         0.3029 
    127 H127      -51.9744  -24.8053   13.5065 H         1 UNK         0.0897 
    128 H128      -52.0548  -23.3636   11.4925 H         1 UNK         0.0792 
    129 H129      -51.9253  -22.3738   12.9377 H         1 UNK         0.0792 
    130 H130      -50.5107  -22.6286   11.9233 H         1 UNK         0.0792 
    131 H131      -50.2111  -25.0639   11.3337 H         1 UNK         0.3086 
    132 H132      -48.9202  -28.3312   12.2065 H         1 UNK         0.0583 
    133 H133      -51.1877  -28.4342   11.0779 H         1 UNK         0.1020 
    134 H134      -50.6423  -27.2362    9.9293 H         1 UNK         0.1020 
    135 H135      -50.5830  -31.4805    9.1697 H         1 UNK         0.0694 
    136 H136      -51.6069  -30.4961   10.1718 H         1 UNK         0.0694 
    137 H137      -48.2709  -26.5202   10.0750 H         1 UNK         0.2989 
    138 H138      -45.5867  -24.8816   11.7348 H         1 UNK         0.1055 
    139 H139      -44.4962  -26.9159   10.8597 H         1 UNK         0.0806 
    140 H140      -44.3821  -25.6334    9.6652 H         1 UNK         0.0806 
    141 H141      -45.5512  -26.9376    9.4575 H         1 UNK         0.0806 
    142 H142      -46.8437  -24.7904    9.1076 H         1 UNK         0.3061 
    143 H143      -49.1007  -22.1511    9.9349 H         1 UNK         0.0734 
    144 H144      -47.8636  -20.9525    8.1513 H         1 UNK         0.0832 
    145 H145      -46.9218  -20.9682    9.6321 H         1 UNK         0.0832 
    146 H146      -46.4955  -22.0545    8.3177 H         1 UNK         0.0832 
    147 H147      -48.4266  -23.3813    7.4474 H         1 UNK         0.3156 
    148 H148      -50.6357  -26.1555    7.6666 H         1 UNK         0.0589 
    149 H149      -50.8627  -23.5913    6.0010 H         1 UNK         0.0808 
    150 H150      -51.6471  -25.1352    5.6666 H         1 UNK         0.0808 
    151 H151      -52.1105  -24.1980    7.0784 H         1 UNK         0.0808 
    152 H152      -49.2083  -25.4783    5.4421 H         1 UNK         0.3098 
    153 H153      -47.0283  -25.8924    4.9141 H         1 UNK         0.0720 
    154 H154      -45.3780  -27.4361    6.9937 H         1 UNK         0.0791 
    155 H155      -45.2162  -25.7184    6.6532 H         1 UNK         0.0791 
    156 H156      -44.8257  -26.8970    5.4103 H         1 UNK         0.0791 
    157 H157      -46.8597  -28.7398    5.6045 H         1 UNK         0.3028 
@<TRIPOS>BOND
     1    1    2 1    
     2    1   82 1    
     3    1   83 1    
     4    1   84 1    
     5    2    3 2    
     6    2    4 am   BACKBONE|DICT|INTERRES
     7    4    5 1    
     8    4   85 1    
     9    5    6 1    
    10    5   80 1    
    11    5   86 1    
    12    6    7 1    
    13    6   87 1    
    14    6   88 1    
    15    7    8 1    
    16    8    9 1    
    17    8   89 1    
    18    8   90 1    
    19    9   10 ar   
    20    9   14 ar   
    21   10   11 ar   
    22   10   91 1    
    23   11   12 ar   
    24   11   58 1    
    25   12   13 ar   
    26   12   92 1    
    27   13   14 ar   
    28   13   15 1    
    29   14   93 1    
    30   15   16 1    
    31   15   94 1    
    32   15   95 1    
    33   16   17 1    
    34   17   18 1    
    35   17   96 1    
    36   17   97 1    
    37   18   19 1    
    38   18   22 1    
    39   18   98 1    
    40   19   20 am   BACKBONE|DICT|INTERRES
    41   19   21 2    
    42   20   99 1    
    43   20  100 1    
    44   22   23 am   BACKBONE|DICT|INTERRES
    45   22  101 1    
    46   23   24 2    
    47   23   25 1    
    48   25   26 1    
    49   25   27 1    
    50   25  102 1    
    51   26  103 1    
    52   26  104 1    
    53   26  105 1    
    54   27   28 am   BACKBONE|DICT|INTERRES
    55   27  106 1    
    56   28   29 2    
    57   28   30 1    
    58   30   31 1    
    59   30   32 1    
    60   30  107 1    
    61   31  108 1    
    62   31  109 1    
    63   31  110 1    
    64   32   33 am   BACKBONE|DICT|INTERRES
    65   32  111 1    
    66   33   34 2    
    67   33   35 1    
    68   35   36 1    
    69   35   37 1    
    70   35  112 1    
    71   36  113 1    
    72   36  114 1    
    73   36  115 1    
    74   37   38 am   BACKBONE|DICT|INTERRES
    75   37  116 1    
    76   38   39 2    
    77   38   40 1    
    78   40   41 1    
    79   40   42 1    
    80   40  117 1    
    81   41  118 1    
    82   41  119 1    
    83   41  120 1    
    84   42   43 am   BACKBONE|DICT|INTERRES
    85   42  121 1    
    86   43   44 2    
    87   43   45 1    
    88   45   46 1    
    89   45   47 1    
    90   45  122 1    
    91   46  123 1    
    92   46  124 1    
    93   46  125 1    
    94   47   48 am   BACKBONE|DICT|INTERRES
    95   47  126 1    
    96   48   49 2    
    97   48   50 1    
    98   50   51 1    
    99   50   52 1    
   100   50  127 1    
   101   51  128 1    
   102   51  129 1    
   103   51  130 1    
   104   52   53 am   BACKBONE|DICT|INTERRES
   105   52  131 1    
   106   53   54 2    
   107   53   55 1    
   108   55   56 1    
   109   55   59 1    
   110   55  132 1    
   111   56   57 1    
   112   56  133 1    
   113   56  134 1    
   114   57   58 1    
   115   58  135 1    
   116   58  136 1    
   117   59   60 am   BACKBONE|DICT|INTERRES
   118   59  137 1    
   119   60   61 2    
   120   60   62 1    
   121   62   63 1    
   122   62   64 1    
   123   62  138 1    
   124   63  139 1    
   125   63  140 1    
   126   63  141 1    
   127   64   65 am   BACKBONE|DICT|INTERRES
   128   64  142 1    
   129   65   66 2    
   130   65   67 1    
   131   67   68 1    
   132   67   69 1    
   133   67  143 1    
   134   68  144 1    
   135   68  145 1    
   136   68  146 1    
   137   69   70 am   BACKBONE|DICT|INTERRES
   138   69  147 1    
   139   70   71 2    
   140   70   72 1    
   141   72   73 1    
   142   72   74 1    
   143   72  148 1    
   144   73  149 1    
   145   73  150 1    
   146   73  151 1    
   147   74   75 am   BACKBONE|DICT|INTERRES
   148   74  152 1    
   149   75   76 2    
   150   75   77 1    
   151   77   78 1    
   152   77   79 1    
   153   77  153 1    
   154   78  154 1    
   155   78  155 1    
   156   78  156 1    
   157   79   80 am   BACKBONE|DICT|INTERRES
   158   79  157 1    
   159   80   81 2    
@<TRIPOS>SUBSTRUCTURE
     1 UNK         1 GROUP             0       ****    0 ROOT    
