@<TRIPOS>MOLECULE
3R207
157   159    1
SMALL
USER_CHARGES


@<TRIPOS>ATOM
      1 CA        -51.6023  -31.7422    5.3408 C.3       0 UNK        -0.1975 
      2 C         -51.0673  -30.4307    5.8968 C.2       0 UNK         0.4852 
      3 O         -51.6729  -29.3819    5.6722 O.2       0 UNK        -0.5216 
      4 N         -49.9461  -30.4887    6.6268 N.am      1 UNK        -0.4461 
      5 CA        -49.2856  -29.3364    7.2513 C.3       1 UNK         0.0864 
      6 C6        -48.2417  -29.7619    8.3230 C.3       14 UNK        -0.0898 
      7 S7        -48.8136  -31.0623    9.4747 S.3       14 UNK        -0.2598 
      8 C8        -49.5718  -30.1028   10.8294 C.3       14 UNK         0.0286 
      9 C9        -50.8160  -29.3464   10.3817 C.ar      14 UNK        -0.0844 
     10 C10       -50.9059  -27.9648   10.5705 C.ar      14 UNK        -0.0881 
     11 C11       -52.0132  -27.2557   10.0953 C.ar      14 UNK        -0.0643 
     12 C12       -53.0391  -27.9374    9.4348 C.ar      14 UNK        -0.0930 
     13 C13       -52.9768  -29.3252    9.2673 C.ar      14 UNK        -0.0827 
     14 C14       -51.8684  -30.0224    9.7555 C.ar      14 UNK        -0.1249 
     15 C15       -54.0584  -30.0784    8.4995 C.3       14 UNK         0.0141 
     16 S16       -55.7586  -29.6269    8.9749 S.3       14 UNK        -0.2313 
     17 C17       -55.8620  -30.2256   10.6969 C.3       14 UNK        -0.0915 
     18 CA        -56.1424  -29.0760   11.7079 C.3       13 UNK         0.0968 
     19 C         -57.5860  -28.4884   11.6325 C.2       13 UNK         0.5732 
     20 N         -57.8817  -27.4475   12.3995 N.am      13 UNK        -0.7310 
     21 O         -58.4485  -28.9700   10.9007 O.2       13 UNK        -0.5035 
     22 N         -55.7552  -29.4379   13.0800 N.am      13 UNK        -0.4233 
     23 C         -56.3748  -30.3347   13.8628 C.2       13 UNK         0.4989 
     24 O         -57.3022  -31.0562   13.4945 O.2       13 UNK        -0.4996 
     25 CA        -55.8952  -30.4280   15.3195 C.3       12 UNK         0.0216 
     26 CB        -54.6838  -31.3681   15.4414 C.3       12 UNK        -0.1964 
     27 N         -55.5596  -29.1035   15.8477 N.am      12 UNK        -0.4276 
     28 C         -56.4522  -28.2566   16.3825 C.2       12 UNK         0.5020 
     29 O         -57.6305  -28.5488   16.5906 O.2       12 UNK        -0.5489 
     30 CA        -55.9622  -26.8417   16.7492 C.3       11 UNK         0.0294 
     31 CB        -55.5601  -26.7808   18.2317 C.3       11 UNK        -0.2019 
     32 N         -54.8421  -26.3785   15.9262 N.am      11 UNK        -0.4493 
     33 C         -54.9220  -26.0870   14.6199 C.2       11 UNK         0.4932 
     34 O         -55.9721  -26.0984   13.9799 O.2       11 UNK        -0.5029 
     35 CA        -53.6019  -25.7856   13.8869 C.3       10 UNK         0.0280 
     36 CB        -53.3517  -24.2715   13.8261 C.3       10 UNK        -0.1976 
     37 N         -52.4293  -26.4530   14.4655 N.am      10 UNK        -0.4242 
     38 C         -52.2828  -27.7784   14.6021 C.2       10 UNK         0.5072 
     39 O         -53.1580  -28.5795   14.2703 O.2       10 UNK        -0.5224 
     40 CA        -51.0035  -28.3184   15.2772 C.3       9 UNK         0.0343 
     41 CB        -50.2923  -29.3422   14.3699 C.3       9 UNK        -0.2003 
     42 N         -50.0503  -27.3116   15.7798 N.am      9 UNK        -0.4272 
     43 C         -49.3400  -26.4320   15.0599 C.2       9 UNK         0.4988 
     44 O         -49.4748  -26.2863   13.8451 O.2       9 UNK        -0.5108 
     45 CA        -48.3210  -25.5767   15.8301 C.3       8 UNK         0.0248 
     46 CB        -47.0843  -26.4107   16.2054 C.3       8 UNK        -0.2001 
     47 N         -47.8976  -24.4672   14.9802 N.am      8 UNK        -0.4140 
     48 C         -47.9094  -23.1667   15.3045 C.2       8 UNK         0.5028 
     49 O         -48.1525  -22.7451   16.4362 O.2       8 UNK        -0.5428 
     50 CA        -47.6234  -22.1541   14.1719 C.3       7 UNK         0.0264 
     51 CB        -46.1545  -21.7030   14.2082 C.3       7 UNK        -0.1988 
     52 N         -47.9234  -22.6950   12.8432 N.am      7 UNK        -0.4454 
     53 C         -49.1511  -23.0402   12.4295 C.2       7 UNK         0.5027 
     54 O         -50.1724  -22.6634   13.0060 O.2       7 UNK        -0.5083 
     55 CA        -49.2816  -24.0196   11.2367 C.3       6 UNK         0.0844 
     56 C56       -50.3508  -23.5436   10.2174 C.3       14 UNK        -0.0967 
     57 S57       -50.9347  -24.9042    9.1550 S.3       14 UNK        -0.2604 
     58 C58       -52.0839  -25.7508   10.2847 C.3       14 UNK         0.0134 
     59 N         -48.0191  -24.4139   10.5911 N.am      6 UNK        -0.4116 
     60 C         -46.9990  -25.0834   11.1528 C.2       5 UNK         0.5034 
     61 O         -46.9681  -25.4277   12.3331 O.2       5 UNK        -0.5045 
     62 CA        -45.7716  -25.3647   10.2740 C.3       5 UNK         0.0224 
     63 CB        -45.8875  -26.7390    9.5956 C.3       5 UNK        -0.1978 
     64 N         -45.5611  -24.3248    9.2641 N.am      5 UNK        -0.4737 
     65 C         -45.0168  -23.1255    9.5130 C.2       4 UNK         0.5027 
     66 O         -44.6072  -22.7819   10.6218 O.2       4 UNK        -0.5211 
     67 CA        -44.9055  -22.1445    8.3315 C.3       4 UNK         0.0297 
     68 CB        -43.5361  -22.2865    7.6480 C.3       4 UNK        -0.1993 
     69 N         -45.9642  -22.3270    7.3350 N.am      4 UNK        -0.4486 
     70 C         -47.2315  -21.9215    7.4960 C.2       3 UNK         0.4961 
     71 O         -47.6324  -21.2920    8.4750 O.2       3 UNK        -0.5105 
     72 CA        -48.2314  -22.3177    6.3919 C.3       3 UNK         0.0299 
     73 CB        -48.2407  -21.2653    5.2716 C.3       3 UNK        -0.1972 
     74 N         -48.0090  -23.6515    5.8128 N.am      3 UNK        -0.4305 
     75 C         -47.9751  -24.7887    6.5198 C.2       2 UNK         0.5006 
     76 O         -48.0267  -24.8284    7.7493 O.2       2 UNK        -0.5106 
     77 CA        -47.8001  -26.0997    5.7518 C.3       2 UNK         0.0296 
     78 CB        -46.3012  -26.3785    5.5180 C.3       2 UNK        -0.2002 
     79 N         -48.4099  -27.1537    6.5613 N.am      2 UNK        -0.4032 
     80 C         -48.6308  -28.4195    6.1926 C.2       1 UNK         0.5000 
     81 O         -48.3109  -28.8751    5.0899 O.2       1 UNK        -0.5238 
     82 H82       -50.9814  -32.5906    5.6281 H         1 UNK         0.0889 
     83 H83       -51.6385  -31.7010    4.2525 H         1 UNK         0.0889 
     84 H84       -52.6119  -31.9210    5.7098 H         1 UNK         0.0889 
     85 H85       -49.4888  -31.3766    6.7731 H         1 UNK         0.3028 
     86 H86       -50.0644  -28.7523    7.7461 H         1 UNK         0.0864 
     87 H87       -47.3396  -30.1442    7.8409 H         1 UNK         0.0720 
     88 H88       -47.9254  -28.8976    8.9081 H         1 UNK         0.0720 
     89 H89       -48.8253  -29.4237   11.2446 H         1 UNK         0.0814 
     90 H90       -49.8485  -30.7876   11.6318 H         1 UNK         0.0814 
     91 H91       -50.1057  -27.4310   11.0664 H         1 UNK         0.1469 
     92 H92       -53.8836  -27.3871    9.0438 H         1 UNK         0.1381 
     93 H93       -51.7985  -31.0914    9.6082 H         1 UNK         0.1206 
     94 H94       -53.9393  -31.1567    8.6166 H         1 UNK         0.0813 
     95 H95       -53.9301  -29.8704    7.4366 H         1 UNK         0.0813 
     96 H96       -56.6295  -30.9988   10.7586 H         1 UNK         0.0638 
     97 H97       -54.9220  -30.7183   10.9498 H         1 UNK         0.0638 
     98 H98       -55.4794  -28.2510   11.4436 H         1 UNK         0.0568 
     99 H99       -58.8119  -27.0634   12.3670 H         1 UNK         0.3450 
    100 H100      -57.1791  -27.0174   12.9977 H         1 UNK         0.3450 
    101 H101      -54.9597  -28.9376   13.4614 H         1 UNK         0.2987 
    102 H102      -56.7069  -30.8545   15.9132 H         1 UNK         0.0766 
    103 H103      -54.9417  -32.3747   15.1095 H         1 UNK         0.0798 
    104 H104      -54.3442  -31.4452   16.4743 H         1 UNK         0.0798 
    105 H105      -53.8410  -31.0354   14.8352 H         1 UNK         0.0798 
    106 H106      -54.6234  -28.7694   15.6482 H         1 UNK         0.3198 
    107 H107      -56.7988  -26.1568   16.5934 H         1 UNK         0.0843 
    108 H108      -54.7149  -27.4348   18.4501 H         1 UNK         0.0831 
    109 H109      -56.3865  -27.0933   18.8719 H         1 UNK         0.0831 
    110 H110      -55.2890  -25.7677   18.5292 H         1 UNK         0.0831 
    111 H111      -53.9377  -26.3258   16.3716 H         1 UNK         0.3133 
    112 H112      -53.7129  -26.1553   12.8656 H         1 UNK         0.0566 
    113 H113      -52.4774  -24.0376   13.2194 H         1 UNK         0.0814 
    114 H114      -54.2006  -23.7525   13.3787 H         1 UNK         0.0814 
    115 H115      -53.1946  -23.8462   14.8181 H         1 UNK         0.0814 
    116 H116      -51.6446  -25.8685   14.7156 H         1 UNK         0.3091 
    117 H117      -51.3505  -28.8574   16.1599 H         1 UNK         0.0702 
    118 H118      -49.4430  -29.8002   14.8764 H         1 UNK         0.0785 
    119 H119      -49.9273  -28.8792   13.4537 H         1 UNK         0.0785 
    120 H120      -50.9682  -30.1473   14.0778 H         1 UNK         0.0785 
    121 H121      -49.8930  -27.3355   16.7784 H         1 UNK         0.2998 
    122 H122      -48.8016  -25.2037   16.7368 H         1 UNK         0.0697 
    123 H123      -46.5959  -26.8231   15.3210 H         1 UNK         0.0825 
    124 H124      -47.3500  -27.2470   16.8530 H         1 UNK         0.0825 
    125 H125      -46.3502  -25.8083   16.7409 H         1 UNK         0.0825 
    126 H126      -47.7192  -24.7327   14.0136 H         1 UNK         0.3029 
    127 H127      -48.2598  -21.2823   14.3385 H         1 UNK         0.0897 
    128 H128      -45.9541  -20.9417   13.4539 H         1 UNK         0.0792 
    129 H129      -45.4721  -22.5360   14.0330 H         1 UNK         0.0792 
    130 H130      -45.9025  -21.2722   15.1783 H         1 UNK         0.0792 
    131 H131      -47.1364  -23.0438   12.3143 H         1 UNK         0.3086 
    132 H132      -49.6613  -24.9328   11.6930 H         1 UNK         0.0583 
    133 H133      -51.2260  -23.1167   10.7115 H         1 UNK         0.1020 
    134 H134      -49.9461  -22.7503    9.5862 H         1 UNK         0.1020 
    135 H135      -51.8447  -25.5195   11.3226 H         1 UNK         0.0694 
    136 H136      -53.0952  -25.3791   10.1137 H         1 UNK         0.0694 
    137 H137      -47.9722  -24.2532    9.5889 H         1 UNK         0.2989 
    138 H138      -44.8995  -25.3889   10.9320 H         1 UNK         0.1055 
    139 H139      -46.7435  -26.7892    8.9250 H         1 UNK         0.0806 
    140 H140      -46.0099  -27.5294   10.3375 H         1 UNK         0.0806 
    141 H141      -44.9934  -26.9734    9.0178 H         1 UNK         0.0806 
    142 H142      -45.9604  -24.4958    8.3512 H         1 UNK         0.3061 
    143 H143      -44.9800  -21.1322    8.7352 H         1 UNK         0.0734 
    144 H144      -43.4108  -21.5516    6.8525 H         1 UNK         0.0832 
    145 H145      -42.7267  -22.1286    8.3623 H         1 UNK         0.0832 
    146 H146      -43.3989  -23.2785    7.2157 H         1 UNK         0.0832 
    147 H147      -45.7243  -22.8283    6.4920 H         1 UNK         0.3156 
    148 H148      -49.2230  -22.3318    6.8496 H         1 UNK         0.0589 
    149 H149      -49.0265  -21.4665    4.5432 H         1 UNK         0.0808 
    150 H150      -48.4247  -20.2681    5.6745 H         1 UNK         0.0808 
    151 H151      -47.2890  -21.2311    4.7400 H         1 UNK         0.0808 
    152 H152      -47.9367  -23.7020    4.8064 H         1 UNK         0.3098 
    153 H153      -48.3267  -26.0327    4.7979 H         1 UNK         0.0720 
    154 H154      -46.1462  -27.2887    4.9391 H         1 UNK         0.0791 
    155 H155      -45.7595  -26.4869    6.4583 H         1 UNK         0.0791 
    156 H156      -45.8319  -25.5661    4.9618 H         1 UNK         0.0791 
    157 H157      -48.7082  -26.8279    7.4740 H         1 UNK         0.3028 
@<TRIPOS>BOND
     1    1    2 1    
     2    1   82 1    
     3    1   83 1    
     4    1   84 1    
     5    2    3 2    
     6    2    4 am   BACKBONE|DICT|INTERRES
     7    4    5 1    
     8    4   85 1    
     9    5    6 1    
    10    5   80 1    
    11    5   86 1    
    12    6    7 1    
    13    6   87 1    
    14    6   88 1    
    15    7    8 1    
    16    8    9 1    
    17    8   89 1    
    18    8   90 1    
    19    9   10 ar   
    20    9   14 ar   
    21   10   11 ar   
    22   10   91 1    
    23   11   12 ar   
    24   11   58 1    
    25   12   13 ar   
    26   12   92 1    
    27   13   14 ar   
    28   13   15 1    
    29   14   93 1    
    30   15   16 1    
    31   15   94 1    
    32   15   95 1    
    33   16   17 1    
    34   17   18 1    
    35   17   96 1    
    36   17   97 1    
    37   18   19 1    
    38   18   22 1    
    39   18   98 1    
    40   19   20 am   BACKBONE|DICT|INTERRES
    41   19   21 2    
    42   20   99 1    
    43   20  100 1    
    44   22   23 am   BACKBONE|DICT|INTERRES
    45   22  101 1    
    46   23   24 2    
    47   23   25 1    
    48   25   26 1    
    49   25   27 1    
    50   25  102 1    
    51   26  103 1    
    52   26  104 1    
    53   26  105 1    
    54   27   28 am   BACKBONE|DICT|INTERRES
    55   27  106 1    
    56   28   29 2    
    57   28   30 1    
    58   30   31 1    
    59   30   32 1    
    60   30  107 1    
    61   31  108 1    
    62   31  109 1    
    63   31  110 1    
    64   32   33 am   BACKBONE|DICT|INTERRES
    65   32  111 1    
    66   33   34 2    
    67   33   35 1    
    68   35   36 1    
    69   35   37 1    
    70   35  112 1    
    71   36  113 1    
    72   36  114 1    
    73   36  115 1    
    74   37   38 am   BACKBONE|DICT|INTERRES
    75   37  116 1    
    76   38   39 2    
    77   38   40 1    
    78   40   41 1    
    79   40   42 1    
    80   40  117 1    
    81   41  118 1    
    82   41  119 1    
    83   41  120 1    
    84   42   43 am   BACKBONE|DICT|INTERRES
    85   42  121 1    
    86   43   44 2    
    87   43   45 1    
    88   45   46 1    
    89   45   47 1    
    90   45  122 1    
    91   46  123 1    
    92   46  124 1    
    93   46  125 1    
    94   47   48 am   BACKBONE|DICT|INTERRES
    95   47  126 1    
    96   48   49 2    
    97   48   50 1    
    98   50   51 1    
    99   50   52 1    
   100   50  127 1    
   101   51  128 1    
   102   51  129 1    
   103   51  130 1    
   104   52   53 am   BACKBONE|DICT|INTERRES
   105   52  131 1    
   106   53   54 2    
   107   53   55 1    
   108   55   56 1    
   109   55   59 1    
   110   55  132 1    
   111   56   57 1    
   112   56  133 1    
   113   56  134 1    
   114   57   58 1    
   115   58  135 1    
   116   58  136 1    
   117   59   60 am   BACKBONE|DICT|INTERRES
   118   59  137 1    
   119   60   61 2    
   120   60   62 1    
   121   62   63 1    
   122   62   64 1    
   123   62  138 1    
   124   63  139 1    
   125   63  140 1    
   126   63  141 1    
   127   64   65 am   BACKBONE|DICT|INTERRES
   128   64  142 1    
   129   65   66 2    
   130   65   67 1    
   131   67   68 1    
   132   67   69 1    
   133   67  143 1    
   134   68  144 1    
   135   68  145 1    
   136   68  146 1    
   137   69   70 am   BACKBONE|DICT|INTERRES
   138   69  147 1    
   139   70   71 2    
   140   70   72 1    
   141   72   73 1    
   142   72   74 1    
   143   72  148 1    
   144   73  149 1    
   145   73  150 1    
   146   73  151 1    
   147   74   75 am   BACKBONE|DICT|INTERRES
   148   74  152 1    
   149   75   76 2    
   150   75   77 1    
   151   77   78 1    
   152   77   79 1    
   153   77  153 1    
   154   78  154 1    
   155   78  155 1    
   156   78  156 1    
   157   79   80 am   BACKBONE|DICT|INTERRES
   158   79  157 1    
   159   80   81 2    
@<TRIPOS>SUBSTRUCTURE
     1 UNK         1 GROUP             0       ****    0 ROOT    
