@<TRIPOS>MOLECULE
3R207
157   159    1
SMALL
USER_CHARGES


@<TRIPOS>ATOM
      1 CA        -49.2103  -31.6407    2.4230 C.3       0 UNK        -0.1975 
      2 C         -48.6012  -30.3869    3.0331 C.2       0 UNK         0.4852 
      3 O         -47.5030  -29.9892    2.6432 O.2       0 UNK        -0.5216 
      4 N         -49.3047  -29.7631    3.9892 N.am      1 UNK        -0.4461 
      5 CA        -48.8739  -28.5452    4.6904 C.3       1 UNK         0.0864 
      6 C6        -50.0749  -27.8513    5.3819 C.3       14 UNK        -0.0898 
      7 S7        -49.8306  -26.0542    5.5777 S.3       14 UNK        -0.2598 
      8 C8        -49.7962  -25.8774    7.3868 C.3       14 UNK         0.0286 
      9 C9        -51.1932  -25.9176    7.9847 C.ar      14 UNK        -0.0844 
     10 C10       -51.9821  -24.7656    7.9782 C.ar      14 UNK        -0.0881 
     11 C11       -53.2658  -24.7757    8.5321 C.ar      14 UNK        -0.0643 
     12 C12       -53.7672  -25.9649    9.0689 C.ar      14 UNK        -0.0930 
     13 C13       -52.9908  -27.1319    9.0794 C.ar      14 UNK        -0.0827 
     14 C14       -51.7004  -27.0942    8.5424 C.ar      14 UNK        -0.1249 
     15 C15       -53.5326  -28.4609    9.6031 C.3       14 UNK         0.0141 
     16 S16       -54.7370  -28.3016   10.9617 S.3       14 UNK        -0.2313 
     17 C17       -55.2101  -30.0493   11.2057 C.3       14 UNK        -0.0915 
     18 CA        -54.7772  -30.6292   12.5780 C.3       13 UNK         0.0968 
     19 C         -53.2678  -31.0066   12.6290 C.2       13 UNK         0.5732 
     20 N         -52.4655  -30.4591   13.5350 N.am      13 UNK        -0.7310 
     21 O         -52.8194  -31.8339   11.8391 O.2       13 UNK        -0.5035 
     22 N         -55.2352  -29.7694   13.6746 N.am      13 UNK        -0.4233 
     23 C         -55.5267  -30.1698   14.9156 C.2       13 UNK         0.4989 
     24 O         -55.4976  -31.3469   15.2782 O.2       13 UNK        -0.4996 
     25 CA        -55.9163  -29.0717   15.9195 C.3       12 UNK         0.0216 
     26 CB        -55.2870  -29.3246   17.3020 C.3       12 UNK        -0.1964 
     27 N         -55.4946  -27.7471   15.4564 N.am      12 UNK        -0.4276 
     28 C         -56.2999  -26.7152   15.1651 C.2       12 UNK         0.5020 
     29 O         -57.5295  -26.7969   15.1525 O.2       12 UNK        -0.5489 
     30 CA        -55.6195  -25.3622   14.8392 C.3       11 UNK         0.0294 
     31 CB        -56.4862  -24.1508   15.2406 C.3       11 UNK        -0.2019 
     32 N         -54.2661  -25.2355   15.3987 N.am      11 UNK        -0.4493 
     33 C         -53.9011  -25.3866   16.6829 C.2       11 UNK         0.4932 
     34 O         -54.6997  -25.4459   17.6190 O.2       11 UNK        -0.5029 
     35 CA        -52.3963  -25.5614   16.9661 C.3       10 UNK         0.0280 
     36 CB        -52.1355  -26.5438   18.1269 C.3       10 UNK        -0.1976 
     37 N         -51.5995  -25.9474   15.7932 N.am      10 UNK        -0.4242 
     38 C         -51.7194  -27.0338   15.0094 C.2       10 UNK         0.5072 
     39 O         -52.5916  -27.8939   15.1613 O.2       10 UNK        -0.5224 
     40 CA        -50.7460  -27.1618   13.8159 C.3       9 UNK         0.0343 
     41 CB        -51.5261  -27.1082   12.4911 C.3       9 UNK        -0.2003 
     42 N         -49.7070  -26.1268   13.7923 N.am      9 UNK        -0.4272 
     43 C         -48.6552  -26.0641   14.6226 C.2       9 UNK         0.4988 
     44 O         -48.3564  -26.9539   15.4186 O.2       9 UNK        -0.5108 
     45 CA        -47.8512  -24.7513   14.6212 C.3       8 UNK         0.0248 
     46 CB        -46.7022  -24.7959   13.6053 C.3       8 UNK        -0.2001 
     47 N         -48.7000  -23.5850   14.3566 N.am      8 UNK        -0.4140 
     48 C         -49.5922  -23.0888   15.2262 C.2       8 UNK         0.5028 
     49 O         -49.7371  -23.5164   16.3701 O.2       8 UNK        -0.5428 
     50 CA        -50.5125  -21.9641   14.7254 C.3       7 UNK         0.0264 
     51 CB        -49.8477  -20.5926   14.9238 C.3       7 UNK        -0.1988 
     52 N         -50.8873  -22.1279   13.3196 N.am      7 UNK        -0.4454 
     53 C         -51.7114  -23.0779   12.8494 C.2       7 UNK         0.5027 
     54 O         -52.3039  -23.8864   13.5652 O.2       7 UNK        -0.5083 
     55 CA        -51.8775  -23.1449   11.3160 C.3       6 UNK         0.0844 
     56 C56       -53.1032  -22.2987   10.8780 C.3       14 UNK        -0.0967 
     57 S57       -53.2399  -22.0287    9.0764 S.3       14 UNK        -0.2604 
     58 C58       -54.1306  -23.5195    8.5188 C.3       14 UNK         0.0134 
     59 N         -50.6401  -22.7839   10.6091 N.am      6 UNK        -0.4116 
     60 C         -49.5028  -23.4911   10.6505 C.2       5 UNK         0.5034 
     61 O         -49.3499  -24.5113   11.3262 O.2       5 UNK        -0.5045 
     62 CA        -48.3209  -22.9253    9.8581 C.3       5 UNK         0.0224 
     63 CB        -47.5418  -21.9008   10.7032 C.3       5 UNK        -0.1978 
     64 N         -47.4287  -24.0112    9.4549 N.am      5 UNK        -0.4737 
     65 C         -46.6487  -24.0009    8.3679 C.2       4 UNK         0.5027 
     66 O         -46.5779  -23.0369    7.6050 O.2       4 UNK        -0.5211 
     67 CA        -45.8266  -25.2612    8.0298 C.3       4 UNK         0.0297 
     68 CB        -44.3477  -25.0801    8.4255 C.3       4 UNK        -0.1993 
     69 N         -46.3684  -26.5342    8.5296 N.am      4 UNK        -0.4486 
     70 C         -46.4484  -26.9718    9.7960 C.2       3 UNK         0.4961 
     71 O         -46.0699  -26.3169   10.7639 O.2       3 UNK        -0.5105 
     72 CA        -47.0836  -28.3529   10.0486 C.3       3 UNK         0.0299 
     73 CB        -48.4758  -28.1882   10.6770 C.3       3 UNK        -0.1972 
     74 N         -47.1882  -29.1871    8.8484 N.am      3 UNK        -0.4305 
     75 C         -46.1496  -29.7916    8.2543 C.2       2 UNK         0.5006 
     76 O         -44.9993  -29.7628    8.6933 O.2       2 UNK        -0.5106 
     77 CA        -46.4276  -30.5448    6.9400 C.3       2 UNK         0.0296 
     78 CB        -46.6305  -32.0438    7.2155 C.3       2 UNK        -0.2002 
     79 N         -47.5594  -30.0448    6.1477 N.am      2 UNK        -0.4032 
     80 C         -47.7024  -28.7973    5.6699 C.2       1 UNK         0.5000 
     81 O         -46.9504  -27.8679    5.9682 O.2       1 UNK        -0.5238 
     82 H82       -49.3427  -31.5086    1.3495 H         1 UNK         0.0889 
     83 H83       -50.1817  -31.8763    2.8574 H         1 UNK         0.0889 
     84 H84       -48.5514  -32.4937    2.5827 H         1 UNK         0.0889 
     85 H85       -50.2076  -30.1306    4.2561 H         1 UNK         0.3028 
     86 H86       -48.4915  -27.8679    3.9229 H         1 UNK         0.0864 
     87 H87       -50.9729  -27.9640    4.7722 H         1 UNK         0.0720 
     88 H88       -50.3101  -28.3237    6.3361 H         1 UNK         0.0720 
     89 H89       -49.3346  -24.9206    7.6267 H         1 UNK         0.0814 
     90 H90       -49.1583  -26.6450    7.8241 H         1 UNK         0.0814 
     91 H91       -51.5944  -23.8564    7.5399 H         1 UNK         0.1469 
     92 H92       -54.7724  -25.9807    9.4654 H         1 UNK         0.1381 
     93 H93       -51.0973  -27.9910    8.5419 H         1 UNK         0.1206 
     94 H94       -52.7103  -29.0890    9.9501 H         1 UNK         0.0813 
     95 H95       -54.0022  -28.9880    8.7717 H         1 UNK         0.0813 
     96 H96       -56.2971  -30.0987   11.1266 H         1 UNK         0.0638 
     97 H97       -54.8353  -30.6636   10.3850 H         1 UNK         0.0638 
     98 H98       -55.2985  -31.5826   12.6822 H         1 UNK         0.0568 
     99 H99       -51.4990  -30.7388   13.5570 H         1 UNK         0.3450 
    100 H100      -52.7984  -29.7478   14.1728 H         1 UNK         0.3450 
    101 H101      -55.2771  -28.7839   13.4625 H         1 UNK         0.2987 
    102 H102      -57.0022  -29.1103   16.0244 H         1 UNK         0.0766 
    103 H103      -55.6348  -30.2662   17.7288 H         1 UNK         0.0798 
    104 H104      -55.5489  -28.5344   18.0063 H         1 UNK         0.0798 
    105 H105      -54.1987  -29.3724   17.2438 H         1 UNK         0.0798 
    106 H106      -54.4870  -27.6066   15.4087 H         1 UNK         0.3198 
    107 H107      -55.5005  -25.3401   13.7547 H         1 UNK         0.0843 
    108 H108      -56.6990  -24.1434   16.3100 H         1 UNK         0.0831 
    109 H109      -57.4439  -24.1634   14.7190 H         1 UNK         0.0831 
    110 H110      -55.9945  -23.2112   14.9891 H         1 UNK         0.0831 
    111 H111      -53.5223  -25.0978   14.7201 H         1 UNK         0.3133 
    112 H112      -52.0344  -24.5799   17.2731 H         1 UNK         0.0566 
    113 H113      -51.0690  -26.6420   18.3296 H         1 UNK         0.0814 
    114 H114      -52.5285  -27.5375   17.9102 H         1 UNK         0.0814 
    115 H115      -52.6073  -26.2009   19.0485 H         1 UNK         0.0814 
    116 H116      -50.8699  -25.2883   15.5558 H         1 UNK         0.3091 
    117 H117      -50.2562  -28.1346   13.8890 H         1 UNK         0.0702 
    118 H118      -50.8661  -27.0688   11.6267 H         1 UNK         0.0785 
    119 H119      -52.1857  -26.2433   12.4369 H         1 UNK         0.0785 
    120 H120      -52.1515  -27.9915   12.3764 H         1 UNK         0.0785 
    121 H121      -49.8169  -25.3925   13.1006 H         1 UNK         0.2998 
    122 H122      -47.4136  -24.6363   15.6154 H         1 UNK         0.0697 
    123 H123      -47.0736  -24.8196   12.5824 H         1 UNK         0.0825 
    124 H124      -46.0841  -25.6835   13.7471 H         1 UNK         0.0825 
    125 H125      -46.0509  -23.9276   13.7033 H         1 UNK         0.0825 
    126 H126      -48.6659  -23.2013   13.4244 H         1 UNK         0.3029 
    127 H127      -51.4251  -21.9928   15.3256 H         1 UNK         0.0897 
    128 H128      -48.9354  -20.4928   14.3342 H         1 UNK         0.0792 
    129 H129      -49.5776  -20.4391   15.9698 H         1 UNK         0.0792 
    130 H130      -50.5201  -19.7816   14.6434 H         1 UNK         0.0792 
    131 H131      -50.4694  -21.4887   12.6594 H         1 UNK         0.3086 
    132 H132      -52.0875  -24.1868   11.0666 H         1 UNK         0.0583 
    133 H133      -54.0252  -22.7574   11.2411 H         1 UNK         0.1020 
    134 H134      -53.0669  -21.3082   11.3367 H         1 UNK         0.1020 
    135 H135      -55.0239  -23.6505    9.1314 H         1 UNK         0.0694 
    136 H136      -54.4785  -23.3540    7.4984 H         1 UNK         0.0694 
    137 H137      -50.6948  -21.9627   10.0237 H         1 UNK         0.2989 
    138 H138      -48.7157  -22.4354    8.9649 H         1 UNK         0.1055 
    139 H139      -46.7282  -21.4548   10.1308 H         1 UNK         0.0806 
    140 H140      -47.1078  -22.3582   11.5930 H         1 UNK         0.0806 
    141 H141      -48.1860  -21.0845   11.0322 H         1 UNK         0.0806 
    142 H142      -47.4268  -24.8273   10.0587 H         1 UNK         0.3061 
    143 H143      -45.8591  -25.3542    6.9429 H         1 UNK         0.0734 
    144 H144      -44.2265  -24.9331    9.4989 H         1 UNK         0.0832 
    145 H145      -43.7501  -25.9437    8.1338 H         1 UNK         0.0832 
    146 H146      -43.9189  -24.2071    7.9319 H         1 UNK         0.0832 
    147 H147      -46.6927  -27.1544    7.7922 H         1 UNK         0.3156 
    148 H148      -46.4498  -28.8729   10.7702 H         1 UNK         0.0589 
    149 H149      -49.1529  -27.6404   10.0229 H         1 UNK         0.0808 
    150 H150      -48.4124  -27.6298   11.6121 H         1 UNK         0.0808 
    151 H151      -48.9308  -29.1514   10.9083 H         1 UNK         0.0808 
    152 H152      -48.1017  -29.2847    8.4315 H         1 UNK         0.3098 
    153 H153      -45.5358  -30.4333    6.3199 H         1 UNK         0.0720 
    154 H154      -45.7917  -32.4553    7.7790 H         1 UNK         0.0791 
    155 H155      -46.7030  -32.6128    6.2883 H         1 UNK         0.0791 
    156 H156      -47.5350  -32.2287    7.7965 H         1 UNK         0.0791 
    157 H157      -48.2324  -30.7351    5.8484 H         1 UNK         0.3028 
@<TRIPOS>BOND
     1    1    2 1    
     2    1   82 1    
     3    1   83 1    
     4    1   84 1    
     5    2    3 2    
     6    2    4 am   BACKBONE|DICT|INTERRES
     7    4    5 1    
     8    4   85 1    
     9    5    6 1    
    10    5   80 1    
    11    5   86 1    
    12    6    7 1    
    13    6   87 1    
    14    6   88 1    
    15    7    8 1    
    16    8    9 1    
    17    8   89 1    
    18    8   90 1    
    19    9   10 ar   
    20    9   14 ar   
    21   10   11 ar   
    22   10   91 1    
    23   11   12 ar   
    24   11   58 1    
    25   12   13 ar   
    26   12   92 1    
    27   13   14 ar   
    28   13   15 1    
    29   14   93 1    
    30   15   16 1    
    31   15   94 1    
    32   15   95 1    
    33   16   17 1    
    34   17   18 1    
    35   17   96 1    
    36   17   97 1    
    37   18   19 1    
    38   18   22 1    
    39   18   98 1    
    40   19   20 am   BACKBONE|DICT|INTERRES
    41   19   21 2    
    42   20   99 1    
    43   20  100 1    
    44   22   23 am   BACKBONE|DICT|INTERRES
    45   22  101 1    
    46   23   24 2    
    47   23   25 1    
    48   25   26 1    
    49   25   27 1    
    50   25  102 1    
    51   26  103 1    
    52   26  104 1    
    53   26  105 1    
    54   27   28 am   BACKBONE|DICT|INTERRES
    55   27  106 1    
    56   28   29 2    
    57   28   30 1    
    58   30   31 1    
    59   30   32 1    
    60   30  107 1    
    61   31  108 1    
    62   31  109 1    
    63   31  110 1    
    64   32   33 am   BACKBONE|DICT|INTERRES
    65   32  111 1    
    66   33   34 2    
    67   33   35 1    
    68   35   36 1    
    69   35   37 1    
    70   35  112 1    
    71   36  113 1    
    72   36  114 1    
    73   36  115 1    
    74   37   38 am   BACKBONE|DICT|INTERRES
    75   37  116 1    
    76   38   39 2    
    77   38   40 1    
    78   40   41 1    
    79   40   42 1    
    80   40  117 1    
    81   41  118 1    
    82   41  119 1    
    83   41  120 1    
    84   42   43 am   BACKBONE|DICT|INTERRES
    85   42  121 1    
    86   43   44 2    
    87   43   45 1    
    88   45   46 1    
    89   45   47 1    
    90   45  122 1    
    91   46  123 1    
    92   46  124 1    
    93   46  125 1    
    94   47   48 am   BACKBONE|DICT|INTERRES
    95   47  126 1    
    96   48   49 2    
    97   48   50 1    
    98   50   51 1    
    99   50   52 1    
   100   50  127 1    
   101   51  128 1    
   102   51  129 1    
   103   51  130 1    
   104   52   53 am   BACKBONE|DICT|INTERRES
   105   52  131 1    
   106   53   54 2    
   107   53   55 1    
   108   55   56 1    
   109   55   59 1    
   110   55  132 1    
   111   56   57 1    
   112   56  133 1    
   113   56  134 1    
   114   57   58 1    
   115   58  135 1    
   116   58  136 1    
   117   59   60 am   BACKBONE|DICT|INTERRES
   118   59  137 1    
   119   60   61 2    
   120   60   62 1    
   121   62   63 1    
   122   62   64 1    
   123   62  138 1    
   124   63  139 1    
   125   63  140 1    
   126   63  141 1    
   127   64   65 am   BACKBONE|DICT|INTERRES
   128   64  142 1    
   129   65   66 2    
   130   65   67 1    
   131   67   68 1    
   132   67   69 1    
   133   67  143 1    
   134   68  144 1    
   135   68  145 1    
   136   68  146 1    
   137   69   70 am   BACKBONE|DICT|INTERRES
   138   69  147 1    
   139   70   71 2    
   140   70   72 1    
   141   72   73 1    
   142   72   74 1    
   143   72  148 1    
   144   73  149 1    
   145   73  150 1    
   146   73  151 1    
   147   74   75 am   BACKBONE|DICT|INTERRES
   148   74  152 1    
   149   75   76 2    
   150   75   77 1    
   151   77   78 1    
   152   77   79 1    
   153   77  153 1    
   154   78  154 1    
   155   78  155 1    
   156   78  156 1    
   157   79   80 am   BACKBONE|DICT|INTERRES
   158   79  157 1    
   159   80   81 2    
@<TRIPOS>SUBSTRUCTURE
     1 UNK         1 GROUP             0       ****    0 ROOT    
