@<TRIPOS>MOLECULE
3R207
157   159    1
SMALL
USER_CHARGES


@<TRIPOS>ATOM
      1 CA        -53.1716  -31.2668    6.2446 C.3       0 UNK        -0.1975 
      2 C         -52.0081  -30.4965    5.6419 C.2       0 UNK         0.4852 
      3 O         -51.0673  -31.1092    5.1360 O.2       0 UNK        -0.5216 
      4 N         -52.0684  -29.1584    5.6793 N.am      1 UNK        -0.4461 
      5 CA        -51.0873  -28.2651    5.0452 C.3       1 UNK         0.0864 
      6 C6        -51.6624  -26.8514    4.7737 C.3       14 UNK        -0.0898 
      7 S7        -53.2608  -26.9077    3.8871 S.3       14 UNK        -0.2598 
      8 C8        -54.3049  -25.7601    4.8467 C.3       14 UNK         0.0286 
      9 C9        -54.3714  -26.1009    6.3308 C.ar      14 UNK        -0.0844 
     10 C10       -53.8071  -25.2316    7.2696 C.ar      14 UNK        -0.0881 
     11 C11       -53.8644  -25.5227    8.6347 C.ar      14 UNK        -0.0643 
     12 C12       -54.5082  -26.6865    9.0620 C.ar      14 UNK        -0.0930 
     13 C13       -55.0576  -27.5762    8.1333 C.ar      14 UNK        -0.0827 
     14 C14       -54.9945  -27.2740    6.7684 C.ar      14 UNK        -0.1249 
     15 C15       -55.7014  -28.8701    8.6076 C.3       14 UNK         0.0141 
     16 S16       -54.4501  -29.9990    9.2941 S.3       14 UNK        -0.2313 
     17 C17       -55.3708  -31.5708    9.3714 C.3       14 UNK        -0.0915 
     18 CA        -55.9335  -31.8955   10.7801 C.3       13 UNK         0.0968 
     19 C         -56.7311  -33.2326   10.7388 C.2       13 UNK         0.5732 
     20 N         -56.2379  -34.3204   11.3189 N.am      13 UNK        -0.7310 
     21 O         -57.8184  -33.2800   10.1682 O.2       13 UNK        -0.5035 
     22 N         -54.8907  -31.8118   11.8175 N.am      13 UNK        -0.4233 
     23 C         -55.1091  -31.8425   13.1387 C.2       13 UNK         0.4989 
     24 O         -56.2193  -31.9804   13.6539 O.2       13 UNK        -0.4996 
     25 CA        -53.8758  -31.6795   14.0444 C.3       12 UNK         0.0216 
     26 CB        -53.1721  -33.0317   14.2475 C.3       12 UNK        -0.1964 
     27 N         -52.9080  -30.6884   13.5581 N.am      12 UNK        -0.4276 
     28 C         -53.1541  -29.3747   13.4603 C.2       12 UNK         0.5020 
     29 O         -54.2461  -28.8594   13.7165 O.2       12 UNK        -0.5489 
     30 CA        -51.9845  -28.4896   12.9974 C.3       11 UNK         0.0294 
     31 CB        -51.8888  -28.4602   11.4653 C.3       11 UNK        -0.2019 
     32 N         -52.1726  -27.1258   13.4932 N.am      11 UNK        -0.4493 
     33 C         -51.7798  -26.7136   14.7023 C.2       11 UNK         0.4932 
     34 O         -51.0637  -27.3736   15.4602 O.2       11 UNK        -0.5029 
     35 CA        -52.3055  -25.3505   15.1627 C.3       10 UNK         0.0280 
     36 CB        -53.6415  -25.5166   15.9129 C.3       10 UNK        -0.1976 
     37 N         -51.2956  -24.7550   16.0292 N.am      10 UNK        -0.4242 
     38 C         -51.2484  -23.4873   16.4491 C.2       10 UNK         0.5072 
     39 O         -52.0854  -22.6303   16.1636 O.2       10 UNK        -0.5224 
     40 CA        -50.0648  -23.1205   17.3501 C.3       9 UNK         0.0343 
     41 CB        -50.0164  -24.0041   18.6154 C.3       9 UNK        -0.2003 
     42 N         -48.8113  -23.1992   16.5996 N.am      9 UNK        -0.4272 
     43 C         -47.6621  -22.6246   16.9787 C.2       9 UNK         0.4988 
     44 O         -47.5247  -21.9865   18.0238 O.2       9 UNK        -0.5108 
     45 CA        -46.4577  -22.7737   16.0339 C.3       8 UNK         0.0248 
     46 CB        -45.8475  -24.1809   16.1409 C.3       8 UNK        -0.2001 
     47 N         -46.7852  -22.4696   14.6387 N.am      8 UNK        -0.4140 
     48 C         -47.1101  -21.2486   14.1867 C.2       8 UNK         0.5028 
     49 O         -47.1274  -20.2378   14.8906 O.2       8 UNK        -0.5428 
     50 CA        -47.4773  -21.1236   12.6980 C.3       7 UNK         0.0264 
     51 CB        -46.2121  -20.9685   11.8388 C.3       7 UNK        -0.1988 
     52 N         -48.2682  -22.2519   12.2050 N.am      7 UNK        -0.4454 
     53 C         -49.5217  -22.5340   12.5910 C.2       7 UNK         0.5027 
     54 O         -50.1769  -21.8282   13.3572 O.2       7 UNK        -0.5083 
     55 CA        -50.1387  -23.8395   12.0461 C.3       6 UNK         0.0844 
     56 C56       -50.7364  -23.5969   10.6385 C.3       14 UNK        -0.0967 
     57 S57       -51.4709  -25.0909    9.8956 S.3       14 UNK        -0.2604 
     58 C58       -53.1996  -24.5928    9.6366 C.3       14 UNK         0.0134 
     59 N         -49.1876  -24.9584   12.0931 N.am      6 UNK        -0.4116 
     60 C         -48.5905  -25.4124   13.2067 C.2       5 UNK         0.5034 
     61 O         -48.8076  -24.9726   14.3353 O.2       5 UNK        -0.5045 
     62 CA        -47.5154  -26.4917   13.0294 C.3       5 UNK         0.0224 
     63 CB        -48.1412  -27.8912   12.9259 C.3       5 UNK        -0.1978 
     64 N         -46.6773  -26.2162   11.8618 N.am      5 UNK        -0.4737 
     65 C         -45.7550  -25.2436   11.8212 C.2       4 UNK         0.5027 
     66 O         -45.4803  -24.5267   12.7829 O.2       4 UNK        -0.5211 
     67 CA        -45.0507  -25.0005   10.4748 C.3       4 UNK         0.0297 
     68 CB        -43.8516  -25.9479   10.3149 C.3       4 UNK        -0.1993 
     69 N         -45.9483  -25.1452    9.3259 N.am      4 UNK        -0.4486 
     70 C         -47.0019  -24.3525    9.0844 C.2       3 UNK         0.4961 
     71 O         -47.2917  -23.3752    9.7729 O.2       3 UNK        -0.5105 
     72 CA        -47.9150  -24.7338    7.9060 C.3       3 UNK         0.0299 
     73 CB        -47.4491  -24.0372    6.6185 C.3       3 UNK        -0.1972 
     74 N         -48.0430  -26.1746    7.6604 N.am      3 UNK        -0.4305 
     75 C         -48.4102  -27.1017    8.5558 C.2       2 UNK         0.5006 
     76 O         -48.5962  -26.8643    9.7498 O.2       2 UNK        -0.5106 
     77 CA        -48.6084  -28.5279    8.0121 C.3       2 UNK         0.0296 
     78 CB        -48.8017  -29.5660    9.1329 C.3       2 UNK        -0.2002 
     79 N         -49.7536  -28.5889    7.1019 N.am      2 UNK        -0.4032 
     80 C         -49.7606  -28.1653    5.8291 C.2       1 UNK         0.5000 
     81 O         -48.7676  -27.6888    5.2734 O.2       1 UNK        -0.5238 
     82 H82       -54.0401  -30.6273    6.3995 H         1 UNK         0.0889 
     83 H83       -52.8813  -31.6972    7.2024 H         1 UNK         0.0889 
     84 H84       -53.4701  -32.0789    5.5822 H         1 UNK         0.0889 
     85 H85       -52.8681  -28.6996    6.0949 H         1 UNK         0.3028 
     86 H86       -50.8332  -28.6988    4.0753 H         1 UNK         0.0864 
     87 H87       -50.9669  -26.2720    4.1634 H         1 UNK         0.0720 
     88 H88       -51.7671  -26.2987    5.7075 H         1 UNK         0.0720 
     89 H89       -55.3143  -25.7752    4.4334 H         1 UNK         0.0814 
     90 H90       -53.9333  -24.7449    4.6988 H         1 UNK         0.0814 
     91 H91       -53.3074  -24.3312    6.9389 H         1 UNK         0.1469 
     92 H92       -54.5575  -26.9167   10.1169 H         1 UNK         0.1381 
     93 H93       -55.4230  -27.9520    6.0426 H         1 UNK         0.1206 
     94 H94       -56.2229  -29.3573    7.7824 H         1 UNK         0.0813 
     95 H95       -56.4522  -28.6537    9.3689 H         1 UNK         0.0813 
     96 H96       -54.6901  -32.3615    9.0506 H         1 UNK         0.0638 
     97 H97       -56.1731  -31.5509    8.6316 H         1 UNK         0.0638 
     98 H98       -56.6652  -31.1224   11.0217 H         1 UNK         0.0568 
     99 H99       -56.7653  -35.1785   11.2872 H         1 UNK         0.3450 
    100 H100      -55.3479  -34.2909   11.7887 H         1 UNK         0.3450 
    101 H101      -53.9486  -31.6784   11.4835 H         1 UNK         0.2987 
    102 H102      -54.2334  -31.3370   15.0181 H         1 UNK         0.0766 
    103 H103      -52.3623  -32.9526   14.9731 H         1 UNK         0.0798 
    104 H104      -52.7532  -33.4168   13.3170 H         1 UNK         0.0798 
    105 H105      -53.8690  -33.7812   14.6261 H         1 UNK         0.0798 
    106 H106      -51.9860  -31.0302   13.3263 H         1 UNK         0.3198 
    107 H107      -51.0542  -28.9006   13.3950 H         1 UNK         0.0843 
    108 H108      -51.7397  -29.4613   11.0601 H         1 UNK         0.0831 
    109 H109      -52.7951  -28.0609   11.0139 H         1 UNK         0.0831 
    110 H110      -51.0541  -27.8443   11.1307 H         1 UNK         0.0831 
    111 H111      -52.8115  -26.5489   12.9661 H         1 UNK         0.3133 
    112 H112      -52.4557  -24.7064   14.2955 H         1 UNK         0.0566 
    113 H113      -54.0618  -24.5545   16.2053 H         1 UNK         0.0814 
    114 H114      -54.3828  -26.0139   15.2856 H         1 UNK         0.0814 
    115 H115      -53.5223  -26.1183   16.8148 H         1 UNK         0.0814 
    116 H116      -50.5460  -25.3916   16.2742 H         1 UNK         0.3091 
    117 H117      -50.2116  -22.0842   17.6624 H         1 UNK         0.0702 
    118 H118      -49.7439  -25.0343   18.3842 H         1 UNK         0.0785 
    119 H119      -50.9857  -24.0246   19.1154 H         1 UNK         0.0785 
    120 H120      -49.2934  -23.6257   19.3379 H         1 UNK         0.0785 
    121 H121      -48.8418  -23.7110   15.7185 H         1 UNK         0.2998 
    122 H122      -45.6971  -22.0587   16.3548 H         1 UNK         0.0697 
    123 H123      -46.5492  -24.9538   15.8285 H         1 UNK         0.0825 
    124 H124      -45.5579  -24.4018   17.1690 H         1 UNK         0.0825 
    125 H125      -44.9523  -24.2730   15.5256 H         1 UNK         0.0825 
    126 H126      -46.7332  -23.2372   13.9787 H         1 UNK         0.3029 
    127 H127      -48.0794  -20.2196   12.5825 H         1 UNK         0.0897 
    128 H128      -46.4630  -20.7964   10.7919 H         1 UNK         0.0792 
    129 H129      -45.6138  -20.1198   12.1731 H         1 UNK         0.0792 
    130 H130      -45.5791  -21.8552   11.8883 H         1 UNK         0.0792 
    131 H131      -47.8332  -22.8360   11.4935 H         1 UNK         0.3086 
    132 H132      -50.9609  -24.1051   12.7098 H         1 UNK         0.0583 
    133 H133      -51.4920  -22.8105   10.6879 H         1 UNK         0.1020 
    134 H134      -49.9723  -23.2271    9.9537 H         1 UNK         0.1020 
    135 H135      -53.7313  -24.6068   10.5891 H         1 UNK         0.0694 
    136 H136      -53.2404  -23.5666    9.2682 H         1 UNK         0.0694 
    137 H137      -48.9792  -25.4155   11.2113 H         1 UNK         0.2989 
    138 H138      -46.8798  -26.4764   13.9175 H         1 UNK         0.1055 
    139 H139      -48.7127  -28.1228   13.8257 H         1 UNK         0.0806 
    140 H140      -47.3771  -28.6611   12.8199 H         1 UNK         0.0806 
    141 H141      -48.8217  -27.9758   12.0796 H         1 UNK         0.0806 
    142 H142      -46.9311  -26.6895   11.0025 H         1 UNK         0.3061 
    143 H143      -44.6770  -23.9742   10.4793 H         1 UNK         0.0734 
    144 H144      -43.2925  -25.7316    9.4044 H         1 UNK         0.0832 
    145 H145      -43.1588  -25.8418   11.1510 H         1 UNK         0.0832 
    146 H146      -44.1618  -26.9931   10.2803 H         1 UNK         0.0832 
    147 H147      -45.7869  -25.9267    8.7076 H         1 UNK         0.3156 
    148 H148      -48.9154  -24.3680    8.1416 H         1 UNK         0.0589 
    149 H149      -46.4695  -24.3942    6.2980 H         1 UNK         0.0808 
    150 H150      -48.1513  -24.2029    5.8010 H         1 UNK         0.0808 
    151 H151      -47.3725  -22.9586    6.7637 H         1 UNK         0.0808 
    152 H152      -47.9645  -26.4809    6.6955 H         1 UNK         0.3098 
    153 H153      -47.7042  -28.7987    7.4628 H         1 UNK         0.0720 
    154 H154      -48.8718  -30.5763    8.7296 H         1 UNK         0.0791 
    155 H155      -49.7048  -29.3727    9.7105 H         1 UNK         0.0791 
    156 H156      -47.9613  -29.5523    9.8283 H         1 UNK         0.0791 
    157 H157      -50.6206  -28.9337    7.4870 H         1 UNK         0.3028 
@<TRIPOS>BOND
     1    1    2 1    
     2    1   82 1    
     3    1   83 1    
     4    1   84 1    
     5    2    3 2    
     6    2    4 am   BACKBONE|DICT|INTERRES
     7    4    5 1    
     8    4   85 1    
     9    5    6 1    
    10    5   80 1    
    11    5   86 1    
    12    6    7 1    
    13    6   87 1    
    14    6   88 1    
    15    7    8 1    
    16    8    9 1    
    17    8   89 1    
    18    8   90 1    
    19    9   10 ar   
    20    9   14 ar   
    21   10   11 ar   
    22   10   91 1    
    23   11   12 ar   
    24   11   58 1    
    25   12   13 ar   
    26   12   92 1    
    27   13   14 ar   
    28   13   15 1    
    29   14   93 1    
    30   15   16 1    
    31   15   94 1    
    32   15   95 1    
    33   16   17 1    
    34   17   18 1    
    35   17   96 1    
    36   17   97 1    
    37   18   19 1    
    38   18   22 1    
    39   18   98 1    
    40   19   20 am   BACKBONE|DICT|INTERRES
    41   19   21 2    
    42   20   99 1    
    43   20  100 1    
    44   22   23 am   BACKBONE|DICT|INTERRES
    45   22  101 1    
    46   23   24 2    
    47   23   25 1    
    48   25   26 1    
    49   25   27 1    
    50   25  102 1    
    51   26  103 1    
    52   26  104 1    
    53   26  105 1    
    54   27   28 am   BACKBONE|DICT|INTERRES
    55   27  106 1    
    56   28   29 2    
    57   28   30 1    
    58   30   31 1    
    59   30   32 1    
    60   30  107 1    
    61   31  108 1    
    62   31  109 1    
    63   31  110 1    
    64   32   33 am   BACKBONE|DICT|INTERRES
    65   32  111 1    
    66   33   34 2    
    67   33   35 1    
    68   35   36 1    
    69   35   37 1    
    70   35  112 1    
    71   36  113 1    
    72   36  114 1    
    73   36  115 1    
    74   37   38 am   BACKBONE|DICT|INTERRES
    75   37  116 1    
    76   38   39 2    
    77   38   40 1    
    78   40   41 1    
    79   40   42 1    
    80   40  117 1    
    81   41  118 1    
    82   41  119 1    
    83   41  120 1    
    84   42   43 am   BACKBONE|DICT|INTERRES
    85   42  121 1    
    86   43   44 2    
    87   43   45 1    
    88   45   46 1    
    89   45   47 1    
    90   45  122 1    
    91   46  123 1    
    92   46  124 1    
    93   46  125 1    
    94   47   48 am   BACKBONE|DICT|INTERRES
    95   47  126 1    
    96   48   49 2    
    97   48   50 1    
    98   50   51 1    
    99   50   52 1    
   100   50  127 1    
   101   51  128 1    
   102   51  129 1    
   103   51  130 1    
   104   52   53 am   BACKBONE|DICT|INTERRES
   105   52  131 1    
   106   53   54 2    
   107   53   55 1    
   108   55   56 1    
   109   55   59 1    
   110   55  132 1    
   111   56   57 1    
   112   56  133 1    
   113   56  134 1    
   114   57   58 1    
   115   58  135 1    
   116   58  136 1    
   117   59   60 am   BACKBONE|DICT|INTERRES
   118   59  137 1    
   119   60   61 2    
   120   60   62 1    
   121   62   63 1    
   122   62   64 1    
   123   62  138 1    
   124   63  139 1    
   125   63  140 1    
   126   63  141 1    
   127   64   65 am   BACKBONE|DICT|INTERRES
   128   64  142 1    
   129   65   66 2    
   130   65   67 1    
   131   67   68 1    
   132   67   69 1    
   133   67  143 1    
   134   68  144 1    
   135   68  145 1    
   136   68  146 1    
   137   69   70 am   BACKBONE|DICT|INTERRES
   138   69  147 1    
   139   70   71 2    
   140   70   72 1    
   141   72   73 1    
   142   72   74 1    
   143   72  148 1    
   144   73  149 1    
   145   73  150 1    
   146   73  151 1    
   147   74   75 am   BACKBONE|DICT|INTERRES
   148   74  152 1    
   149   75   76 2    
   150   75   77 1    
   151   77   78 1    
   152   77   79 1    
   153   77  153 1    
   154   78  154 1    
   155   78  155 1    
   156   78  156 1    
   157   79   80 am   BACKBONE|DICT|INTERRES
   158   79  157 1    
   159   80   81 2    
@<TRIPOS>SUBSTRUCTURE
     1 UNK         1 GROUP             0       ****    0 ROOT    
