@<TRIPOS>MOLECULE
3R207
157   159    1
SMALL
USER_CHARGES


@<TRIPOS>ATOM
      1 CA        -50.5220  -28.9965    9.2892 C.3       0 UNK        -0.1975 
      2 C         -49.9743  -29.1602    7.8787 C.2       0 UNK         0.4852 
      3 O         -49.0106  -29.8990    7.6776 O.2       0 UNK        -0.5216 
      4 N         -50.5850  -28.4805    6.8994 N.am      1 UNK        -0.4461 
      5 CA        -50.2409  -28.5634    5.4718 C.3       1 UNK         0.0864 
      6 C6        -51.4123  -28.0987    4.5698 C.3       14 UNK        -0.0898 
      7 S7        -52.9236  -29.0975    4.7912 S.3       14 UNK        -0.2598 
      8 C8        -54.1594  -27.8298    5.2166 C.3       14 UNK         0.0286 
      9 C9        -54.1293  -27.4795    6.6968 C.ar      14 UNK        -0.0844 
     10 C10       -53.3388  -26.4243    7.1643 C.ar      14 UNK        -0.0881 
     11 C11       -53.3258  -26.0989    8.5241 C.ar      14 UNK        -0.0643 
     12 C12       -54.1379  -26.8119    9.4095 C.ar      14 UNK        -0.0930 
     13 C13       -54.9322  -27.8669    8.9555 C.ar      14 UNK        -0.0827 
     14 C14       -54.9177  -28.2017    7.5987 C.ar      14 UNK        -0.1249 
     15 C15       -55.8245  -28.6224    9.9279 C.3       14 UNK         0.0141 
     16 S16       -54.9418  -30.0003   10.7226 S.3       14 UNK        -0.2313 
     17 C17       -56.2466  -30.6183   11.8405 C.3       14 UNK        -0.0915 
     18 CA        -56.0913  -30.0916   13.2986 C.3       13 UNK         0.0968 
     19 C         -57.3365  -30.3787   14.1936 C.2       13 UNK         0.5732 
     20 N         -57.1831  -30.5790   15.4983 N.am      13 UNK        -0.7310 
     21 O         -58.4664  -30.3875   13.7103 O.2       13 UNK        -0.5035 
     22 N         -54.8063  -30.4574   13.9182 N.am      13 UNK        -0.4233 
     23 C         -54.3878  -31.6984   14.2125 C.2       13 UNK         0.4989 
     24 O         -55.0229  -32.7195   13.9471 O.2       13 UNK        -0.4996 
     25 CA        -53.0338  -31.8435   14.9365 C.3       12 UNK         0.0216 
     26 CB        -51.9512  -32.3119   13.9495 C.3       12 UNK        -0.1964 
     27 N         -52.5759  -30.6179   15.5959 N.am      12 UNK        -0.4276 
     28 C         -53.1613  -30.0314   16.6506 C.2       12 UNK         0.5020 
     29 O         -54.1182  -30.5119   17.2588 O.2       12 UNK        -0.5489 
     30 CA        -52.6219  -28.6421   17.0484 C.3       11 UNK         0.0294 
     31 CB        -51.5442  -28.7712   18.1366 C.3       11 UNK        -0.2019 
     32 N         -52.0825  -27.8864   15.9079 N.am      11 UNK        -0.4493 
     33 C         -52.8059  -27.5126   14.8428 C.2       11 UNK         0.4932 
     34 O         -54.0190  -27.7033   14.7504 O.2       11 UNK        -0.5029 
     35 CA        -52.0215  -26.9335   13.6564 C.3       10 UNK         0.0280 
     36 CB        -52.3486  -27.6940   12.3550 C.3       10 UNK        -0.1976 
     37 N         -52.1969  -25.4847   13.5091 N.am      10 UNK        -0.4242 
     38 C         -53.2974  -24.7918   13.1810 C.2       10 UNK         0.5072 
     39 O         -54.3808  -25.3071   12.9037 O.2       10 UNK        -0.5224 
     40 CA        -53.1559  -23.2542   13.0794 C.3       9 UNK         0.0343 
     41 CB        -54.4909  -22.5246   13.3420 C.3       9 UNK        -0.2003 
     42 N         -52.0828  -22.6514   13.8859 N.am      9 UNK        -0.4272 
     43 C         -51.9392  -22.6763   15.2194 C.2       9 UNK         0.4988 
     44 O         -52.6673  -23.3239   15.9731 O.2       9 UNK        -0.5108 
     45 CA        -50.7877  -21.8235   15.8027 C.3       8 UNK         0.0248 
     46 CB        -50.6938  -21.9250   17.3371 C.3       8 UNK        -0.2001 
     47 N         -49.4863  -22.1746   15.2274 N.am      8 UNK        -0.4140 
     48 C         -49.0460  -21.8178   14.0135 C.2       8 UNK         0.5028 
     49 O         -49.6711  -21.0707   13.2584 O.2       8 UNK        -0.5428 
     50 CA        -47.7458  -22.4775   13.5069 C.3       7 UNK         0.0264 
     51 CB        -46.8682  -23.0928   14.6204 C.3       7 UNK        -0.1988 
     52 N         -48.0433  -23.4794   12.4747 N.am      7 UNK        -0.4454 
     53 C         -48.9088  -24.4993   12.5947 C.2       7 UNK         0.5027 
     54 O         -49.4801  -24.7939   13.6452 O.2       7 UNK        -0.5083 
     55 CA        -49.2240  -25.3113   11.3288 C.3       6 UNK         0.0844 
     56 C56       -49.9352  -24.4372   10.2647 C.3       14 UNK        -0.0967 
     57 S57       -50.6831  -25.4584    8.9533 S.3       14 UNK        -0.2604 
     58 C58       -52.4361  -24.9817    9.0442 C.3       14 UNK         0.0134 
     59 N         -48.0306  -25.9696   10.8077 N.am      6 UNK        -0.4116 
     60 C         -47.3239  -26.9231   11.4294 C.2       5 UNK         0.5034 
     61 O         -47.6328  -27.4245   12.5104 O.2       5 UNK        -0.5045 
     62 CA        -46.0426  -27.3883   10.7224 C.3       5 UNK         0.0224 
     63 CB        -46.3588  -28.4568    9.6625 C.3       5 UNK        -0.1978 
     64 N         -45.3413  -26.2623   10.1003 N.am      5 UNK        -0.4737 
     65 C         -44.5529  -25.4076   10.7672 C.2       4 UNK         0.5027 
     66 O         -44.2608  -25.5347   11.9563 O.2       4 UNK        -0.5211 
     67 CA        -43.9890  -24.2087    9.9833 C.3       4 UNK         0.0297 
     68 CB        -42.5932  -24.5400    9.4311 C.3       4 UNK        -0.1993 
     69 N         -44.8521  -23.7712    8.8831 N.am      4 UNK        -0.4486 
     70 C         -46.0270  -23.1459    9.0388 C.2       3 UNK         0.4961 
     71 O         -46.5173  -22.8558   10.1309 O.2       3 UNK        -0.5105 
     72 CA        -46.8133  -22.8358    7.7519 C.3       3 UNK         0.0299 
     73 CB        -46.3074  -21.5333    7.1119 C.3       3 UNK        -0.1972 
     74 N         -46.7995  -23.9162    6.7547 N.am      3 UNK        -0.4305 
     75 C         -47.1931  -25.1744    6.9921 C.2       2 UNK         0.5006 
     76 O         -47.5008  -25.5962    8.1066 O.2       2 UNK        -0.5106 
     77 CA        -47.2249  -26.1460    5.8143 C.3       2 UNK         0.0296 
     78 CB        -45.9260  -26.9734    5.7637 C.3       2 UNK        -0.2002 
     79 N         -48.3870  -27.0094    6.0092 N.am      2 UNK        -0.4032 
     80 C         -48.9460  -27.8059    5.0911 C.2       1 UNK         0.5000 
     81 O         -48.4901  -27.9432    3.9537 O.2       1 UNK        -0.5238 
     82 H82       -50.6458  -29.9700    9.7625 H         1 UNK         0.0889 
     83 H83       -51.4921  -28.4990    9.2896 H         1 UNK         0.0889 
     84 H84       -49.8339  -28.4064    9.8940 H         1 UNK         0.0889 
     85 H85       -51.3855  -27.9047    7.1235 H         1 UNK         0.3028 
     86 H86       -50.0487  -29.6140    5.2428 H         1 UNK         0.0864 
     87 H87       -51.1383  -28.1792    3.5159 H         1 UNK         0.0720 
     88 H88       -51.6285  -27.0433    4.7397 H         1 UNK         0.0720 
     89 H89       -55.1478  -28.2093    4.9529 H         1 UNK         0.0814 
     90 H90       -54.0119  -26.9384    4.6048 H         1 UNK         0.0814 
     91 H91       -52.7279  -25.8562    6.4763 H         1 UNK         0.1469 
     92 H92       -54.1562  -26.5425   10.4555 H         1 UNK         0.1381 
     93 H93       -55.5314  -29.0177    7.2417 H         1 UNK         0.1206 
     94 H94       -56.7030  -29.0067    9.4071 H         1 UNK         0.0813 
     95 H95       -56.1944  -27.9413   10.6962 H         1 UNK         0.0813 
     96 H96       -57.2150  -30.3328   11.4265 H         1 UNK         0.0638 
     97 H97       -56.2295  -31.7085   11.8197 H         1 UNK         0.0638 
     98 H98       -56.0674  -29.0032   13.2352 H         1 UNK         0.0568 
     99 H99       -57.9957  -30.7515   16.0684 H         1 UNK         0.3450 
    100 H100      -56.2655  -30.5602   15.9184 H         1 UNK         0.3450 
    101 H101      -54.2510  -29.6648   14.2175 H         1 UNK         0.2987 
    102 H102      -53.1566  -32.6106   15.7040 H         1 UNK         0.0766 
    103 H103      -51.7793  -31.5790   13.1599 H         1 UNK         0.0798 
    104 H104      -52.2415  -33.2464   13.4668 H         1 UNK         0.0798 
    105 H105      -51.0024  -32.4934   14.4549 H         1 UNK         0.0798 
    106 H106      -51.7872  -30.1481   15.1762 H         1 UNK         0.3198 
    107 H107      -53.4587  -28.0726   17.4590 H         1 UNK         0.0843 
    108 H108      -51.2135  -27.7931   18.4867 H         1 UNK         0.0831 
    109 H109      -50.6691  -29.3155   17.7794 H         1 UNK         0.0831 
    110 H110      -51.9301  -29.3092   19.0038 H         1 UNK         0.0831 
    111 H111      -51.0912  -27.6892   15.9193 H         1 UNK         0.3133 
    112 H112      -50.9573  -27.0788   13.8482 H         1 UNK         0.0566 
    113 H113      -51.9793  -28.7189   12.4000 H         1 UNK         0.0814 
    114 H114      -53.4231  -27.7543   12.1846 H         1 UNK         0.0814 
    115 H115      -51.8998  -27.2238   11.4816 H         1 UNK         0.0814 
    116 H116      -51.3550  -24.9538   13.7183 H         1 UNK         0.3091 
    117 H117      -52.8833  -23.0585   12.0416 H         1 UNK         0.0702 
    118 H118      -54.3843  -21.4461   13.2259 H         1 UNK         0.0785 
    119 H119      -54.8637  -22.7191   14.3482 H         1 UNK         0.0785 
    120 H120      -55.2623  -22.8471   12.6415 H         1 UNK         0.0785 
    121 H121      -51.4022  -22.0953   13.3756 H         1 UNK         0.2998 
    122 H122      -51.0072  -20.7826   15.5553 H         1 UNK         0.0697 
    123 H123      -49.9117  -21.2758   17.7312 H         1 UNK         0.0825 
    124 H124      -51.6301  -21.6215   17.8074 H         1 UNK         0.0825 
    125 H125      -50.4807  -22.9441   17.6624 H         1 UNK         0.0825 
    126 H126      -48.9431  -22.8569   15.7365 H         1 UNK         0.3029 
    127 H127      -47.1674  -21.6890   13.0226 H         1 UNK         0.0897 
    128 H128      -45.9211  -23.4469   14.2122 H         1 UNK         0.0792 
    129 H129      -46.6288  -22.3547   15.3872 H         1 UNK         0.0792 
    130 H130      -47.3459  -23.9418   15.1105 H         1 UNK         0.0792 
    131 H131      -47.5994  -23.3128   11.5723 H         1 UNK         0.3086 
    132 H132      -49.9115  -26.1020   11.6291 H         1 UNK         0.0583 
    133 H133      -50.7068  -23.8165   10.7232 H         1 UNK         0.1020 
    134 H134      -49.2328  -23.7431    9.8010 H         1 UNK         0.1020 
    135 H135      -52.7030  -24.7449   10.0747 H         1 UNK         0.0694 
    136 H136      -52.5973  -24.0734    8.4620 H         1 UNK         0.0694 
    137 H137      -47.7424  -25.6916    9.8715 H         1 UNK         0.2989 
    138 H138      -45.3918  -27.8398   11.4750 H         1 UNK         0.1055 
    139 H139      -47.0232  -28.0804    8.8845 H         1 UNK         0.0806 
    140 H140      -46.8512  -29.3190   10.1143 H         1 UNK         0.0806 
    141 H141      -45.4508  -28.8190    9.1805 H         1 UNK         0.0806 
    142 H142      -45.5867  -26.0487    9.1429 H         1 UNK         0.3061 
    143 H143      -43.8893  -23.3775   10.6851 H         1 UNK         0.0734 
    144 H144      -42.1433  -23.6758    8.9420 H         1 UNK         0.0832 
    145 H145      -41.9188  -24.8423   10.2338 H         1 UNK         0.0832 
    146 H146      -42.6263  -25.3573    8.7096 H         1 UNK         0.0832 
    147 H147      -44.5384  -23.9726    7.9446 H         1 UNK         0.3156 
    148 H148      -47.8552  -22.6831    8.0403 H         1 UNK         0.0589 
    149 H149      -45.2825  -21.6293    6.7512 H         1 UNK         0.0808 
    150 H150      -46.9332  -21.2345    6.2707 H         1 UNK         0.0808 
    151 H151      -46.3240  -20.7130    7.8311 H         1 UNK         0.0808 
    152 H152      -46.5418  -23.6581    5.8126 H         1 UNK         0.3098 
    153 H153      -47.3478  -25.5852    4.8856 H         1 UNK         0.0720 
    154 H154      -45.0526  -26.3275    5.6669 H         1 UNK         0.0791 
    155 H155      -45.7941  -27.5708    6.6667 H         1 UNK         0.0791 
    156 H156      -45.9176  -27.6533    4.9119 H         1 UNK         0.0791 
    157 H157      -48.8121  -26.9323    6.9257 H         1 UNK         0.3028 
@<TRIPOS>BOND
     1    1    2 1    
     2    1   82 1    
     3    1   83 1    
     4    1   84 1    
     5    2    3 2    
     6    2    4 am   BACKBONE|DICT|INTERRES
     7    4    5 1    
     8    4   85 1    
     9    5    6 1    
    10    5   80 1    
    11    5   86 1    
    12    6    7 1    
    13    6   87 1    
    14    6   88 1    
    15    7    8 1    
    16    8    9 1    
    17    8   89 1    
    18    8   90 1    
    19    9   10 ar   
    20    9   14 ar   
    21   10   11 ar   
    22   10   91 1    
    23   11   12 ar   
    24   11   58 1    
    25   12   13 ar   
    26   12   92 1    
    27   13   14 ar   
    28   13   15 1    
    29   14   93 1    
    30   15   16 1    
    31   15   94 1    
    32   15   95 1    
    33   16   17 1    
    34   17   18 1    
    35   17   96 1    
    36   17   97 1    
    37   18   19 1    
    38   18   22 1    
    39   18   98 1    
    40   19   20 am   BACKBONE|DICT|INTERRES
    41   19   21 2    
    42   20   99 1    
    43   20  100 1    
    44   22   23 am   BACKBONE|DICT|INTERRES
    45   22  101 1    
    46   23   24 2    
    47   23   25 1    
    48   25   26 1    
    49   25   27 1    
    50   25  102 1    
    51   26  103 1    
    52   26  104 1    
    53   26  105 1    
    54   27   28 am   BACKBONE|DICT|INTERRES
    55   27  106 1    
    56   28   29 2    
    57   28   30 1    
    58   30   31 1    
    59   30   32 1    
    60   30  107 1    
    61   31  108 1    
    62   31  109 1    
    63   31  110 1    
    64   32   33 am   BACKBONE|DICT|INTERRES
    65   32  111 1    
    66   33   34 2    
    67   33   35 1    
    68   35   36 1    
    69   35   37 1    
    70   35  112 1    
    71   36  113 1    
    72   36  114 1    
    73   36  115 1    
    74   37   38 am   BACKBONE|DICT|INTERRES
    75   37  116 1    
    76   38   39 2    
    77   38   40 1    
    78   40   41 1    
    79   40   42 1    
    80   40  117 1    
    81   41  118 1    
    82   41  119 1    
    83   41  120 1    
    84   42   43 am   BACKBONE|DICT|INTERRES
    85   42  121 1    
    86   43   44 2    
    87   43   45 1    
    88   45   46 1    
    89   45   47 1    
    90   45  122 1    
    91   46  123 1    
    92   46  124 1    
    93   46  125 1    
    94   47   48 am   BACKBONE|DICT|INTERRES
    95   47  126 1    
    96   48   49 2    
    97   48   50 1    
    98   50   51 1    
    99   50   52 1    
   100   50  127 1    
   101   51  128 1    
   102   51  129 1    
   103   51  130 1    
   104   52   53 am   BACKBONE|DICT|INTERRES
   105   52  131 1    
   106   53   54 2    
   107   53   55 1    
   108   55   56 1    
   109   55   59 1    
   110   55  132 1    
   111   56   57 1    
   112   56  133 1    
   113   56  134 1    
   114   57   58 1    
   115   58  135 1    
   116   58  136 1    
   117   59   60 am   BACKBONE|DICT|INTERRES
   118   59  137 1    
   119   60   61 2    
   120   60   62 1    
   121   62   63 1    
   122   62   64 1    
   123   62  138 1    
   124   63  139 1    
   125   63  140 1    
   126   63  141 1    
   127   64   65 am   BACKBONE|DICT|INTERRES
   128   64  142 1    
   129   65   66 2    
   130   65   67 1    
   131   67   68 1    
   132   67   69 1    
   133   67  143 1    
   134   68  144 1    
   135   68  145 1    
   136   68  146 1    
   137   69   70 am   BACKBONE|DICT|INTERRES
   138   69  147 1    
   139   70   71 2    
   140   70   72 1    
   141   72   73 1    
   142   72   74 1    
   143   72  148 1    
   144   73  149 1    
   145   73  150 1    
   146   73  151 1    
   147   74   75 am   BACKBONE|DICT|INTERRES
   148   74  152 1    
   149   75   76 2    
   150   75   77 1    
   151   77   78 1    
   152   77   79 1    
   153   77  153 1    
   154   78  154 1    
   155   78  155 1    
   156   78  156 1    
   157   79   80 am   BACKBONE|DICT|INTERRES
   158   79  157 1    
   159   80   81 2    
@<TRIPOS>SUBSTRUCTURE
     1 UNK         1 GROUP             0       ****    0 ROOT    
