@<TRIPOS>MOLECULE
3R207
157   159    1
SMALL
USER_CHARGES


@<TRIPOS>ATOM
      1 CA        -46.6890  -26.1602    3.8277 C.3       0 UNK        -0.1975 
      2 C         -46.9950  -27.6406    3.6165 C.2       0 UNK         0.4852 
      3 O         -46.5754  -28.2046    2.6070 O.2       0 UNK        -0.5216 
      4 N         -47.7017  -28.3138    4.5310 N.am      1 UNK        -0.4461 
      5 CA        -48.2481  -27.8166    5.7942 C.3       1 UNK         0.0864 
      6 C6        -49.6368  -27.1363    5.6327 C.3       14 UNK        -0.0898 
      7 S7        -50.9200  -28.1794    4.8511 S.3       14 UNK        -0.2598 
      8 C8        -51.9447  -28.6753    6.2849 C.3       14 UNK         0.0286 
      9 C9        -52.6271  -27.5375    7.0500 C.ar      14 UNK        -0.0844 
     10 C10       -52.8230  -26.2681    6.4910 C.ar      14 UNK        -0.0881 
     11 C11       -53.4287  -25.2490    7.2276 C.ar      14 UNK        -0.0643 
     12 C12       -53.8861  -25.5133    8.5203 C.ar      14 UNK        -0.0930 
     13 C13       -53.7263  -26.7794    9.0903 C.ar      14 UNK        -0.0827 
     14 C14       -53.0821  -27.7805    8.3515 C.ar      14 UNK        -0.1249 
     15 C15       -54.2290  -27.0095   10.5144 C.3       14 UNK         0.0141 
     16 S16       -54.8917  -28.6801   10.8354 S.3       14 UNK        -0.2313 
     17 C17       -53.4906  -29.4975   11.6752 C.3       14 UNK        -0.0915 
     18 CA        -53.9118  -30.2172   12.9873 C.3       13 UNK         0.0968 
     19 C         -52.7452  -31.0389   13.6107 C.2       13 UNK         0.5732 
     20 N         -52.5656  -31.0600   14.9271 N.am      13 UNK        -0.7310 
     21 O         -51.9928  -31.6892   12.8896 O.2       13 UNK        -0.5035 
     22 N         -54.5319  -29.2961   13.9552 N.am      13 UNK        -0.4233 
     23 C         -55.7228  -29.4872   14.5370 C.2       13 UNK         0.4989 
     24 O         -56.4766  -30.4227   14.2599 O.2       13 UNK        -0.4996 
     25 CA        -56.1449  -28.4666   15.6164 C.3       12 UNK         0.0216 
     26 CB        -57.2900  -28.9851   16.5125 C.3       12 UNK        -0.1964 
     27 N         -55.0380  -27.9749   16.4476 N.am      12 UNK        -0.4276 
     28 C         -54.1719  -28.7018   17.1742 C.2       12 UNK         0.5020 
     29 O         -54.1879  -29.9331   17.2153 O.2       12 UNK        -0.5489 
     30 CA        -53.0811  -27.9414   17.9554 C.3       11 UNK         0.0294 
     31 CB        -51.7202  -28.6558   17.8567 C.3       11 UNK        -0.2019 
     32 N         -52.9242  -26.5770   17.4522 N.am      11 UNK        -0.4493 
     33 C         -53.2669  -25.4529   18.0960 C.2       11 UNK         0.4932 
     34 O         -53.6887  -25.4268   19.2520 O.2       11 UNK        -0.5029 
     35 CA        -53.1426  -24.1288   17.3129 C.3       10 UNK         0.0280 
     36 CB        -51.8483  -23.3974   17.7020 C.3       10 UNK        -0.1976 
     37 N         -53.1766  -24.2985   15.8560 N.am      10 UNK        -0.4242 
     38 C         -54.2223  -24.7757   15.1614 C.2       10 UNK         0.5072 
     39 O         -55.3094  -25.0508   15.6692 O.2       10 UNK        -0.5224 
     40 CA        -53.9925  -25.0916   13.6718 C.3       9 UNK         0.0343 
     41 CB        -54.4080  -23.8969   12.8001 C.3       9 UNK        -0.2003 
     42 N         -52.6063  -25.4662   13.3689 N.am      9 UNK        -0.4272 
     43 C         -51.9552  -26.5030   13.9213 C.2       9 UNK         0.4988 
     44 O         -52.5126  -27.3261   14.6466 O.2       9 UNK        -0.5108 
     45 CA        -50.4418  -26.6514   13.6714 C.3       8 UNK         0.0248 
     46 CB        -50.1644  -27.9188   12.8576 C.3       8 UNK        -0.2001 
     47 N         -49.8177  -25.5070   13.0031 N.am      8 UNK        -0.4140 
     48 C         -49.7217  -24.2698   13.5090 C.2       8 UNK         0.5028 
     49 O         -50.0912  -23.9674   14.6448 O.2       8 UNK        -0.5428 
     50 CA        -49.1854  -23.1719   12.5694 C.3       7 UNK         0.0264 
     51 CB        -47.6947  -22.9296   12.8472 C.3       7 UNK        -0.1988 
     52 N         -49.3894  -23.4067   11.1270 N.am      7 UNK        -0.4454 
     53 C         -50.5747  -23.6623   10.5416 C.2       7 UNK         0.5027 
     54 O         -51.6141  -23.8104   11.1846 O.2       7 UNK        -0.5083 
     55 CA        -50.6522  -23.7702    9.0022 C.3       6 UNK         0.0844 
     56 C56       -51.6948  -22.7633    8.4469 C.3       14 UNK        -0.0967 
     57 S57       -51.9812  -22.9592    6.6535 S.3       14 UNK        -0.2604 
     58 C58       -53.5669  -23.8577    6.6286 C.3       14 UNK         0.0134 
     59 N         -49.3564  -23.6095    8.3420 N.am      6 UNK        -0.4116 
     60 C         -48.4336  -24.5602    8.1633 C.2       5 UNK         0.5034 
     61 O         -48.5274  -25.7178    8.5867 O.2       5 UNK        -0.5045 
     62 CA        -47.1682  -24.1490    7.3844 C.3       5 UNK         0.0224 
     63 CB        -47.2361  -22.7554    6.7168 C.3       5 UNK        -0.1978 
     64 N         -45.9834  -24.2687    8.2349 N.am      5 UNK        -0.4737 
     65 C         -45.7585  -23.6349    9.3931 C.2       4 UNK         0.5027 
     66 O         -46.4925  -22.7588    9.8529 O.2       4 UNK        -0.5211 
     67 CA        -44.5676  -24.1601   10.2154 C.3       4 UNK         0.0297 
     68 CB        -44.0661  -23.1353   11.2489 C.3       4 UNK        -0.1993 
     69 N         -44.9637  -25.3915   10.9030 N.am      4 UNK        -0.4486 
     70 C         -45.1645  -26.5708   10.2995 C.2       3 UNK         0.4961 
     71 O         -44.8519  -26.7957    9.1276 O.2       3 UNK        -0.5105 
     72 CA        -45.8964  -27.6621   11.0901 C.3       3 UNK         0.0299 
     73 CB        -46.3582  -27.2410   12.5030 C.3       3 UNK        -0.1972 
     74 N         -47.0321  -28.0743   10.2676 N.am      3 UNK        -0.4305 
     75 C         -47.6191  -29.2769   10.2888 C.2       2 UNK         0.5006 
     76 O         -47.3495  -30.1492   11.1150 O.2       2 UNK        -0.5106 
     77 CA        -48.6521  -29.5880    9.1898 C.3       2 UNK         0.0296 
     78 CB        -50.0890  -29.6279    9.7383 C.3       2 UNK        -0.2002 
     79 N         -48.5907  -28.6401    8.0715 N.am      2 UNK        -0.4032 
     80 C         -48.2643  -28.9686    6.8152 C.2       1 UNK         0.5000 
     81 O         -47.9903  -30.1162    6.4485 O.2       1 UNK        -0.5238 
     82 H82       -47.5898  -25.5892    4.0437 H         1 UNK         0.0889 
     83 H83       -46.2413  -25.7339    2.9302 H         1 UNK         0.0889 
     84 H84       -45.9795  -26.0298    4.6440 H         1 UNK         0.0889 
     85 H85       -47.8428  -29.3095    4.4128 H         1 UNK         0.3028 
     86 H86       -47.5486  -27.0894    6.2052 H         1 UNK         0.0864 
     87 H87       -50.0002  -26.7710    6.5934 H         1 UNK         0.0720 
     88 H88       -49.5401  -26.2417    5.0186 H         1 UNK         0.0720 
     89 H89       -52.7177  -29.3580    5.9304 H         1 UNK         0.0814 
     90 H90       -51.3192  -29.2517    6.9663 H         1 UNK         0.0814 
     91 H91       -52.4857  -26.0507    5.4878 H         1 UNK         0.1469 
     92 H92       -54.3576  -24.7244    9.0902 H         1 UNK         0.1381 
     93 H93       -52.9370  -28.7586    8.7881 H         1 UNK         0.1206 
     94 H94       -55.0296  -26.3033   10.7380 H         1 UNK         0.0813 
     95 H95       -53.4207  -26.7779   11.2037 H         1 UNK         0.0813 
     96 H96       -53.0625  -30.2085   10.9665 H         1 UNK         0.0638 
     97 H97       -52.7071  -28.7729   11.8853 H         1 UNK         0.0638 
     98 H98       -54.6403  -30.9754   12.6967 H         1 UNK         0.0568 
     99 H99       -53.2024  -30.5841   15.5560 H         1 UNK         0.3450 
    100 H100      -51.8084  -31.6060   15.3043 H         1 UNK         0.3450 
    101 H101      -53.9369  -28.5360   14.2735 H         1 UNK         0.2987 
    102 H102      -56.5212  -27.5993   15.0719 H         1 UNK         0.0766 
    103 H103      -57.5945  -28.2338   17.2411 H         1 UNK         0.0798 
    104 H104      -58.1718  -29.2343   15.9208 H         1 UNK         0.0798 
    105 H105      -56.9984  -29.8832   17.0583 H         1 UNK         0.0798 
    106 H106      -54.9348  -26.9660   16.4586 H         1 UNK         0.3198 
    107 H107      -53.3892  -27.9303   19.0028 H         1 UNK         0.0843 
    108 H108      -51.7700  -29.6593   18.2812 H         1 UNK         0.0831 
    109 H109      -50.9477  -28.1142   18.4026 H         1 UNK         0.0831 
    110 H110      -51.3924  -28.7553   16.8209 H         1 UNK         0.0831 
    111 H111      -52.6178  -26.5160   16.4869 H         1 UNK         0.3133 
    112 H112      -53.9902  -23.5007   17.5945 H         1 UNK         0.0566 
    113 H113      -50.9624  -23.9705   17.4242 H         1 UNK         0.0814 
    114 H114      -51.8030  -23.2269   18.7786 H         1 UNK         0.0814 
    115 H115      -51.7811  -22.4231   17.2175 H         1 UNK         0.0814 
    116 H116      -52.3115  -24.1159   15.3603 H         1 UNK         0.3091 
    117 H117      -54.6278  -25.9422   13.4163 H         1 UNK         0.0702 
    118 H118      -54.3240  -24.1289   11.7387 H         1 UNK         0.0785 
    119 H119      -53.7887  -23.0207   12.9972 H         1 UNK         0.0785 
    120 H120      -55.4449  -23.6156   12.9891 H         1 UNK         0.0785 
    121 H121      -52.1064  -24.8518   12.7309 H         1 UNK         0.2998 
    122 H122      -49.9699  -26.7633   14.6497 H         1 UNK         0.0697 
    123 H123      -50.5825  -27.8280   11.8586 H         1 UNK         0.0825 
    124 H124      -50.6063  -28.7989   13.3270 H         1 UNK         0.0825 
    125 H125      -49.0984  -28.1126   12.7622 H         1 UNK         0.0825 
    126 H126      -49.5131  -25.6475   12.0513 H         1 UNK         0.3029 
    127 H127      -49.7282  -22.2582   12.8203 H         1 UNK         0.0897 
    128 H128      -47.3310  -22.0496   12.3164 H         1 UNK         0.0792 
    129 H129      -47.5137  -22.7589   13.9095 H         1 UNK         0.0792 
    130 H130      -47.0876  -23.7824   12.5443 H         1 UNK         0.0792 
    131 H131      -48.5762  -23.2762   10.5357 H         1 UNK         0.3086 
    132 H132      -51.0128  -24.7791    8.7908 H         1 UNK         0.0583 
    133 H133      -52.6500  -22.8607    8.9662 H         1 UNK         0.1020 
    134 H134      -51.3678  -21.7377    8.6281 H         1 UNK         0.1020 
    135 H135      -54.3245  -23.2777    7.1580 H         1 UNK         0.0694 
    136 H136      -53.9109  -23.9390    5.5965 H         1 UNK         0.0694 
    137 H137      -49.1670  -22.6921    7.9663 H         1 UNK         0.2989 
    138 H138      -47.0531  -24.8802    6.5865 H         1 UNK         0.1055 
    139 H139      -46.3387  -22.5656    6.1276 H         1 UNK         0.0806 
    140 H140      -47.3240  -21.9452    7.4415 H         1 UNK         0.0806 
    141 H141      -48.0825  -22.6853    6.0317 H         1 UNK         0.0806 
    142 H142      -45.3760  -25.0559    8.0320 H         1 UNK         0.3061 
    143 H143      -43.7449  -24.3777    9.5304 H         1 UNK         0.0734 
    144 H144      -43.7779  -22.2033   10.7608 H         1 UNK         0.0832 
    145 H145      -44.8276  -22.8901   11.9892 H         1 UNK         0.0832 
    146 H146      -43.1897  -23.5059   11.7807 H         1 UNK         0.0832 
    147 H147      -45.2586  -25.2937   11.8631 H         1 UNK         0.3156 
    148 H148      -45.2007  -28.4984   11.1844 H         1 UNK         0.0589 
    149 H149      -47.1000  -26.4428   12.4713 H         1 UNK         0.0808 
    150 H150      -46.7989  -28.0843   13.0340 H         1 UNK         0.0808 
    151 H151      -45.5201  -26.9021   13.1132 H         1 UNK         0.0808 
    152 H152      -47.2800  -27.4194    9.5367 H         1 UNK         0.3098 
    153 H153      -48.4097  -30.5964    8.8481 H         1 UNK         0.0720 
    154 H154      -50.7349  -30.2139    9.0853 H         1 UNK         0.0791 
    155 H155      -50.1348  -30.0926   10.7248 H         1 UNK         0.0791 
    156 H156      -50.5205  -28.6306    9.8106 H         1 UNK         0.0791 
    157 H157      -48.7936  -27.6672    8.2846 H         1 UNK         0.3028 
@<TRIPOS>BOND
     1    1    2 1    
     2    1   82 1    
     3    1   83 1    
     4    1   84 1    
     5    2    3 2    
     6    2    4 am   BACKBONE|DICT|INTERRES
     7    4    5 1    
     8    4   85 1    
     9    5    6 1    
    10    5   80 1    
    11    5   86 1    
    12    6    7 1    
    13    6   87 1    
    14    6   88 1    
    15    7    8 1    
    16    8    9 1    
    17    8   89 1    
    18    8   90 1    
    19    9   10 ar   
    20    9   14 ar   
    21   10   11 ar   
    22   10   91 1    
    23   11   12 ar   
    24   11   58 1    
    25   12   13 ar   
    26   12   92 1    
    27   13   14 ar   
    28   13   15 1    
    29   14   93 1    
    30   15   16 1    
    31   15   94 1    
    32   15   95 1    
    33   16   17 1    
    34   17   18 1    
    35   17   96 1    
    36   17   97 1    
    37   18   19 1    
    38   18   22 1    
    39   18   98 1    
    40   19   20 am   BACKBONE|DICT|INTERRES
    41   19   21 2    
    42   20   99 1    
    43   20  100 1    
    44   22   23 am   BACKBONE|DICT|INTERRES
    45   22  101 1    
    46   23   24 2    
    47   23   25 1    
    48   25   26 1    
    49   25   27 1    
    50   25  102 1    
    51   26  103 1    
    52   26  104 1    
    53   26  105 1    
    54   27   28 am   BACKBONE|DICT|INTERRES
    55   27  106 1    
    56   28   29 2    
    57   28   30 1    
    58   30   31 1    
    59   30   32 1    
    60   30  107 1    
    61   31  108 1    
    62   31  109 1    
    63   31  110 1    
    64   32   33 am   BACKBONE|DICT|INTERRES
    65   32  111 1    
    66   33   34 2    
    67   33   35 1    
    68   35   36 1    
    69   35   37 1    
    70   35  112 1    
    71   36  113 1    
    72   36  114 1    
    73   36  115 1    
    74   37   38 am   BACKBONE|DICT|INTERRES
    75   37  116 1    
    76   38   39 2    
    77   38   40 1    
    78   40   41 1    
    79   40   42 1    
    80   40  117 1    
    81   41  118 1    
    82   41  119 1    
    83   41  120 1    
    84   42   43 am   BACKBONE|DICT|INTERRES
    85   42  121 1    
    86   43   44 2    
    87   43   45 1    
    88   45   46 1    
    89   45   47 1    
    90   45  122 1    
    91   46  123 1    
    92   46  124 1    
    93   46  125 1    
    94   47   48 am   BACKBONE|DICT|INTERRES
    95   47  126 1    
    96   48   49 2    
    97   48   50 1    
    98   50   51 1    
    99   50   52 1    
   100   50  127 1    
   101   51  128 1    
   102   51  129 1    
   103   51  130 1    
   104   52   53 am   BACKBONE|DICT|INTERRES
   105   52  131 1    
   106   53   54 2    
   107   53   55 1    
   108   55   56 1    
   109   55   59 1    
   110   55  132 1    
   111   56   57 1    
   112   56  133 1    
   113   56  134 1    
   114   57   58 1    
   115   58  135 1    
   116   58  136 1    
   117   59   60 am   BACKBONE|DICT|INTERRES
   118   59  137 1    
   119   60   61 2    
   120   60   62 1    
   121   62   63 1    
   122   62   64 1    
   123   62  138 1    
   124   63  139 1    
   125   63  140 1    
   126   63  141 1    
   127   64   65 am   BACKBONE|DICT|INTERRES
   128   64  142 1    
   129   65   66 2    
   130   65   67 1    
   131   67   68 1    
   132   67   69 1    
   133   67  143 1    
   134   68  144 1    
   135   68  145 1    
   136   68  146 1    
   137   69   70 am   BACKBONE|DICT|INTERRES
   138   69  147 1    
   139   70   71 2    
   140   70   72 1    
   141   72   73 1    
   142   72   74 1    
   143   72  148 1    
   144   73  149 1    
   145   73  150 1    
   146   73  151 1    
   147   74   75 am   BACKBONE|DICT|INTERRES
   148   74  152 1    
   149   75   76 2    
   150   75   77 1    
   151   77   78 1    
   152   77   79 1    
   153   77  153 1    
   154   78  154 1    
   155   78  155 1    
   156   78  156 1    
   157   79   80 am   BACKBONE|DICT|INTERRES
   158   79  157 1    
   159   80   81 2    
@<TRIPOS>SUBSTRUCTURE
     1 UNK         1 GROUP             0       ****    0 ROOT    
