@<TRIPOS>MOLECULE
3R207
157   159    1
SMALL
USER_CHARGES


@<TRIPOS>ATOM
      1 CA        -50.5262  -30.8034    6.1740 C.3       0 UNK        -0.1975 
      2 C         -50.3352  -29.3423    5.7983 C.2       0 UNK         0.4852 
      3 O         -49.4711  -28.6736    6.3686 O.2       0 UNK        -0.5216 
      4 N         -51.1191  -28.8449    4.8278 N.am      1 UNK        -0.4461 
      5 CA        -51.1236  -27.4542    4.3354 C.3       1 UNK         0.0864 
      6 C6        -51.6546  -26.4483    5.3976 C.3       14 UNK        -0.0898 
      7 S7        -53.4454  -26.6043    5.7051 S.3       14 UNK        -0.2598 
      8 C8        -53.5429  -27.7864    7.0892 C.3       14 UNK         0.0286 
      9 C9        -52.8243  -27.3238    8.3515 C.ar      14 UNK        -0.0844 
     10 C10       -53.2015  -26.1462    9.0050 C.ar      14 UNK        -0.0881 
     11 C11       -52.5720  -25.7620   10.1945 C.ar      14 UNK        -0.0643 
     12 C12       -51.5557  -26.5621   10.7261 C.ar      14 UNK        -0.0930 
     13 C13       -51.1612  -27.7323   10.0739 C.ar      14 UNK        -0.0827 
     14 C14       -51.8008  -28.1061    8.8912 C.ar      14 UNK        -0.1249 
     15 C15       -50.0371  -28.5877   10.6373 C.3       14 UNK         0.0141 
     16 S16       -50.5926  -29.6456   12.0074 S.3       14 UNK        -0.2313 
     17 C17       -51.6600  -30.8680   11.1659 C.3       14 UNK        -0.0915 
     18 CA        -53.1388  -30.8315   11.6358 C.3       13 UNK         0.0968 
     19 C         -53.2992  -31.3542   13.0960 C.2       13 UNK         0.5732 
     20 N         -53.6889  -30.5336   14.0658 N.am      13 UNK        -0.7310 
     21 O         -53.0773  -32.5364   13.3481 O.2       13 UNK        -0.5035 
     22 N         -53.7598  -29.5254   11.3754 N.am      13 UNK        -0.4233 
     23 C         -55.0788  -29.3051   11.3582 C.2       13 UNK         0.4989 
     24 O         -55.9326  -30.1922   11.4250 O.2       13 UNK        -0.4996 
     25 CA        -55.5243  -27.8350   11.2993 C.3       12 UNK         0.0216 
     26 CB        -56.4686  -27.5786   10.1133 C.3       12 UNK        -0.1964 
     27 N         -56.1811  -27.4296   12.5429 N.am      12 UNK        -0.4276 
     28 C         -55.5883  -27.4131   13.7426 C.2       12 UNK         0.5020 
     29 O         -54.4029  -27.7095   13.9304 O.2       12 UNK        -0.5489 
     30 CA        -56.4764  -27.0405   14.9404 C.3       11 UNK         0.0294 
     31 CB        -57.2918  -28.2595   15.4025 C.3       11 UNK        -0.2019 
     32 N         -55.6383  -26.5848   16.0473 N.am      11 UNK        -0.4493 
     33 C         -55.1077  -25.3587   16.1351 C.2       11 UNK         0.4932 
     34 O         -55.4366  -24.4059   15.4283 O.2       11 UNK        -0.5029 
     35 CA        -53.9576  -25.2092   17.1308 C.3       10 UNK         0.0280 
     36 CB        -54.3964  -25.5081   18.5792 C.3       10 UNK        -0.1976 
     37 N         -52.8795  -26.0968   16.6972 N.am      10 UNK        -0.4242 
     38 C         -51.5987  -26.0049   17.0700 C.2       10 UNK         0.5072 
     39 O         -51.1984  -25.1995   17.9137 O.2       10 UNK        -0.5224 
     40 CA        -50.6096  -26.9852   16.3998 C.3       9 UNK         0.0343 
     41 CB        -51.0727  -27.4767   15.0128 C.3       9 UNK        -0.2003 
     42 N         -49.2873  -26.3799   16.2520 N.am      9 UNK        -0.4272 
     43 C         -48.3368  -26.3311   17.1951 C.2       9 UNK         0.4988 
     44 O         -48.4129  -26.8950   18.2879 O.2       9 UNK        -0.5108 
     45 CA        -47.0847  -25.5071   16.8576 C.3       8 UNK         0.0248 
     46 CB        -46.0856  -26.3479   16.0454 C.3       8 UNK        -0.2001 
     47 N         -47.4349  -24.2965   16.1098 N.am      8 UNK        -0.4140 
     48 C         -47.7887  -23.1331   16.6763 C.2       8 UNK         0.5028 
     49 O         -47.7678  -22.9290   17.8909 O.2       8 UNK        -0.5428 
     50 CA        -48.2271  -21.9916   15.7388 C.3       7 UNK         0.0264 
     51 CB        -47.0360  -21.0742   15.4168 C.3       7 UNK        -0.1988 
     52 N         -48.8199  -22.4672   14.4865 N.am      7 UNK        -0.4454 
     53 C         -50.0482  -22.9960   14.3772 C.2       7 UNK         0.5027 
     54 O         -50.8498  -23.0547   15.3083 O.2       7 UNK        -0.5083 
     55 CA        -50.4510  -23.5736   13.0034 C.3       6 UNK         0.0844 
     56 C56       -51.3821  -22.5882   12.2507 C.3       14 UNK        -0.0967 
     57 S57       -51.8475  -23.1351   10.5710 S.3       14 UNK        -0.2604 
     58 C58       -53.0023  -24.4963   10.9183 C.3       14 UNK         0.0134 
     59 N         -49.3066  -24.0035   12.1903 N.am      6 UNK        -0.4116 
     60 C         -48.4385  -24.9725   12.5046 C.2       5 UNK         0.5034 
     61 O         -48.4584  -25.5662   13.5841 O.2       5 UNK        -0.5045 
     62 CA        -47.3745  -25.3260   11.4443 C.3       5 UNK         0.0224 
     63 CB        -46.5026  -26.5259   11.8592 C.3       5 UNK        -0.1978 
     64 N         -47.9515  -25.5948   10.1223 N.am      5 UNK        -0.4737 
     65 C         -48.4117  -24.6702    9.2694 C.2       4 UNK         0.5027 
     66 O         -48.4263  -23.4656    9.5307 O.2       4 UNK        -0.5211 
     67 CA        -48.9339  -25.1811    7.9114 C.3       4 UNK         0.0297 
     68 CB        -49.1211  -24.0381    6.8929 C.3       4 UNK        -0.1993 
     69 N         -48.1155  -26.2578    7.3308 N.am      4 UNK        -0.4486 
     70 C         -46.7951  -26.2237    7.0790 C.2       3 UNK         0.4961 
     71 O         -46.0639  -25.2601    7.3084 O.2       3 UNK        -0.5105 
     72 CA        -46.1881  -27.4838    6.4490 C.3       3 UNK         0.0299 
     73 CB        -46.1935  -28.6602    7.4416 C.3       3 UNK        -0.1972 
     74 N         -46.9215  -27.8453    5.2373 N.am      3 UNK        -0.4305 
     75 C         -46.6123  -27.4139    4.0049 C.2       2 UNK         0.5006 
     76 O         -45.6154  -26.7386    3.7451 O.2       2 UNK        -0.5106 
     77 CA        -47.5664  -27.7979    2.8566 C.3       2 UNK         0.0296 
     78 CB        -47.0725  -29.0716    2.1510 C.3       2 UNK        -0.2002 
     79 N         -48.9489  -27.9956    3.2966 N.am      2 UNK        -0.4032 
     80 C         -49.7609  -27.0204    3.7334 C.2       1 UNK         0.5000 
     81 O         -49.4625  -25.8264    3.6724 O.2       1 UNK        -0.5238 
     82 H82       -49.6731  -31.3900    5.8345 H         1 UNK         0.0889 
     83 H83       -51.4290  -31.2228    5.7307 H         1 UNK         0.0889 
     84 H84       -50.5997  -30.9097    7.2556 H         1 UNK         0.0889 
     85 H85       -51.7976  -29.4519    4.3882 H         1 UNK         0.3028 
     86 H86       -51.8133  -27.4346    3.4901 H         1 UNK         0.0864 
     87 H87       -51.5132  -25.4188    5.0663 H         1 UNK         0.0720 
     88 H88       -51.1047  -26.5363    6.3333 H         1 UNK         0.0720 
     89 H89       -53.1638  -28.7528    6.7572 H         1 UNK         0.0814 
     90 H90       -54.5945  -27.9482    7.3239 H         1 UNK         0.0814 
     91 H91       -53.9938  -25.5370    8.5919 H         1 UNK         0.1469 
     92 H92       -51.0690  -26.2748   11.6468 H         1 UNK         0.1381 
     93 H93       -51.5051  -29.0178    8.3957 H         1 UNK         0.1206 
     94 H94       -49.5862  -29.2028    9.8566 H         1 UNK         0.0813 
     95 H95       -49.2450  -27.9406   11.0113 H         1 UNK         0.0813 
     96 H96       -51.6152  -30.7129   10.0881 H         1 UNK         0.0638 
     97 H97       -51.2330  -31.8591   11.3289 H         1 UNK         0.0638 
     98 H98       -53.6740  -31.5545   11.0173 H         1 UNK         0.0568 
     99 H99       -53.8685  -29.5510   13.8806 H         1 UNK         0.3450 
    100 H100      -53.7895  -30.8952   14.9996 H         1 UNK         0.3450 
    101 H101      -53.1225  -28.7420   11.3364 H         1 UNK         0.2987 
    102 H102      -54.6428  -27.2070   11.1776 H         1 UNK         0.0766 
    103 H103      -56.0120  -27.8978    9.1772 H         1 UNK         0.0798 
    104 H104      -56.7024  -26.5184   10.0138 H         1 UNK         0.0798 
    105 H105      -57.4076  -28.1238   10.2173 H         1 UNK         0.0798 
    106 H106      -57.1653  -27.2121   12.4828 H         1 UNK         0.3198 
    107 H107      -57.1598  -26.2405   14.6464 H         1 UNK         0.0843 
    108 H108      -56.6482  -29.0971   15.6758 H         1 UNK         0.0831 
    109 H109      -57.9589  -28.6083   14.6131 H         1 UNK         0.0831 
    110 H110      -57.9129  -28.0177   16.2652 H         1 UNK         0.0831 
    111 H111      -55.2825  -27.3055   16.6580 H         1 UNK         0.3133 
    112 H112      -53.6033  -24.1772   17.0767 H         1 UNK         0.0566 
    113 H113      -53.6029  -25.2747   19.2892 H         1 UNK         0.0814 
    114 H114      -54.6674  -26.5547   18.7199 H         1 UNK         0.0814 
    115 H115      -55.2614  -24.9042   18.8566 H         1 UNK         0.0814 
    116 H116      -53.1206  -26.7450   15.9564 H         1 UNK         0.3091 
    117 H117      -50.5263  -27.8557   17.0534 H         1 UNK         0.0702 
    118 H118      -50.2958  -28.0719   14.5330 H         1 UNK         0.0785 
    119 H119      -51.3110  -26.6501   14.3425 H         1 UNK         0.0785 
    120 H120      -51.9533  -28.1156   15.0849 H         1 UNK         0.0785 
    121 H121      -49.1001  -25.9295   15.3618 H         1 UNK         0.2998 
    122 H122      -46.6013  -25.2253   17.7956 H         1 UNK         0.0697 
    123 H123      -46.5233  -26.7144   15.1166 H         1 UNK         0.0825 
    124 H124      -45.7613  -27.2197   16.6151 H         1 UNK         0.0825 
    125 H125      -45.1933  -25.7743   15.7946 H         1 UNK         0.0825 
    126 H126      -47.5271  -24.3999   15.1076 H         1 UNK         0.3029 
    127 H127      -48.9770  -21.4018   16.2713 H         1 UNK         0.0897 
    128 H128      -46.2515  -21.6031   14.8739 H         1 UNK         0.0792 
    129 H129      -46.5898  -20.6804   16.3312 H         1 UNK         0.0792 
    130 H130      -47.3444  -20.2188   14.8154 H         1 UNK         0.0792 
    131 H131      -48.2396  -22.4290   13.6610 H         1 UNK         0.3086 
    132 H132      -51.0285  -24.4738   13.2184 H         1 UNK         0.0583 
    133 H133      -52.2948  -22.4108   12.8238 H         1 UNK         0.1020 
    134 H134      -50.8986  -21.6143   12.1501 H         1 UNK         0.1020 
    135 H135      -53.0663  -24.6921   11.9895 H         1 UNK         0.0694 
    136 H136      -54.0043  -24.1978   10.6066 H         1 UNK         0.0694 
    137 H137      -49.2202  -23.5803   11.2692 H         1 UNK         0.2989 
    138 H138      -46.7177  -24.4575   11.3577 H         1 UNK         0.1055 
    139 H139      -47.0976  -27.4235   12.0311 H         1 UNK         0.0806 
    140 H140      -45.7555  -26.7570   11.0995 H         1 UNK         0.0806 
    141 H141      -45.9622  -26.3127   12.7820 H         1 UNK         0.0806 
    142 H142      -47.9753  -26.5585    9.8250 H         1 UNK         0.3061 
    143 H143      -49.9154  -25.6115    8.1144 H         1 UNK         0.0734 
    144 H144      -48.1857  -23.5106    6.7037 H         1 UNK         0.0832 
    145 H145      -49.4915  -24.4087    5.9390 H         1 UNK         0.0832 
    146 H146      -49.8424  -23.3055    7.2574 H         1 UNK         0.0832 
    147 H147      -48.6189  -27.1100    7.0912 H         1 UNK         0.3156 
    148 H148      -45.1465  -27.2704    6.1991 H         1 UNK         0.0589 
    149 H149      -45.7122  -29.5388    7.0118 H         1 UNK         0.0808 
    150 H150      -45.6463  -28.4040    8.3498 H         1 UNK         0.0808 
    151 H151      -47.2019  -28.9477    7.7402 H         1 UNK         0.0808 
    152 H152      -47.7949  -28.3418    5.3803 H         1 UNK         0.3098 
    153 H153      -47.5552  -26.9803    2.1325 H         1 UNK         0.0720 
    154 H154      -46.0522  -28.9439    1.7862 H         1 UNK         0.0791 
    155 H155      -47.6942  -29.3151    1.2892 H         1 UNK         0.0791 
    156 H156      -47.0730  -29.9321    2.8214 H         1 UNK         0.0791 
    157 H157      -49.2783  -28.9480    3.3548 H         1 UNK         0.3028 
@<TRIPOS>BOND
     1    1    2 1    
     2    1   82 1    
     3    1   83 1    
     4    1   84 1    
     5    2    3 2    
     6    2    4 am   BACKBONE|DICT|INTERRES
     7    4    5 1    
     8    4   85 1    
     9    5    6 1    
    10    5   80 1    
    11    5   86 1    
    12    6    7 1    
    13    6   87 1    
    14    6   88 1    
    15    7    8 1    
    16    8    9 1    
    17    8   89 1    
    18    8   90 1    
    19    9   10 ar   
    20    9   14 ar   
    21   10   11 ar   
    22   10   91 1    
    23   11   12 ar   
    24   11   58 1    
    25   12   13 ar   
    26   12   92 1    
    27   13   14 ar   
    28   13   15 1    
    29   14   93 1    
    30   15   16 1    
    31   15   94 1    
    32   15   95 1    
    33   16   17 1    
    34   17   18 1    
    35   17   96 1    
    36   17   97 1    
    37   18   19 1    
    38   18   22 1    
    39   18   98 1    
    40   19   20 am   BACKBONE|DICT|INTERRES
    41   19   21 2    
    42   20   99 1    
    43   20  100 1    
    44   22   23 am   BACKBONE|DICT|INTERRES
    45   22  101 1    
    46   23   24 2    
    47   23   25 1    
    48   25   26 1    
    49   25   27 1    
    50   25  102 1    
    51   26  103 1    
    52   26  104 1    
    53   26  105 1    
    54   27   28 am   BACKBONE|DICT|INTERRES
    55   27  106 1    
    56   28   29 2    
    57   28   30 1    
    58   30   31 1    
    59   30   32 1    
    60   30  107 1    
    61   31  108 1    
    62   31  109 1    
    63   31  110 1    
    64   32   33 am   BACKBONE|DICT|INTERRES
    65   32  111 1    
    66   33   34 2    
    67   33   35 1    
    68   35   36 1    
    69   35   37 1    
    70   35  112 1    
    71   36  113 1    
    72   36  114 1    
    73   36  115 1    
    74   37   38 am   BACKBONE|DICT|INTERRES
    75   37  116 1    
    76   38   39 2    
    77   38   40 1    
    78   40   41 1    
    79   40   42 1    
    80   40  117 1    
    81   41  118 1    
    82   41  119 1    
    83   41  120 1    
    84   42   43 am   BACKBONE|DICT|INTERRES
    85   42  121 1    
    86   43   44 2    
    87   43   45 1    
    88   45   46 1    
    89   45   47 1    
    90   45  122 1    
    91   46  123 1    
    92   46  124 1    
    93   46  125 1    
    94   47   48 am   BACKBONE|DICT|INTERRES
    95   47  126 1    
    96   48   49 2    
    97   48   50 1    
    98   50   51 1    
    99   50   52 1    
   100   50  127 1    
   101   51  128 1    
   102   51  129 1    
   103   51  130 1    
   104   52   53 am   BACKBONE|DICT|INTERRES
   105   52  131 1    
   106   53   54 2    
   107   53   55 1    
   108   55   56 1    
   109   55   59 1    
   110   55  132 1    
   111   56   57 1    
   112   56  133 1    
   113   56  134 1    
   114   57   58 1    
   115   58  135 1    
   116   58  136 1    
   117   59   60 am   BACKBONE|DICT|INTERRES
   118   59  137 1    
   119   60   61 2    
   120   60   62 1    
   121   62   63 1    
   122   62   64 1    
   123   62  138 1    
   124   63  139 1    
   125   63  140 1    
   126   63  141 1    
   127   64   65 am   BACKBONE|DICT|INTERRES
   128   64  142 1    
   129   65   66 2    
   130   65   67 1    
   131   67   68 1    
   132   67   69 1    
   133   67  143 1    
   134   68  144 1    
   135   68  145 1    
   136   68  146 1    
   137   69   70 am   BACKBONE|DICT|INTERRES
   138   69  147 1    
   139   70   71 2    
   140   70   72 1    
   141   72   73 1    
   142   72   74 1    
   143   72  148 1    
   144   73  149 1    
   145   73  150 1    
   146   73  151 1    
   147   74   75 am   BACKBONE|DICT|INTERRES
   148   74  152 1    
   149   75   76 2    
   150   75   77 1    
   151   77   78 1    
   152   77   79 1    
   153   77  153 1    
   154   78  154 1    
   155   78  155 1    
   156   78  156 1    
   157   79   80 am   BACKBONE|DICT|INTERRES
   158   79  157 1    
   159   80   81 2    
@<TRIPOS>SUBSTRUCTURE
     1 UNK         1 GROUP             0       ****    0 ROOT    
