@<TRIPOS>MOLECULE
3R207
157   159    1
SMALL
USER_CHARGES


@<TRIPOS>ATOM
      1 CA        -50.8745  -31.5000    6.3977 C.3       0 UNK        -0.1975 
      2 C         -50.6383  -30.0230    6.6744 C.2       0 UNK         0.4852 
      3 O         -51.1681  -29.1747    5.9567 O.2       0 UNK        -0.5216 
      4 N         -49.8501  -29.7107    7.7122 N.am      1 UNK        -0.4461 
      5 CA        -49.5569  -28.3427    8.1647 C.3       1 UNK         0.0864 
      6 C6        -48.9947  -28.3039    9.6098 C.3       14 UNK        -0.0898 
      7 S7        -49.9278  -29.3383   10.7985 S.3       14 UNK        -0.2598 
      8 C8        -50.8718  -28.1096   11.7684 C.3       14 UNK         0.0286 
      9 C9        -52.1428  -27.5521   11.1230 C.ar      14 UNK        -0.0844 
     10 C10       -52.8285  -26.5393   11.7974 C.ar      14 UNK        -0.0881 
     11 C11       -53.9290  -25.9000   11.2199 C.ar      14 UNK        -0.0643 
     12 C12       -54.3797  -26.3220    9.9649 C.ar      14 UNK        -0.0930 
     13 C13       -53.7359  -27.3664    9.2944 C.ar      14 UNK        -0.0827 
     14 C14       -52.6295  -27.9825    9.8838 C.ar      14 UNK        -0.1249 
     15 C15       -54.1924  -27.7942    7.9058 C.3       14 UNK         0.0141 
     16 S16       -55.6423  -28.8940    7.9423 S.3       14 UNK        -0.2313 
     17 C17       -54.9846  -30.3925    8.7558 C.3       14 UNK        -0.0915 
     18 CA        -55.7554  -30.7372   10.0588 C.3       13 UNK         0.0968 
     19 C         -55.2847  -32.0814   10.6895 C.2       13 UNK         0.5732 
     20 N         -55.1048  -32.1851   12.0020 N.am      13 UNK        -0.7310 
     21 O         -55.0914  -33.0627    9.9755 O.2       13 UNK        -0.5035 
     22 N         -55.7550  -29.6123   11.0063 N.am      13 UNK        -0.4233 
     23 C         -56.7938  -29.2598   11.7701 C.2       13 UNK         0.4989 
     24 O         -57.8943  -29.8146   11.7369 O.2       13 UNK        -0.4996 
     25 CA        -56.5376  -28.1008   12.7517 C.3       12 UNK         0.0216 
     26 CB        -57.7296  -27.8392   13.6964 C.3       12 UNK        -0.1964 
     27 N         -55.3022  -28.2648   13.5317 N.am      12 UNK        -0.4276 
     28 C         -54.9602  -29.3044   14.3088 C.2       12 UNK         0.5020 
     29 O         -55.6143  -30.3452   14.3860 O.2       12 UNK        -0.5489 
     30 CA        -53.6593  -29.1928   15.1305 C.3       11 UNK         0.0294 
     31 CB        -52.6224  -30.2081   14.6199 C.3       11 UNK        -0.2019 
     32 N         -53.0536  -27.8532   15.1852 N.am      11 UNK        -0.4493 
     33 C         -53.5985  -26.7885   15.7964 C.2       11 UNK         0.4932 
     34 O         -54.7237  -26.7939   16.2966 O.2       11 UNK        -0.5029 
     35 CA        -52.7347  -25.5103   15.8556 C.3       10 UNK         0.0280 
     36 CB        -53.3291  -24.4248   16.7763 C.3       10 UNK        -0.1976 
     37 N         -51.3321  -25.7676   16.2083 N.am      10 UNK        -0.4242 
     38 C         -50.8686  -26.4220   17.2851 C.2       10 UNK         0.5072 
     39 O         -51.5959  -26.8850   18.1655 O.2       10 UNK        -0.5224 
     40 CA        -49.3401  -26.5814   17.4349 C.3       9 UNK         0.0343 
     41 CB        -48.9611  -28.0196   17.8489 C.3       9 UNK        -0.2003 
     42 N         -48.5273  -26.1542   16.2859 N.am      9 UNK        -0.4272 
     43 C         -48.5049  -26.6652   15.0468 C.2       9 UNK         0.4988 
     44 O         -49.3022  -27.5089   14.6346 O.2       9 UNK        -0.5108 
     45 CA        -47.4178  -26.0962   14.1158 C.3       8 UNK         0.0248 
     46 CB        -47.1852  -26.9572   12.8618 C.3       8 UNK        -0.2001 
     47 N         -47.7353  -24.7230   13.7197 N.am      8 UNK        -0.4140 
     48 C         -47.5471  -23.6443   14.4979 C.2       8 UNK         0.5028 
     49 O         -47.0079  -23.6957   15.6049 O.2       8 UNK        -0.5428 
     50 CA        -48.0789  -22.2904   13.9887 C.3       7 UNK         0.0264 
     51 CB        -46.9527  -21.4901   13.3169 C.3       7 UNK        -0.1988 
     52 N         -49.2099  -22.4361   13.0664 N.am      7 UNK        -0.4454 
     53 C         -50.4126  -22.9074   13.4350 C.2       7 UNK         0.5027 
     54 O         -50.7140  -23.1219   14.6092 O.2       7 UNK        -0.5083 
     55 CA        -51.4312  -23.2820   12.3367 C.3       6 UNK         0.0844 
     56 C56       -52.8115  -22.6151   12.5496 C.3       14 UNK        -0.0967 
     57 S57       -54.0649  -23.1270   11.3183 S.3       14 UNK        -0.2604 
     58 C58       -54.6264  -24.7492   11.9373 C.3       14 UNK         0.0134 
     59 N         -50.9308  -23.1545   10.9650 N.am      6 UNK        -0.4116 
     60 C         -50.0130  -23.9616   10.4197 C.2       5 UNK         0.5034 
     61 O         -49.4359  -24.8481   11.0553 O.2       5 UNK        -0.5045 
     62 CA        -49.6499  -23.7310    8.9386 C.3       5 UNK         0.0224 
     63 CB        -50.1366  -22.3819    8.3611 C.3       5 UNK        -0.1978 
     64 N         -48.2098  -23.9051    8.7157 N.am      5 UNK        -0.4737 
     65 C         -47.2273  -23.2295    9.3312 C.2       4 UNK         0.5027 
     66 O         -47.4187  -22.2613   10.0676 O.2       4 UNK        -0.5211 
     67 CA        -45.7919  -23.7386    9.1320 C.3       4 UNK         0.0297 
     68 CB        -45.4601  -24.7950   10.1977 C.3       4 UNK        -0.1993 
     69 N         -45.5460  -24.3028    7.8047 N.am      4 UNK        -0.4486 
     70 C         -45.4208  -23.5943    6.6776 C.2       3 UNK         0.4961 
     71 O         -45.5334  -22.3692    6.6260 O.2       3 UNK        -0.5105 
     72 CA        -45.0952  -24.3696    5.3859 C.3       3 UNK         0.0299 
     73 CB        -43.5905  -24.6935    5.3011 C.3       3 UNK        -0.1972 
     74 N         -45.9169  -25.5665    5.1514 N.am      3 UNK        -0.4305 
     75 C         -45.9770  -26.7045    5.8574 C.2       2 UNK         0.5006 
     76 O         -45.3077  -26.9382    6.8668 O.2       2 UNK        -0.5106 
     77 CA        -46.9679  -27.7622    5.3433 C.3       2 UNK         0.0296 
     78 CB        -46.2164  -28.9226    4.6710 C.3       2 UNK        -0.2002 
     79 N         -47.8361  -28.2948    6.3967 N.am      2 UNK        -0.4032 
     80 C         -48.6380  -27.5706    7.1934 C.2       1 UNK         0.5000 
     81 O         -48.6923  -26.3404    7.1687 O.2       1 UNK        -0.5238 
     82 H82       -50.3449  -32.1377    7.1052 H         1 UNK         0.0889 
     83 H83       -50.5361  -31.7526    5.3932 H         1 UNK         0.0889 
     84 H84       -51.9380  -31.7275    6.4670 H         1 UNK         0.0889 
     85 H85       -49.4646  -30.4475    8.2865 H         1 UNK         0.3028 
     86 H86       -50.4977  -27.7909    8.1633 H         1 UNK         0.0864 
     87 H87       -48.9676  -27.2742    9.9693 H         1 UNK         0.0720 
     88 H88       -47.9604  -28.6530    9.6245 H         1 UNK         0.0720 
     89 H89       -51.1306  -28.5636   12.7222 H         1 UNK         0.0814 
     90 H90       -50.2155  -27.2759   12.0135 H         1 UNK         0.0814 
     91 H91       -52.4769  -26.2324   12.7694 H         1 UNK         0.1469 
     92 H92       -55.2253  -25.8295    9.5042 H         1 UNK         0.1381 
     93 H93       -52.1385  -28.7832    9.3526 H         1 UNK         0.1206 
     94 H94       -53.3815  -28.2892    7.3694 H         1 UNK         0.0813 
     95 H95       -54.4409  -26.9083    7.3198 H         1 UNK         0.0813 
     96 H96       -55.0686  -31.2095    8.0371 H         1 UNK         0.0638 
     97 H97       -53.9192  -30.2813    8.9561 H         1 UNK         0.0638 
     98 H98       -56.7869  -30.9273    9.7572 H         1 UNK         0.0568 
     99 H99       -55.3176  -31.4178   12.6282 H         1 UNK         0.3450 
    100 H100      -54.8064  -33.0688   12.3821 H         1 UNK         0.3450 
    101 H101      -54.8864  -29.1043   11.0896 H         1 UNK         0.2987 
    102 H102      -56.4073  -27.2103   12.1368 H         1 UNK         0.0766 
    103 H103      -57.5365  -26.9892   14.3510 H         1 UNK         0.0798 
    104 H104      -58.6359  -27.6147   13.1326 H         1 UNK         0.0798 
    105 H105      -57.9422  -28.7041   14.3260 H         1 UNK         0.0798 
    106 H106      -54.6696  -27.4796   13.5217 H         1 UNK         0.3198 
    107 H107      -53.9133  -29.4646   16.1574 H         1 UNK         0.0843 
    108 H108      -52.4734  -30.1313   13.5433 H         1 UNK         0.0831 
    109 H109      -52.9586  -31.2273   14.8155 H         1 UNK         0.0831 
    110 H110      -51.6566  -30.0888   15.1117 H         1 UNK         0.0831 
    111 H111      -52.1024  -27.7742   14.8520 H         1 UNK         0.3133 
    112 H112      -52.7237  -25.1034   14.8449 H         1 UNK         0.0566 
    113 H113      -52.7220  -23.5193   16.7607 H         1 UNK         0.0814 
    114 H114      -53.3984  -24.7653   17.8100 H         1 UNK         0.0814 
    115 H115      -54.3334  -24.1446   16.4563 H         1 UNK         0.0814 
    116 H116      -50.6462  -25.3938   15.5666 H         1 UNK         0.3091 
    117 H117      -49.0573  -25.9198   18.2549 H         1 UNK         0.0702 
    118 H118      -47.8860  -28.1199   17.9981 H         1 UNK         0.0785 
    119 H119      -49.2655  -28.7493   17.0977 H         1 UNK         0.0785 
    120 H120      -49.4419  -28.3008   18.7867 H         1 UNK         0.0785 
    121 H121      -47.8816  -25.3914   16.4681 H         1 UNK         0.2998 
    122 H122      -46.4821  -26.0977   14.6792 H         1 UNK         0.0697 
    123 H123      -48.0064  -26.8757   12.1534 H         1 UNK         0.0825 
    124 H124      -47.0783  -28.0119   13.1193 H         1 UNK         0.0825 
    125 H125      -46.2722  -26.6600   12.3477 H         1 UNK         0.0825 
    126 H126      -48.2220  -24.6123   12.8366 H         1 UNK         0.3029 
    127 H127      -48.4255  -21.7255   14.8570 H         1 UNK         0.0897 
    128 H128      -46.4975  -22.0434   12.4954 H         1 UNK         0.0792 
    129 H129      -46.1593  -21.2658   14.0312 H         1 UNK         0.0792 
    130 H130      -47.3144  -20.5394   12.9248 H         1 UNK         0.0792 
    131 H131      -49.0165  -22.3001   12.0825 H         1 UNK         0.3086 
    132 H132      -51.5782  -24.3434   12.4991 H         1 UNK         0.0583 
    133 H133      -53.1966  -22.8268   13.5492 H         1 UNK         0.1020 
    134 H134      -52.7130  -21.5295   12.4947 H         1 UNK         0.1020 
    135 H135      -54.4817  -24.8148   13.0162 H         1 UNK         0.0694 
    136 H136      -55.7025  -24.8239   11.7740 H         1 UNK         0.0694 
    137 H137      -51.3622  -22.4432   10.3934 H         1 UNK         0.2989 
    138 H138      -50.1494  -24.5275    8.3857 H         1 UNK         0.1055 
    139 H139      -49.8175  -22.2655    7.3252 H         1 UNK         0.0806 
    140 H140      -49.7491  -21.5297    8.9206 H         1 UNK         0.0806 
    141 H141      -51.2254  -22.3171    8.3628 H         1 UNK         0.0806 
    142 H142      -47.9683  -24.7117    8.1483 H         1 UNK         0.3061 
    143 H143      -45.1188  -22.8900    9.2718 H         1 UNK         0.0734 
    144 H144      -45.6247  -24.4020   11.2022 H         1 UNK         0.0832 
    145 H145      -46.0843  -25.6829   10.0878 H         1 UNK         0.0832 
    146 H146      -44.4174  -25.1070   10.1384 H         1 UNK         0.0832 
    147 H147      -45.4388  -25.3127    7.7304 H         1 UNK         0.3156 
    148 H148      -45.3254  -23.6972    4.5577 H         1 UNK         0.0589 
    149 H149      -43.2686  -25.3616    6.1005 H         1 UNK         0.0808 
    150 H150      -43.3392  -25.1635    4.3504 H         1 UNK         0.0808 
    151 H151      -42.9928  -23.7845    5.3807 H         1 UNK         0.0808 
    152 H152      -46.5441  -25.4871    4.3623 H         1 UNK         0.3098 
    153 H153      -47.6197  -27.3008    4.5985 H         1 UNK         0.0720 
    154 H154      -46.9064  -29.6453    4.2349 H         1 UNK         0.0791 
    155 H155      -45.5775  -28.5597    3.8646 H         1 UNK         0.0791 
    156 H156      -45.5772  -29.4519    5.3792 H         1 UNK         0.0791 
    157 H157      -47.8513  -29.2978    6.5047 H         1 UNK         0.3028 
@<TRIPOS>BOND
     1    1    2 1    
     2    1   82 1    
     3    1   83 1    
     4    1   84 1    
     5    2    3 2    
     6    2    4 am   BACKBONE|DICT|INTERRES
     7    4    5 1    
     8    4   85 1    
     9    5    6 1    
    10    5   80 1    
    11    5   86 1    
    12    6    7 1    
    13    6   87 1    
    14    6   88 1    
    15    7    8 1    
    16    8    9 1    
    17    8   89 1    
    18    8   90 1    
    19    9   10 ar   
    20    9   14 ar   
    21   10   11 ar   
    22   10   91 1    
    23   11   12 ar   
    24   11   58 1    
    25   12   13 ar   
    26   12   92 1    
    27   13   14 ar   
    28   13   15 1    
    29   14   93 1    
    30   15   16 1    
    31   15   94 1    
    32   15   95 1    
    33   16   17 1    
    34   17   18 1    
    35   17   96 1    
    36   17   97 1    
    37   18   19 1    
    38   18   22 1    
    39   18   98 1    
    40   19   20 am   BACKBONE|DICT|INTERRES
    41   19   21 2    
    42   20   99 1    
    43   20  100 1    
    44   22   23 am   BACKBONE|DICT|INTERRES
    45   22  101 1    
    46   23   24 2    
    47   23   25 1    
    48   25   26 1    
    49   25   27 1    
    50   25  102 1    
    51   26  103 1    
    52   26  104 1    
    53   26  105 1    
    54   27   28 am   BACKBONE|DICT|INTERRES
    55   27  106 1    
    56   28   29 2    
    57   28   30 1    
    58   30   31 1    
    59   30   32 1    
    60   30  107 1    
    61   31  108 1    
    62   31  109 1    
    63   31  110 1    
    64   32   33 am   BACKBONE|DICT|INTERRES
    65   32  111 1    
    66   33   34 2    
    67   33   35 1    
    68   35   36 1    
    69   35   37 1    
    70   35  112 1    
    71   36  113 1    
    72   36  114 1    
    73   36  115 1    
    74   37   38 am   BACKBONE|DICT|INTERRES
    75   37  116 1    
    76   38   39 2    
    77   38   40 1    
    78   40   41 1    
    79   40   42 1    
    80   40  117 1    
    81   41  118 1    
    82   41  119 1    
    83   41  120 1    
    84   42   43 am   BACKBONE|DICT|INTERRES
    85   42  121 1    
    86   43   44 2    
    87   43   45 1    
    88   45   46 1    
    89   45   47 1    
    90   45  122 1    
    91   46  123 1    
    92   46  124 1    
    93   46  125 1    
    94   47   48 am   BACKBONE|DICT|INTERRES
    95   47  126 1    
    96   48   49 2    
    97   48   50 1    
    98   50   51 1    
    99   50   52 1    
   100   50  127 1    
   101   51  128 1    
   102   51  129 1    
   103   51  130 1    
   104   52   53 am   BACKBONE|DICT|INTERRES
   105   52  131 1    
   106   53   54 2    
   107   53   55 1    
   108   55   56 1    
   109   55   59 1    
   110   55  132 1    
   111   56   57 1    
   112   56  133 1    
   113   56  134 1    
   114   57   58 1    
   115   58  135 1    
   116   58  136 1    
   117   59   60 am   BACKBONE|DICT|INTERRES
   118   59  137 1    
   119   60   61 2    
   120   60   62 1    
   121   62   63 1    
   122   62   64 1    
   123   62  138 1    
   124   63  139 1    
   125   63  140 1    
   126   63  141 1    
   127   64   65 am   BACKBONE|DICT|INTERRES
   128   64  142 1    
   129   65   66 2    
   130   65   67 1    
   131   67   68 1    
   132   67   69 1    
   133   67  143 1    
   134   68  144 1    
   135   68  145 1    
   136   68  146 1    
   137   69   70 am   BACKBONE|DICT|INTERRES
   138   69  147 1    
   139   70   71 2    
   140   70   72 1    
   141   72   73 1    
   142   72   74 1    
   143   72  148 1    
   144   73  149 1    
   145   73  150 1    
   146   73  151 1    
   147   74   75 am   BACKBONE|DICT|INTERRES
   148   74  152 1    
   149   75   76 2    
   150   75   77 1    
   151   77   78 1    
   152   77   79 1    
   153   77  153 1    
   154   78  154 1    
   155   78  155 1    
   156   78  156 1    
   157   79   80 am   BACKBONE|DICT|INTERRES
   158   79  157 1    
   159   80   81 2    
@<TRIPOS>SUBSTRUCTURE
     1 UNK         1 GROUP             0       ****    0 ROOT    
