@<TRIPOS>MOLECULE
3R207
157   159    1
SMALL
USER_CHARGES


@<TRIPOS>ATOM
      1 CA        -50.9481  -23.5842    7.0501 C.3       0 UNK        -0.1975 
      2 C         -51.0813  -24.8294    6.1868 C.2       0 UNK         0.4852 
      3 O         -51.2976  -24.7174    4.9793 O.2       0 UNK        -0.5216 
      4 N         -50.9289  -26.0162    6.7905 N.am      1 UNK        -0.4461 
      5 CA        -50.9947  -27.3550    6.1835 C.3       1 UNK         0.0864 
      6 C6        -52.3408  -27.6561    5.4636 C.3       14 UNK        -0.0898 
      7 S7        -52.8647  -29.3875    5.7036 S.3       14 UNK        -0.2598 
      8 C8        -54.0673  -29.2319    7.0667 C.3       14 UNK         0.0286 
      9 C9        -53.4523  -28.5922    8.3044 C.ar      14 UNK        -0.0844 
     10 C10       -53.7278  -27.2580    8.6179 C.ar      14 UNK        -0.0881 
     11 C11       -53.1469  -26.6447    9.7315 C.ar      14 UNK        -0.0643 
     12 C12       -52.3015  -27.4047   10.5520 C.ar      14 UNK        -0.0930 
     13 C13       -51.9953  -28.7321   10.2394 C.ar      14 UNK        -0.0827 
     14 C14       -52.5831  -29.3231    9.1176 C.ar      14 UNK        -0.1249 
     15 C15       -50.9570  -29.4932   11.0566 C.3       14 UNK         0.0141 
     16 S16       -51.5802  -31.0609   11.7438 S.3       14 UNK        -0.2313 
     17 C17       -52.3745  -30.5298   13.2964 C.3       14 UNK        -0.0915 
     18 CA        -53.9035  -30.7842   13.2875 C.3       13 UNK         0.0968 
     19 C         -54.5163  -30.7051   14.7175 C.2       13 UNK         0.5732 
     20 N         -55.5581  -29.9217   14.9727 N.am      13 UNK        -0.7310 
     21 O         -54.0474  -31.3935   15.6209 O.2       13 UNK        -0.5035 
     22 N         -54.5754  -29.9248   12.3060 N.am      13 UNK        -0.4233 
     23 C         -55.6821  -30.2526   11.6289 C.2       13 UNK         0.4989 
     24 O         -56.2078  -31.3665   11.6768 O.2       13 UNK        -0.4996 
     25 CA        -56.3153  -29.1422   10.7629 C.3       12 UNK         0.0216 
     26 CB        -57.8136  -29.3847   10.4820 C.3       12 UNK        -0.1964 
     27 N         -56.1027  -27.7896   11.2987 N.am      12 UNK        -0.4276 
     28 C         -56.4639  -27.3382   12.5087 C.2       12 UNK         0.5020 
     29 O         -57.0721  -28.0055   13.3487 O.2       12 UNK        -0.5489 
     30 CA        -56.0405  -25.9018   12.8529 C.3       11 UNK         0.0294 
     31 CB        -57.2669  -24.9796   12.9416 C.3       11 UNK        -0.2019 
     32 N         -55.2815  -25.8272   14.1041 N.am      11 UNK        -0.4493 
     33 C         -54.1522  -26.4974   14.3719 C.2       11 UNK         0.4932 
     34 O         -53.5990  -27.2729   13.5859 O.2       11 UNK        -0.5029 
     35 CA        -53.5464  -26.2647   15.7614 C.3       10 UNK         0.0280 
     36 CB        -54.4401  -26.8498   16.8730 C.3       10 UNK        -0.1976 
     37 N         -52.2306  -26.8913   15.8011 N.am      10 UNK        -0.4242 
     38 C         -51.2374  -26.6027   16.6479 C.2       10 UNK         0.5072 
     39 O         -51.3269  -25.7488   17.5322 O.2       10 UNK        -0.5224 
     40 CA        -49.9375  -27.4207   16.5115 C.3       9 UNK         0.0343 
     41 CB        -49.9731  -28.4862   15.3943 C.3       9 UNK        -0.2003 
     42 N         -48.8025  -26.5337   16.2727 N.am      9 UNK        -0.4272 
     43 C         -48.0422  -25.9583   17.2132 C.2       9 UNK         0.4988 
     44 O         -48.1778  -26.1413   18.4238 O.2       9 UNK        -0.5108 
     45 CA        -46.9232  -25.0308   16.7144 C.3       8 UNK         0.0248 
     46 CB        -45.7101  -25.8488   16.2392 C.3       8 UNK        -0.2001 
     47 N         -47.3851  -24.1663   15.6270 N.am      8 UNK        -0.4140 
     48 C         -47.9636  -22.9694   15.7999 C.2       8 UNK         0.5028 
     49 O         -48.1244  -22.4382   16.8996 O.2       8 UNK        -0.5428 
     50 CA        -48.4346  -22.2253   14.5361 C.3       7 UNK         0.0264 
     51 CB        -47.3519  -21.2458   14.0546 C.3       7 UNK        -0.1988 
     52 N         -48.7959  -23.1288   13.4400 N.am      7 UNK        -0.4454 
     53 C         -49.9206  -23.8634   13.4196 C.2       7 UNK         0.5027 
     54 O         -50.7826  -23.7978   14.2961 O.2       7 UNK        -0.5083 
     55 CA        -50.1059  -24.8667   12.2557 C.3       6 UNK         0.0844 
     56 C56       -50.9926  -24.2808   11.1256 C.3       14 UNK        -0.0967 
     57 S57       -52.7751  -24.4081   11.4903 S.3       14 UNK        -0.2604 
     58 C58       -53.4380  -25.1571    9.9594 C.3       14 UNK         0.0134 
     59 N         -48.8423  -25.3764   11.7146 N.am      6 UNK        -0.4116 
     60 C         -47.9037  -26.0332   12.4079 C.2       5 UNK         0.5034 
     61 O         -48.0281  -26.3529   13.5883 O.2       5 UNK        -0.5045 
     62 CA        -46.5753  -26.3312   11.6917 C.3       5 UNK         0.0224 
     63 CB        -46.5748  -27.7760   11.1671 C.3       5 UNK        -0.1978 
     64 N         -46.2374  -25.4206   10.5887 N.am      5 UNK        -0.4737 
     65 C         -46.1901  -24.0795   10.6298 C.2       4 UNK         0.5027 
     66 O         -46.4866  -23.4227   11.6282 O.2       4 UNK        -0.5211 
     67 CA        -45.7567  -23.3393    9.3481 C.3       4 UNK         0.0297 
     68 CB        -44.5018  -22.4908    9.6146 C.3       4 UNK        -0.1993 
     69 N         -45.5002  -24.2216    8.2027 N.am      4 UNK        -0.4486 
     70 C         -46.4414  -24.8289    7.4699 C.2       3 UNK         0.4961 
     71 O         -47.6547  -24.7147    7.6688 O.2       3 UNK        -0.5105 
     72 CA        -45.9327  -25.7618    6.3653 C.3       3 UNK         0.0299 
     73 CB        -45.4289  -27.0892    6.9682 C.3       3 UNK        -0.1972 
     74 N         -47.0344  -26.0104    5.4451 N.am      3 UNK        -0.4305 
     75 C         -46.9629  -26.5646    4.2290 C.2       2 UNK         0.5006 
     76 O         -45.9047  -26.9112    3.7008 O.2       2 UNK        -0.5106 
     77 CA        -48.2946  -26.7473    3.4679 C.3       2 UNK         0.0296 
     78 CB        -48.2777  -27.9661    2.5204 C.3       2 UNK        -0.2002 
     79 N         -49.4716  -26.7774    4.3476 N.am      2 UNK        -0.4032 
     80 C         -49.7699  -27.6739    5.3010 C.2       1 UNK         0.5000 
     81 O         -49.1019  -28.6826    5.5339 O.2       1 UNK        -0.5238 
     82 H82       -50.3188  -22.8482    6.5504 H         1 UNK         0.0889 
     83 H83       -50.4936  -23.8063    8.0146 H         1 UNK         0.0889 
     84 H84       -51.9267  -23.1372    7.2218 H         1 UNK         0.0889 
     85 H85       -50.7236  -26.0269    7.7793 H         1 UNK         0.3028 
     86 H86       -50.9171  -28.0211    7.0445 H         1 UNK         0.0864 
     87 H87       -53.1319  -27.0046    5.8355 H         1 UNK         0.0720 
     88 H88       -52.2838  -27.4470    4.3937 H         1 UNK         0.0720 
     89 H89       -54.4445  -30.2233    7.3215 H         1 UNK         0.0814 
     90 H90       -54.9292  -28.6584    6.7220 H         1 UNK         0.0814 
     91 H91       -54.3797  -26.6834    7.9735 H         1 UNK         0.1469 
     92 H92       -51.8504  -26.9659   11.4249 H         1 UNK         0.1381 
     93 H93       -52.3419  -30.3457    8.8612 H         1 UNK         0.1206 
     94 H94       -50.5506  -28.8758   11.8593 H         1 UNK         0.0813 
     95 H95       -50.1148  -29.7211   10.4020 H         1 UNK         0.0813 
     96 H96       -52.1612  -29.4784   13.4872 H         1 UNK         0.0638 
     97 H97       -51.8910  -31.0886   14.0995 H         1 UNK         0.0638 
     98 H98       -54.0503  -31.8223   12.9839 H         1 UNK         0.0568 
     99 H99       -55.9809  -29.3423   14.2538 H         1 UNK         0.3450 
    100 H100      -55.9410  -29.9134   15.9034 H         1 UNK         0.3450 
    101 H101      -54.2245  -28.9767   12.2515 H         1 UNK         0.2987 
    102 H102      -55.7940  -29.1794    9.8064 H         1 UNK         0.0766 
    103 H103      -58.2317  -28.5987    9.8532 H         1 UNK         0.0798 
    104 H104      -58.3961  -29.4232   11.4032 H         1 UNK         0.0798 
    105 H105      -57.9675  -30.3300    9.9601 H         1 UNK         0.0798 
    106 H106      -55.5643  -27.1750   10.7044 H         1 UNK         0.3198 
    107 H107      -55.3938  -25.5270   12.0617 H         1 UNK         0.0843 
    108 H108      -57.9393  -25.2800   13.7464 H         1 UNK         0.0831 
    109 H109      -57.8400  -25.0028   12.0137 H         1 UNK         0.0831 
    110 H110      -56.9749  -23.9435   13.1142 H         1 UNK         0.0831 
    111 H111      -55.6692  -25.2369   14.8250 H         1 UNK         0.3133 
    112 H112      -53.4326  -25.1880   15.9034 H         1 UNK         0.0566 
    113 H113      -55.4415  -26.4189   16.8511 H         1 UNK         0.0814 
    114 H114      -54.5466  -27.9302   16.7722 H         1 UNK         0.0814 
    115 H115      -54.0279  -26.6480   17.8617 H         1 UNK         0.0814 
    116 H116      -52.0797  -27.5556   15.0524 H         1 UNK         0.3091 
    117 H117      -49.7921  -27.9433   17.4592 H         1 UNK         0.0702 
    118 H118      -49.0337  -29.0379   15.3533 H         1 UNK         0.0785 
    119 H119      -50.1331  -28.0458   14.4090 H         1 UNK         0.0785 
    120 H120      -50.7603  -29.2196   15.5732 H         1 UNK         0.0785 
    121 H121      -48.5812  -26.3525   15.2958 H         1 UNK         0.2998 
    122 H122      -46.5995  -24.4125   17.5546 H         1 UNK         0.0697 
    123 H123      -45.9579  -26.4980   15.3986 H         1 UNK         0.0825 
    124 H124      -45.3332  -26.4853   17.0409 H         1 UNK         0.0825 
    125 H125      -44.8911  -25.1991   15.9303 H         1 UNK         0.0825 
    126 H126      -47.3339  -24.5467   14.6918 H         1 UNK         0.3029 
    127 H127      -49.3189  -21.6442   14.8079 H         1 UNK         0.0897 
    128 H128      -46.4288  -21.7623   13.7882 H         1 UNK         0.0792 
    129 H129      -47.1067  -20.5227   14.8336 H         1 UNK         0.0792 
    130 H130      -47.6844  -20.6826   13.1824 H         1 UNK         0.0792 
    131 H131      -48.1063  -23.2411   12.7001 H         1 UNK         0.3086 
    132 H132      -50.6077  -25.7313   12.6927 H         1 UNK         0.0583 
    133 H133      -50.7405  -23.2396   10.9138 H         1 UNK         0.1020 
    134 H134      -50.8085  -24.8199   10.1961 H         1 UNK         0.1020 
    135 H135      -54.5180  -25.0076    9.9549 H         1 UNK         0.0694 
    136 H136      -53.0583  -24.5913    9.1078 H         1 UNK         0.0694 
    137 H137      -48.6287  -25.1389   10.7571 H         1 UNK         0.2989 
    138 H138      -45.7864  -26.2357   12.4408 H         1 UNK         0.1055 
    139 H139      -46.8021  -28.4830   11.9667 H         1 UNK         0.0806 
    140 H140      -45.6010  -28.0527   10.7626 H         1 UNK         0.0806 
    141 H141      -47.3189  -27.9217   10.3827 H         1 UNK         0.0806 
    142 H142      -45.9819  -25.8567    9.7156 H         1 UNK         0.3061 
    143 H143      -46.5727  -22.6635    9.0827 H         1 UNK         0.0734 
    144 H144      -44.2225  -21.9069    8.7374 H         1 UNK         0.0832 
    145 H145      -44.6717  -21.7839   10.4282 H         1 UNK         0.0832 
    146 H146      -43.6479  -23.1088    9.8949 H         1 UNK         0.0832 
    147 H147      -44.5295  -24.3854    7.9732 H         1 UNK         0.3156 
    148 H148      -45.1246  -25.2632    5.8264 H         1 UNK         0.0589 
    149 H149      -46.2240  -27.6171    7.4969 H         1 UNK         0.0808 
    150 H150      -45.0443  -27.7577    6.1979 H         1 UNK         0.0808 
    151 H151      -44.6167  -26.9227    7.6766 H         1 UNK         0.0808 
    152 H152      -47.9322  -25.7112    5.8055 H         1 UNK         0.3098 
    153 H153      -48.4077  -25.8549    2.8508 H         1 UNK         0.0720 
    154 H154      -47.4979  -27.8640    1.7648 H         1 UNK         0.0791 
    155 H155      -49.2256  -28.0716    1.9927 H         1 UNK         0.0791 
    156 H156      -48.0871  -28.8954    3.0580 H         1 UNK         0.0791 
    157 H157      -50.0924  -25.9717    4.2879 H         1 UNK         0.3028 
@<TRIPOS>BOND
     1    1    2 1    
     2    1   82 1    
     3    1   83 1    
     4    1   84 1    
     5    2    3 2    
     6    2    4 am   BACKBONE|DICT|INTERRES
     7    4    5 1    
     8    4   85 1    
     9    5    6 1    
    10    5   80 1    
    11    5   86 1    
    12    6    7 1    
    13    6   87 1    
    14    6   88 1    
    15    7    8 1    
    16    8    9 1    
    17    8   89 1    
    18    8   90 1    
    19    9   10 ar   
    20    9   14 ar   
    21   10   11 ar   
    22   10   91 1    
    23   11   12 ar   
    24   11   58 1    
    25   12   13 ar   
    26   12   92 1    
    27   13   14 ar   
    28   13   15 1    
    29   14   93 1    
    30   15   16 1    
    31   15   94 1    
    32   15   95 1    
    33   16   17 1    
    34   17   18 1    
    35   17   96 1    
    36   17   97 1    
    37   18   19 1    
    38   18   22 1    
    39   18   98 1    
    40   19   20 am   BACKBONE|DICT|INTERRES
    41   19   21 2    
    42   20   99 1    
    43   20  100 1    
    44   22   23 am   BACKBONE|DICT|INTERRES
    45   22  101 1    
    46   23   24 2    
    47   23   25 1    
    48   25   26 1    
    49   25   27 1    
    50   25  102 1    
    51   26  103 1    
    52   26  104 1    
    53   26  105 1    
    54   27   28 am   BACKBONE|DICT|INTERRES
    55   27  106 1    
    56   28   29 2    
    57   28   30 1    
    58   30   31 1    
    59   30   32 1    
    60   30  107 1    
    61   31  108 1    
    62   31  109 1    
    63   31  110 1    
    64   32   33 am   BACKBONE|DICT|INTERRES
    65   32  111 1    
    66   33   34 2    
    67   33   35 1    
    68   35   36 1    
    69   35   37 1    
    70   35  112 1    
    71   36  113 1    
    72   36  114 1    
    73   36  115 1    
    74   37   38 am   BACKBONE|DICT|INTERRES
    75   37  116 1    
    76   38   39 2    
    77   38   40 1    
    78   40   41 1    
    79   40   42 1    
    80   40  117 1    
    81   41  118 1    
    82   41  119 1    
    83   41  120 1    
    84   42   43 am   BACKBONE|DICT|INTERRES
    85   42  121 1    
    86   43   44 2    
    87   43   45 1    
    88   45   46 1    
    89   45   47 1    
    90   45  122 1    
    91   46  123 1    
    92   46  124 1    
    93   46  125 1    
    94   47   48 am   BACKBONE|DICT|INTERRES
    95   47  126 1    
    96   48   49 2    
    97   48   50 1    
    98   50   51 1    
    99   50   52 1    
   100   50  127 1    
   101   51  128 1    
   102   51  129 1    
   103   51  130 1    
   104   52   53 am   BACKBONE|DICT|INTERRES
   105   52  131 1    
   106   53   54 2    
   107   53   55 1    
   108   55   56 1    
   109   55   59 1    
   110   55  132 1    
   111   56   57 1    
   112   56  133 1    
   113   56  134 1    
   114   57   58 1    
   115   58  135 1    
   116   58  136 1    
   117   59   60 am   BACKBONE|DICT|INTERRES
   118   59  137 1    
   119   60   61 2    
   120   60   62 1    
   121   62   63 1    
   122   62   64 1    
   123   62  138 1    
   124   63  139 1    
   125   63  140 1    
   126   63  141 1    
   127   64   65 am   BACKBONE|DICT|INTERRES
   128   64  142 1    
   129   65   66 2    
   130   65   67 1    
   131   67   68 1    
   132   67   69 1    
   133   67  143 1    
   134   68  144 1    
   135   68  145 1    
   136   68  146 1    
   137   69   70 am   BACKBONE|DICT|INTERRES
   138   69  147 1    
   139   70   71 2    
   140   70   72 1    
   141   72   73 1    
   142   72   74 1    
   143   72  148 1    
   144   73  149 1    
   145   73  150 1    
   146   73  151 1    
   147   74   75 am   BACKBONE|DICT|INTERRES
   148   74  152 1    
   149   75   76 2    
   150   75   77 1    
   151   77   78 1    
   152   77   79 1    
   153   77  153 1    
   154   78  154 1    
   155   78  155 1    
   156   78  156 1    
   157   79   80 am   BACKBONE|DICT|INTERRES
   158   79  157 1    
   159   80   81 2    
@<TRIPOS>SUBSTRUCTURE
     1 UNK         1 GROUP             0       ****    0 ROOT    
