@<TRIPOS>MOLECULE
3R207
157   159    1
SMALL
USER_CHARGES


@<TRIPOS>ATOM
      1 CA        -44.3697  -27.8233   11.3226 C.3       0 UNK        -0.1975 
      2 C         -45.0643  -28.6159   10.2255 C.2       0 UNK         0.4852 
      3 O         -44.7602  -29.7950   10.0413 O.2       0 UNK        -0.5216 
      4 N         -45.9843  -27.9800    9.4914 N.am      1 UNK        -0.4461 
      5 CA        -46.6940  -28.5571    8.3535 C.3       1 UNK         0.0864 
      6 C6        -47.8480  -29.5149    8.7750 C.3       14 UNK        -0.0898 
      7 S7        -49.3254  -28.7032    9.4878 S.3       14 UNK        -0.2598 
      8 C8        -50.4888  -28.8592    8.0908 C.3       14 UNK         0.0286 
      9 C9        -51.6362  -27.8733    8.2208 C.ar      14 UNK        -0.0844 
     10 C10       -51.4649  -26.5468    7.8184 C.ar      14 UNK        -0.0881 
     11 C11       -52.4845  -25.6068    7.9999 C.ar      14 UNK        -0.0643 
     12 C12       -53.7030  -26.0223    8.5485 C.ar      14 UNK        -0.0930 
     13 C13       -53.8991  -27.3559    8.9220 C.ar      14 UNK        -0.0827 
     14 C14       -52.8631  -28.2777    8.7502 C.ar      14 UNK        -0.1249 
     15 C15       -55.2319  -27.8049    9.5012 C.3       14 UNK         0.0141 
     16 S16       -55.3996  -27.3433   11.2535 S.3       14 UNK        -0.2313 
     17 C17       -57.0097  -28.1136   11.6408 C.3       14 UNK        -0.0915 
     18 CA        -56.9779  -29.1324   12.8144 C.3       13 UNK         0.0968 
     19 C         -56.1140  -30.3997   12.5623 C.2       13 UNK         0.5732 
     20 N         -55.4695  -30.9674   13.5749 N.am      13 UNK        -0.7310 
     21 O         -56.0540  -30.9012   11.4422 O.2       13 UNK        -0.5035 
     22 N         -56.7189  -28.4821   14.1090 N.am      13 UNK        -0.4233 
     23 C         -57.6761  -28.0241   14.9263 C.2       13 UNK         0.4989 
     24 O         -58.8792  -28.0899   14.6642 O.2       13 UNK        -0.4996 
     25 CA        -57.2319  -27.3655   16.2487 C.3       12 UNK         0.0216 
     26 CB        -58.3458  -27.3570   17.3180 C.3       12 UNK        -0.1964 
     27 N         -55.9889  -27.9080   16.8075 N.am      12 UNK        -0.4276 
     28 C         -55.7368  -29.1686   17.1975 C.2       12 UNK         0.5020 
     29 O         -56.5581  -30.0830   17.1208 O.2       12 UNK        -0.5489 
     30 CA        -54.3277  -29.4737   17.7477 C.3       11 UNK         0.0294 
     31 CB        -53.7307  -30.7332   17.0931 C.3       11 UNK        -0.2019 
     32 N         -53.4075  -28.3559   17.5318 N.am      11 UNK        -0.4493 
     33 C         -53.0805  -27.4248   18.4388 C.2       11 UNK         0.4932 
     34 O         -53.4358  -27.4601   19.6166 O.2       11 UNK        -0.5029 
     35 CA        -52.2454  -26.2290   17.9398 C.3       10 UNK         0.0280 
     36 CB        -50.7602  -26.4326   18.2767 C.3       10 UNK        -0.1976 
     37 N         -52.3982  -25.9856   16.4997 N.am      10 UNK        -0.4242 
     38 C         -53.5316  -25.5428   15.9283 C.2       10 UNK         0.5072 
     39 O         -54.5317  -25.2254   16.5717 O.2       10 UNK        -0.5224 
     40 CA        -53.6069  -25.5231   14.3900 C.3       9 UNK         0.0343 
     41 CB        -53.2866  -24.1220   13.8496 C.3       9 UNK        -0.2003 
     42 N         -52.7317  -26.5140   13.7590 N.am      9 UNK        -0.4272 
     43 C         -52.8657  -27.8416   13.9130 C.2       9 UNK         0.4988 
     44 O         -53.8029  -28.3526   14.5280 O.2       9 UNK        -0.5108 
     45 CA        -51.7616  -28.7586   13.3506 C.3       8 UNK         0.0248 
     46 CB        -52.2467  -29.4517   12.0738 C.3       8 UNK        -0.2001 
     47 N         -50.4941  -28.0792   13.0691 N.am      8 UNK        -0.4140 
     48 C         -49.7360  -27.4503   13.9780 C.2       8 UNK         0.5028 
     49 O         -50.0072  -27.4042   15.1781 O.2       8 UNK        -0.5428 
     50 CA        -48.5072  -26.6872   13.4541 C.3       7 UNK         0.0264 
     51 CB        -47.2522  -27.5691   13.5316 C.3       7 UNK        -0.1988 
     52 N         -48.6515  -26.1589   12.0908 N.am      7 UNK        -0.4454 
     53 C         -49.6062  -25.3063   11.6856 C.2       7 UNK         0.5027 
     54 O         -50.5203  -24.9188   12.4145 O.2       7 UNK        -0.5083 
     55 CA        -49.5171  -24.8213   10.2225 C.3       6 UNK         0.0844 
     56 C56       -50.5991  -23.7657    9.8629 C.3       14 UNK        -0.0967 
     57 S57       -50.6599  -23.4506    8.0637 S.3       14 UNK        -0.2604 
     58 C58       -52.2888  -24.1440    7.6046 C.3       14 UNK         0.0134 
     59 N         -48.1614  -24.4006    9.8461 N.am      6 UNK        -0.4116 
     60 C         -47.4249  -23.4449   10.4333 C.2       5 UNK         0.5034 
     61 O         -47.7679  -22.8148   11.4339 O.2       5 UNK        -0.5045 
     62 CA        -46.0767  -23.1238    9.7735 C.3       5 UNK         0.0224 
     63 CB        -45.0393  -24.2263   10.0367 C.3       5 UNK        -0.1978 
     64 N         -46.2156  -22.9095    8.3328 N.am      5 UNK        -0.4737 
     65 C         -46.6695  -21.7768    7.7802 C.2       4 UNK         0.5027 
     66 O         -47.0182  -20.7996    8.4441 O.2       4 UNK        -0.5211 
     67 CA        -46.7639  -21.6970    6.2417 C.3       4 UNK         0.0297 
     68 CB        -46.0571  -20.4384    5.6964 C.3       4 UNK        -0.1993 
     69 N         -46.3230  -22.8952    5.5133 N.am      4 UNK        -0.4486 
     70 C         -45.1010  -23.4392    5.4298 C.2       3 UNK         0.4961 
     71 O         -44.1126  -22.9965    6.0158 O.2       3 UNK        -0.5105 
     72 CA        -44.9812  -24.7137    4.5638 C.3       3 UNK         0.0299 
     73 CB        -43.5679  -25.3251    4.6041 C.3       3 UNK        -0.1972 
     74 N         -45.9528  -25.7495    4.9354 N.am      3 UNK        -0.4305 
     75 C         -47.2684  -25.7252    4.6782 C.2       2 UNK         0.5006 
     76 O         -47.8169  -24.8098    4.0623 O.2       2 UNK        -0.5106 
     77 CA        -48.1337  -26.8867    5.1982 C.3       2 UNK         0.0296 
     78 CB        -48.6409  -27.7469    4.0289 C.3       2 UNK        -0.2002 
     79 N         -47.4942  -27.7610    6.1874 N.am      2 UNK        -0.4032 
     80 C         -47.1554  -27.4102    7.4356 C.2       1 UNK         0.5000 
     81 O         -47.2202  -26.2557    7.8752 O.2       1 UNK        -0.5238 
     82 H82       -44.4245  -28.3632   12.2675 H         1 UNK         0.0889 
     83 H83       -44.8205  -26.8432   11.4665 H         1 UNK         0.0889 
     84 H84       -43.3186  -27.6810   11.0731 H         1 UNK         0.0889 
     85 H85       -46.1704  -26.9951    9.6170 H         1 UNK         0.3028 
     86 H86       -45.9669  -29.1364    7.7796 H         1 UNK         0.0864 
     87 H87       -47.4812  -30.2351    9.5077 H         1 UNK         0.0720 
     88 H88       -48.1525  -30.1209    7.9203 H         1 UNK         0.0720 
     89 H89       -50.8630  -29.8833    8.0475 H         1 UNK         0.0814 
     90 H90       -49.9740  -28.6817    7.1465 H         1 UNK         0.0814 
     91 H91       -50.5185  -26.2355    7.4005 H         1 UNK         0.1469 
     92 H92       -54.5032  -25.3084    8.6891 H         1 UNK         0.1381 
     93 H93       -53.0055  -29.3080    9.0470 H         1 UNK         0.1206 
     94 H94       -55.3403  -28.8866    9.4042 H         1 UNK         0.0813 
     95 H95       -56.0482  -27.3599    8.9303 H         1 UNK         0.0813 
     96 H96       -57.4100  -28.5959   10.7476 H         1 UNK         0.0638 
     97 H97       -57.7129  -27.3122   11.8714 H         1 UNK         0.0638 
     98 H98       -57.9817  -29.5581   12.8600 H         1 UNK         0.0568 
     99 H99       -55.5411  -30.5884   14.5052 H         1 UNK         0.3450 
    100 H100      -54.9277  -31.7992   13.4064 H         1 UNK         0.3450 
    101 H101      -55.7391  -28.3972   14.3671 H         1 UNK         0.2987 
    102 H102      -57.0163  -26.3261   15.9972 H         1 UNK         0.0766 
    103 H103      -59.2279  -26.8220   16.9639 H         1 UNK         0.0798 
    104 H104      -58.0154  -26.8613   18.2307 H         1 UNK         0.0798 
    105 H105      -58.6615  -28.3674   17.5800 H         1 UNK         0.0798 
    106 H106      -55.2435  -27.2290   16.9051 H         1 UNK         0.3198 
    107 H107      -54.4379  -29.6669   18.8168 H         1 UNK         0.0843 
    108 H108      -53.6220  -30.6181   16.0144 H         1 UNK         0.0831 
    109 H109      -54.3629  -31.6051   17.2665 H         1 UNK         0.0831 
    110 H110      -52.7479  -30.9636   17.5045 H         1 UNK         0.0831 
    111 H111      -53.0998  -28.2295   16.5751 H         1 UNK         0.3133 
    112 H112      -52.5931  -25.3392   18.4689 H         1 UNK         0.0566 
    113 H113      -50.1552  -25.5908   17.9395 H         1 UNK         0.0814 
    114 H114      -50.3618  -27.3381   17.8177 H         1 UNK         0.0814 
    115 H115      -50.6153  -26.5254   19.3539 H         1 UNK         0.0814 
    116 H116      -51.6219  -26.2682   15.9089 H         1 UNK         0.3091 
    117 H117      -54.6334  -25.7676   14.1080 H         1 UNK         0.0702 
    118 H118      -53.3643  -24.0889   12.7625 H         1 UNK         0.0785 
    119 H119      -52.2801  -23.8042   14.1242 H         1 UNK         0.0785 
    120 H120      -53.9823  -23.3824   14.2482 H         1 UNK         0.0785 
    121 H121      -51.9360  -26.1493   13.2450 H         1 UNK         0.2998 
    122 H122      -51.5634  -29.5243   14.1032 H         1 UNK         0.0697 
    123 H123      -52.5024  -28.7150   11.3158 H         1 UNK         0.0825 
    124 H124      -53.1396  -30.0466   12.2631 H         1 UNK         0.0825 
    125 H125      -51.4909  -30.1199   11.6605 H         1 UNK         0.0825 
    126 H126      -50.1960  -28.0577   12.1038 H         1 UNK         0.3029 
    127 H127      -48.3633  -25.8317   14.1177 H         1 UNK         0.0897 
    128 H128      -47.2824  -28.3840   12.8069 H         1 UNK         0.0792 
    129 H129      -47.1477  -28.0161   14.5215 H         1 UNK         0.0792 
    130 H130      -46.3515  -26.9833   13.3526 H         1 UNK         0.0792 
    131 H131      -47.9561  -26.4443   11.4190 H         1 UNK         0.3086 
    132 H132      -49.7122  -25.7121    9.6300 H         1 UNK         0.0583 
    133 H133      -51.5860  -24.0906   10.1981 H         1 UNK         0.1020 
    134 H134      -50.4036  -22.8247   10.3796 H         1 UNK         0.1020 
    135 H135      -53.0625  -23.5209    8.0562 H         1 UNK         0.0694 
    136 H136      -52.4133  -24.0559    6.5248 H         1 UNK         0.0694 
    137 H137      -47.7825  -24.8691    9.0267 H         1 UNK         0.2989 
    138 H138      -45.7026  -22.2030   10.2280 H         1 UNK         0.1055 
    139 H139      -45.3024  -25.1606    9.5434 H         1 UNK         0.0806 
    140 H140      -44.9447  -24.4246   11.1052 H         1 UNK         0.0806 
    141 H141      -44.0539  -23.9299    9.6764 H         1 UNK         0.0806 
    142 H142      -45.9505  -23.6673    7.7201 H         1 UNK         0.3061 
    143 H143      -47.8276  -21.5975    6.0199 H         1 UNK         0.0734 
    144 H144      -44.9914  -20.4401    5.9270 H         1 UNK         0.0832 
    145 H145      -46.1673  -20.3575    4.6151 H         1 UNK         0.0832 
    146 H146      -46.4796  -19.5316    6.1311 H         1 UNK         0.0832 
    147 H147      -47.0545  -23.3834    4.9993 H         1 UNK         0.3156 
    148 H148      -45.1800  -24.4137    3.5327 H         1 UNK         0.0589 
    149 H149      -43.4886  -26.1878    3.9425 H         1 UNK         0.0808 
    150 H150      -42.8190  -24.6019    4.2779 H         1 UNK         0.0808 
    151 H151      -43.2949  -25.6458    5.6103 H         1 UNK         0.0808 
    152 H152      -45.5943  -26.5276    5.4682 H         1 UNK         0.3098 
    153 H153      -49.0006  -26.4295    5.6775 H         1 UNK         0.0720 
    154 H154      -49.1594  -27.1362    3.2881 H         1 UNK         0.0791 
    155 H155      -49.3479  -28.5039    4.3690 H         1 UNK         0.0791 
    156 H156      -47.8227  -28.2546    3.5165 H         1 UNK         0.0791 
    157 H157      -47.3806  -28.7261    5.9115 H         1 UNK         0.3028 
@<TRIPOS>BOND
     1    1    2 1    
     2    1   82 1    
     3    1   83 1    
     4    1   84 1    
     5    2    3 2    
     6    2    4 am   BACKBONE|DICT|INTERRES
     7    4    5 1    
     8    4   85 1    
     9    5    6 1    
    10    5   80 1    
    11    5   86 1    
    12    6    7 1    
    13    6   87 1    
    14    6   88 1    
    15    7    8 1    
    16    8    9 1    
    17    8   89 1    
    18    8   90 1    
    19    9   10 ar   
    20    9   14 ar   
    21   10   11 ar   
    22   10   91 1    
    23   11   12 ar   
    24   11   58 1    
    25   12   13 ar   
    26   12   92 1    
    27   13   14 ar   
    28   13   15 1    
    29   14   93 1    
    30   15   16 1    
    31   15   94 1    
    32   15   95 1    
    33   16   17 1    
    34   17   18 1    
    35   17   96 1    
    36   17   97 1    
    37   18   19 1    
    38   18   22 1    
    39   18   98 1    
    40   19   20 am   BACKBONE|DICT|INTERRES
    41   19   21 2    
    42   20   99 1    
    43   20  100 1    
    44   22   23 am   BACKBONE|DICT|INTERRES
    45   22  101 1    
    46   23   24 2    
    47   23   25 1    
    48   25   26 1    
    49   25   27 1    
    50   25  102 1    
    51   26  103 1    
    52   26  104 1    
    53   26  105 1    
    54   27   28 am   BACKBONE|DICT|INTERRES
    55   27  106 1    
    56   28   29 2    
    57   28   30 1    
    58   30   31 1    
    59   30   32 1    
    60   30  107 1    
    61   31  108 1    
    62   31  109 1    
    63   31  110 1    
    64   32   33 am   BACKBONE|DICT|INTERRES
    65   32  111 1    
    66   33   34 2    
    67   33   35 1    
    68   35   36 1    
    69   35   37 1    
    70   35  112 1    
    71   36  113 1    
    72   36  114 1    
    73   36  115 1    
    74   37   38 am   BACKBONE|DICT|INTERRES
    75   37  116 1    
    76   38   39 2    
    77   38   40 1    
    78   40   41 1    
    79   40   42 1    
    80   40  117 1    
    81   41  118 1    
    82   41  119 1    
    83   41  120 1    
    84   42   43 am   BACKBONE|DICT|INTERRES
    85   42  121 1    
    86   43   44 2    
    87   43   45 1    
    88   45   46 1    
    89   45   47 1    
    90   45  122 1    
    91   46  123 1    
    92   46  124 1    
    93   46  125 1    
    94   47   48 am   BACKBONE|DICT|INTERRES
    95   47  126 1    
    96   48   49 2    
    97   48   50 1    
    98   50   51 1    
    99   50   52 1    
   100   50  127 1    
   101   51  128 1    
   102   51  129 1    
   103   51  130 1    
   104   52   53 am   BACKBONE|DICT|INTERRES
   105   52  131 1    
   106   53   54 2    
   107   53   55 1    
   108   55   56 1    
   109   55   59 1    
   110   55  132 1    
   111   56   57 1    
   112   56  133 1    
   113   56  134 1    
   114   57   58 1    
   115   58  135 1    
   116   58  136 1    
   117   59   60 am   BACKBONE|DICT|INTERRES
   118   59  137 1    
   119   60   61 2    
   120   60   62 1    
   121   62   63 1    
   122   62   64 1    
   123   62  138 1    
   124   63  139 1    
   125   63  140 1    
   126   63  141 1    
   127   64   65 am   BACKBONE|DICT|INTERRES
   128   64  142 1    
   129   65   66 2    
   130   65   67 1    
   131   67   68 1    
   132   67   69 1    
   133   67  143 1    
   134   68  144 1    
   135   68  145 1    
   136   68  146 1    
   137   69   70 am   BACKBONE|DICT|INTERRES
   138   69  147 1    
   139   70   71 2    
   140   70   72 1    
   141   72   73 1    
   142   72   74 1    
   143   72  148 1    
   144   73  149 1    
   145   73  150 1    
   146   73  151 1    
   147   74   75 am   BACKBONE|DICT|INTERRES
   148   74  152 1    
   149   75   76 2    
   150   75   77 1    
   151   77   78 1    
   152   77   79 1    
   153   77  153 1    
   154   78  154 1    
   155   78  155 1    
   156   78  156 1    
   157   79   80 am   BACKBONE|DICT|INTERRES
   158   79  157 1    
   159   80   81 2    
@<TRIPOS>SUBSTRUCTURE
     1 UNK         1 GROUP             0       ****    0 ROOT    
