@<TRIPOS>MOLECULE
3R207
157   159    1
SMALL
USER_CHARGES


@<TRIPOS>ATOM
      1 CA        -45.0959  -29.0563    7.5615 C.3       0 UNK        -0.1975 
      2 C         -46.1806  -28.3473    6.7659 C.2       0 UNK         0.4852 
      3 O         -46.6768  -27.3126    7.2114 O.2       0 UNK        -0.5216 
      4 N         -46.5173  -28.8845    5.5834 N.am      1 UNK        -0.4461 
      5 CA        -47.5728  -28.4717    4.6378 C.3       1 UNK         0.0864 
      6 C6        -49.0030  -28.8965    5.0850 C.3       14 UNK        -0.0898 
      7 S7        -49.7611  -27.9131    6.4262 S.3       14 UNK        -0.2598 
      8 C8        -51.1293  -29.0225    6.8968 C.3       14 UNK         0.0286 
      9 C9        -52.0159  -28.4322    7.9871 C.ar      14 UNK        -0.0844 
     10 C10       -52.5919  -27.1694    7.8181 C.ar      14 UNK        -0.0881 
     11 C11       -53.4171  -26.6246    8.8053 C.ar      14 UNK        -0.0643 
     12 C12       -53.7056  -27.3724    9.9489 C.ar      14 UNK        -0.0930 
     13 C13       -53.1327  -28.6320   10.1367 C.ar      14 UNK        -0.0827 
     14 C14       -52.2853  -29.1566    9.1542 C.ar      14 UNK        -0.1249 
     15 C15       -53.4157  -29.4111   11.4113 C.3       14 UNK         0.0141 
     16 S16       -54.8653  -30.4901   11.2166 S.3       14 UNK        -0.2313 
     17 C17       -54.8295  -31.3977   12.7982 C.3       14 UNK        -0.0915 
     18 CA        -56.1916  -31.3766   13.5556 C.3       13 UNK         0.0968 
     19 C         -56.2097  -32.3541   14.7726 C.2       13 UNK         0.5732 
     20 N         -56.9166  -32.0528   15.8557 N.am      13 UNK        -0.7310 
     21 O         -55.6052  -33.4233   14.7261 O.2       13 UNK        -0.5035 
     22 N         -56.6930  -30.0199   13.8558 N.am      13 UNK        -0.4233 
     23 C         -56.0905  -29.1091   14.6310 C.2       13 UNK         0.4989 
     24 O         -54.9879  -29.2651   15.1552 O.2       13 UNK        -0.4996 
     25 CA        -56.8809  -27.8230   14.9197 C.3       12 UNK         0.0216 
     26 CB        -57.3046  -27.7636   16.3968 C.3       12 UNK        -0.1964 
     27 N         -56.0912  -26.6353   14.6017 N.am      12 UNK        -0.4276 
     28 C         -55.8500  -26.1929   13.3643 C.2       12 UNK         0.5020 
     29 O         -56.3084  -26.7341   12.3580 O.2       12 UNK        -0.5489 
     30 CA        -54.9721  -24.9384   13.1904 C.3       11 UNK         0.0294 
     31 CB        -55.8421  -23.6795   13.0160 C.3       11 UNK        -0.2019 
     32 N         -53.9273  -24.7204   14.2010 N.am      11 UNK        -0.4493 
     33 C         -54.0404  -24.4583   15.5102 C.2       11 UNK         0.4932 
     34 O         -55.1118  -24.4143   16.1167 O.2       11 UNK        -0.5029 
     35 CA        -52.7086  -24.2510   16.2553 C.3       10 UNK         0.0280 
     36 CB        -52.8817  -23.9775   17.7646 C.3       10 UNK        -0.1976 
     37 N         -51.7864  -25.3650   16.0090 N.am      10 UNK        -0.4242 
     38 C         -51.9572  -26.6540   16.3433 C.2       10 UNK         0.5072 
     39 O         -52.8871  -27.0683   17.0358 O.2       10 UNK        -0.5224 
     40 CA        -50.9320  -27.6670   15.8005 C.3       9 UNK         0.0343 
     41 CB        -51.5676  -28.5269   14.6968 C.3       9 UNK        -0.2003 
     42 N         -49.7147  -27.0435   15.2738 N.am      9 UNK        -0.4272 
     43 C         -48.7071  -26.5991   16.0377 C.2       9 UNK         0.4988 
     44 O         -48.6955  -26.6746   17.2670 O.2       9 UNK        -0.5108 
     45 CA        -47.5102  -25.9595   15.3146 C.3       8 UNK         0.0248 
     46 CB        -46.5841  -27.0446   14.7427 C.3       8 UNK        -0.2001 
     47 N         -47.8957  -25.0237   14.2538 N.am      8 UNK        -0.4140 
     48 C         -48.5517  -23.8713   14.4575 C.2       8 UNK         0.5028 
     49 O         -48.9259  -23.4804   15.5634 O.2       8 UNK        -0.5428 
     50 CA        -48.8644  -23.0143   13.2188 C.3       7 UNK         0.0264 
     51 CB        -47.6148  -22.2561   12.7429 C.3       7 UNK        -0.1988 
     52 N         -49.4179  -23.7914   12.1099 N.am      7 UNK        -0.4454 
     53 C         -50.5835  -24.4533   12.1518 C.2       7 UNK         0.5027 
     54 O         -51.3393  -24.4590   13.1248 O.2       7 UNK        -0.5083 
     55 CA        -50.9355  -25.2974   10.9133 C.3       6 UNK         0.0844 
     56 C56       -51.4399  -24.4150    9.7379 C.3       14 UNK        -0.0967 
     57 S57       -53.2255  -24.0552    9.8654 S.3       14 UNK        -0.2604 
     58 C58       -53.9580  -25.2097    8.6545 C.3       14 UNK         0.0134 
     59 N         -49.8235  -26.1719   10.5283 N.am      6 UNK        -0.4116 
     60 C         -49.2839  -27.1213   11.3093 C.2       5 UNK         0.5034 
     61 O         -49.6970  -27.4127   12.4296 O.2       5 UNK        -0.5045 
     62 CA        -48.0219  -27.8206   10.7810 C.3       5 UNK         0.0224 
     63 CB        -48.3923  -29.0317    9.9131 C.3       5 UNK        -0.1978 
     64 N         -47.1548  -26.9044   10.0359 N.am      5 UNK        -0.4737 
     65 C         -46.5202  -25.8600   10.5904 C.2       4 UNK         0.5027 
     66 O         -46.5287  -25.6146   11.7957 O.2       4 UNK        -0.5211 
     67 CA        -45.8314  -24.8831    9.6286 C.3       4 UNK         0.0297 
     68 CB        -44.4410  -25.3936    9.2214 C.3       4 UNK        -0.1993 
     69 N         -46.6487  -24.6561    8.4370 N.am      4 UNK        -0.4486 
     70 C         -47.7972  -23.9670    8.4245 C.2       3 UNK         0.4961 
     71 O         -48.2534  -23.4043    9.4212 O.2       3 UNK        -0.5105 
     72 CA        -48.6139  -23.9600    7.1167 C.3       3 UNK         0.0299 
     73 CB        -49.2276  -22.5774    6.8151 C.3       3 UNK        -0.1972 
     74 N         -47.9023  -24.5051    5.9538 N.am      3 UNK        -0.4305 
     75 C         -46.8437  -23.9965    5.3031 C.2       2 UNK         0.5006 
     76 O         -46.3275  -22.9142    5.5838 O.2       2 UNK        -0.5106 
     77 CA        -46.2347  -24.8595    4.1733 C.3       2 UNK         0.0296 
     78 CB        -44.7343  -24.5747    3.9708 C.3       2 UNK        -0.2002 
     79 N         -46.4097  -26.2952    4.4167 N.am      2 UNK        -0.4032 
     80 C         -47.5000  -27.0137    4.1173 C.2       1 UNK         0.5000 
     81 O         -48.4403  -26.5541    3.4667 O.2       1 UNK        -0.5238 
     82 H82       -44.9903  -30.0982    7.2603 H         1 UNK         0.0889 
     83 H83       -45.3310  -29.0362    8.6250 H         1 UNK         0.0889 
     84 H84       -44.1381  -28.5577    7.4167 H         1 UNK         0.0889 
     85 H85       -46.0171  -29.7137    5.2929 H         1 UNK         0.3028 
     86 H86       -47.3581  -29.0634    3.7464 H         1 UNK         0.0864 
     87 H87       -49.6810  -28.8618    4.2303 H         1 UNK         0.0720 
     88 H88       -48.9829  -29.9425    5.3943 H         1 UNK         0.0720 
     89 H89       -50.7118  -29.9779    7.2184 H         1 UNK         0.0814 
     90 H90       -51.7429  -29.2293    6.0190 H         1 UNK         0.0814 
     91 H91       -52.3761  -26.6014    6.9234 H         1 UNK         0.1469 
     92 H92       -54.3509  -26.9568   10.7084 H         1 UNK         0.1381 
     93 H93       -51.8447  -30.1338    9.2968 H         1 UNK         0.1206 
     94 H94       -53.5920  -28.7258   12.2421 H         1 UNK         0.0813 
     95 H95       -52.5442  -30.0096   11.6817 H         1 UNK         0.0813 
     96 H96       -54.0321  -31.0109   13.4343 H         1 UNK         0.0638 
     97 H97       -54.5437  -32.4229   12.5572 H         1 UNK         0.0638 
     98 H98       -56.9308  -31.7994   12.8746 H         1 UNK         0.0568 
     99 H99       -56.9296  -32.6987   16.6292 H         1 UNK         0.3450 
    100 H100      -57.4330  -31.1906   15.9086 H         1 UNK         0.3450 
    101 H101      -57.5996  -29.8023   13.4684 H         1 UNK         0.2987 
    102 H102      -57.7848  -27.8100   14.3066 H         1 UNK         0.0766 
    103 H103      -57.8972  -26.8723   16.6039 H         1 UNK         0.0798 
    104 H104      -56.4404  -27.7526   17.0631 H         1 UNK         0.0798 
    105 H105      -57.9137  -28.6275   16.6654 H         1 UNK         0.0798 
    106 H106      -55.6950  -26.1105   15.3757 H         1 UNK         0.3198 
    107 H107      -54.4283  -25.0895   12.2589 H         1 UNK         0.0843 
    108 H108      -56.4166  -23.4535   13.9147 H         1 UNK         0.0831 
    109 H109      -56.5539  -23.8093   12.1996 H         1 UNK         0.0831 
    110 H110      -55.2326  -22.8082   12.7764 H         1 UNK         0.0831 
    111 H111      -52.9775  -24.7266   13.8272 H         1 UNK         0.3133 
    112 H112      -52.2416  -23.3688   15.8145 H         1 UNK         0.0566 
    113 H113      -51.9186  -23.8262   18.2519 H         1 UNK         0.0814 
    114 H114      -53.4743  -23.0768   17.9288 H         1 UNK         0.0814 
    115 H115      -53.3916  -24.7952   18.2744 H         1 UNK         0.0814 
    116 H116      -50.9956  -25.1428   15.4177 H         1 UNK         0.3091 
    117 H117      -50.6552  -28.3280   16.6245 H         1 UNK         0.0702 
    118 H118      -52.4041  -29.1044   15.0890 H         1 UNK         0.0785 
    119 H119      -50.8535  -29.2375   14.2805 H         1 UNK         0.0785 
    120 H120      -51.9471  -27.9123   13.8796 H         1 UNK         0.0785 
    121 H121      -49.6379  -26.9913   14.2597 H         1 UNK         0.2998 
    122 H122      -46.9437  -25.3933   16.0568 H         1 UNK         0.0697 
    123 H123      -47.0823  -27.6337   13.9725 H         1 UNK         0.0825 
    124 H124      -46.2603  -27.7342   15.5234 H         1 UNK         0.0825 
    125 H125      -45.6869  -26.6091   14.3026 H         1 UNK         0.0825 
    126 H126      -47.5768  -25.2463   13.3127 H         1 UNK         0.3029 
    127 H127      -49.6169  -22.2783   13.5105 H         1 UNK         0.0897 
    128 H128      -47.8498  -21.5863   11.9153 H         1 UNK         0.0792 
    129 H129      -47.1983  -21.6468   13.5461 H         1 UNK         0.0792 
    130 H130      -46.8308  -22.9358   12.4076 H         1 UNK         0.0792 
    131 H131      -48.8775  -23.8081   11.2489 H         1 UNK         0.3086 
    132 H132      -51.7396  -25.9701   11.2149 H         1 UNK         0.0583 
    133 H133      -50.8994  -23.4688    9.6779 H         1 UNK         0.1020 
    134 H134      -51.2573  -24.9055    8.7826 H         1 UNK         0.1020 
    135 H135      -55.0411  -25.2202    8.7841 H         1 UNK         0.0694 
    136 H136      -53.7715  -24.8291    7.6490 H         1 UNK         0.0694 
    137 H137      -49.3968  -26.0030    9.6314 H         1 UNK         0.2989 
    138 H138      -47.4621  -28.1838   11.6451 H         1 UNK         0.1055 
    139 H139      -49.0395  -29.7193   10.4596 H         1 UNK         0.0806 
    140 H140      -47.5088  -29.5920    9.6098 H         1 UNK         0.0806 
    141 H141      -48.9262  -28.7323    9.0135 H         1 UNK         0.0806 
    142 H142      -47.0867  -27.0356    9.0282 H         1 UNK         0.3061 
    143 H143      -45.7076  -23.9301   10.1477 H         1 UNK         0.0734 
    144 H144      -43.9304  -24.6788    8.5760 H         1 UNK         0.0832 
    145 H145      -43.8113  -25.5455   10.0992 H         1 UNK         0.0832 
    146 H146      -44.4952  -26.3443    8.6916 H         1 UNK         0.0832 
    147 H147      -46.4108  -25.1941    7.6132 H         1 UNK         0.3156 
    148 H148      -49.4405  -24.6501    7.2853 H         1 UNK         0.0589 
    149 H149      -48.4626  -21.8088    6.7032 H         1 UNK         0.0808 
    150 H150      -49.8216  -22.5973    5.9015 H         1 UNK         0.0808 
    151 H151      -49.8883  -22.2573    7.6216 H         1 UNK         0.0808 
    152 H152      -48.2333  -25.4095    5.6436 H         1 UNK         0.3098 
    153 H153      -46.7531  -24.5873    3.2517 H         1 UNK         0.0720 
    154 H154      -44.3196  -25.1841    3.1676 H         1 UNK         0.0791 
    155 H155      -44.1602  -24.7754    4.8763 H         1 UNK         0.0791 
    156 H156      -44.5643  -23.5316    3.7004 H         1 UNK         0.0791 
    157 H157      -45.7098  -26.7425    4.9913 H         1 UNK         0.3028 
@<TRIPOS>BOND
     1    1    2 1    
     2    1   82 1    
     3    1   83 1    
     4    1   84 1    
     5    2    3 2    
     6    2    4 am   BACKBONE|DICT|INTERRES
     7    4    5 1    
     8    4   85 1    
     9    5    6 1    
    10    5   80 1    
    11    5   86 1    
    12    6    7 1    
    13    6   87 1    
    14    6   88 1    
    15    7    8 1    
    16    8    9 1    
    17    8   89 1    
    18    8   90 1    
    19    9   10 ar   
    20    9   14 ar   
    21   10   11 ar   
    22   10   91 1    
    23   11   12 ar   
    24   11   58 1    
    25   12   13 ar   
    26   12   92 1    
    27   13   14 ar   
    28   13   15 1    
    29   14   93 1    
    30   15   16 1    
    31   15   94 1    
    32   15   95 1    
    33   16   17 1    
    34   17   18 1    
    35   17   96 1    
    36   17   97 1    
    37   18   19 1    
    38   18   22 1    
    39   18   98 1    
    40   19   20 am   BACKBONE|DICT|INTERRES
    41   19   21 2    
    42   20   99 1    
    43   20  100 1    
    44   22   23 am   BACKBONE|DICT|INTERRES
    45   22  101 1    
    46   23   24 2    
    47   23   25 1    
    48   25   26 1    
    49   25   27 1    
    50   25  102 1    
    51   26  103 1    
    52   26  104 1    
    53   26  105 1    
    54   27   28 am   BACKBONE|DICT|INTERRES
    55   27  106 1    
    56   28   29 2    
    57   28   30 1    
    58   30   31 1    
    59   30   32 1    
    60   30  107 1    
    61   31  108 1    
    62   31  109 1    
    63   31  110 1    
    64   32   33 am   BACKBONE|DICT|INTERRES
    65   32  111 1    
    66   33   34 2    
    67   33   35 1    
    68   35   36 1    
    69   35   37 1    
    70   35  112 1    
    71   36  113 1    
    72   36  114 1    
    73   36  115 1    
    74   37   38 am   BACKBONE|DICT|INTERRES
    75   37  116 1    
    76   38   39 2    
    77   38   40 1    
    78   40   41 1    
    79   40   42 1    
    80   40  117 1    
    81   41  118 1    
    82   41  119 1    
    83   41  120 1    
    84   42   43 am   BACKBONE|DICT|INTERRES
    85   42  121 1    
    86   43   44 2    
    87   43   45 1    
    88   45   46 1    
    89   45   47 1    
    90   45  122 1    
    91   46  123 1    
    92   46  124 1    
    93   46  125 1    
    94   47   48 am   BACKBONE|DICT|INTERRES
    95   47  126 1    
    96   48   49 2    
    97   48   50 1    
    98   50   51 1    
    99   50   52 1    
   100   50  127 1    
   101   51  128 1    
   102   51  129 1    
   103   51  130 1    
   104   52   53 am   BACKBONE|DICT|INTERRES
   105   52  131 1    
   106   53   54 2    
   107   53   55 1    
   108   55   56 1    
   109   55   59 1    
   110   55  132 1    
   111   56   57 1    
   112   56  133 1    
   113   56  134 1    
   114   57   58 1    
   115   58  135 1    
   116   58  136 1    
   117   59   60 am   BACKBONE|DICT|INTERRES
   118   59  137 1    
   119   60   61 2    
   120   60   62 1    
   121   62   63 1    
   122   62   64 1    
   123   62  138 1    
   124   63  139 1    
   125   63  140 1    
   126   63  141 1    
   127   64   65 am   BACKBONE|DICT|INTERRES
   128   64  142 1    
   129   65   66 2    
   130   65   67 1    
   131   67   68 1    
   132   67   69 1    
   133   67  143 1    
   134   68  144 1    
   135   68  145 1    
   136   68  146 1    
   137   69   70 am   BACKBONE|DICT|INTERRES
   138   69  147 1    
   139   70   71 2    
   140   70   72 1    
   141   72   73 1    
   142   72   74 1    
   143   72  148 1    
   144   73  149 1    
   145   73  150 1    
   146   73  151 1    
   147   74   75 am   BACKBONE|DICT|INTERRES
   148   74  152 1    
   149   75   76 2    
   150   75   77 1    
   151   77   78 1    
   152   77   79 1    
   153   77  153 1    
   154   78  154 1    
   155   78  155 1    
   156   78  156 1    
   157   79   80 am   BACKBONE|DICT|INTERRES
   158   79  157 1    
   159   80   81 2    
@<TRIPOS>SUBSTRUCTURE
     1 UNK         1 GROUP             0       ****    0 ROOT    
