@<TRIPOS>MOLECULE
3R207
157   159    1
SMALL
USER_CHARGES


@<TRIPOS>ATOM
      1 CA        -46.5431  -26.3004    3.6207 C.3       0 UNK        -0.1975 
      2 C         -47.6460  -25.6166    4.4141 C.2       0 UNK         0.4852 
      3 O         -47.6733  -24.3874    4.4947 O.2       0 UNK        -0.5216 
      4 N         -48.5494  -26.4039    5.0131 N.am      1 UNK        -0.4461 
      5 CA        -49.6552  -25.9431    5.8594 C.3       1 UNK         0.0864 
      6 C6        -50.5918  -27.1219    6.2254 C.3       14 UNK        -0.0898 
      7 S7        -52.3183  -26.6080    6.5103 S.3       14 UNK        -0.2598 
      8 C8        -53.1281  -28.2135    6.8310 C.3       14 UNK         0.0286 
      9 C9        -52.7231  -28.8060    8.1753 C.ar      14 UNK        -0.0844 
     10 C10       -51.5844  -29.6118    8.2711 C.ar      14 UNK        -0.0881 
     11 C11       -51.1664  -30.1114    9.5064 C.ar      14 UNK        -0.0643 
     12 C12       -51.9237  -29.8410   10.6469 C.ar      14 UNK        -0.0930 
     13 C13       -53.0785  -29.0594   10.5633 C.ar      14 UNK        -0.0827 
     14 C14       -53.4751  -28.5416    9.3256 C.ar      14 UNK        -0.1249 
     15 C15       -53.8582  -28.7428   11.8283 C.3       14 UNK         0.0141 
     16 S16       -54.6834  -30.2144   12.5093 S.3       14 UNK        -0.2313 
     17 C17       -56.1466  -30.3792   11.4286 C.3       14 UNK        -0.0915 
     18 CA        -57.2221  -29.2659   11.6195 C.3       13 UNK         0.0968 
     19 C         -58.4984  -29.5125   10.7598 C.2       13 UNK         0.5732 
     20 N         -59.6837  -29.1174   11.2090 N.am      13 UNK        -0.7310 
     21 O         -58.4143  -30.0386    9.6523 O.2       13 UNK        -0.5035 
     22 N         -57.4725  -28.9258   13.0312 N.am      13 UNK        -0.4233 
     23 C         -57.9712  -29.7225   13.9819 C.2       13 UNK         0.4989 
     24 O         -58.3671  -30.8728   13.7840 O.2       13 UNK        -0.4996 
     25 CA        -58.0087  -29.1206   15.4028 C.3       12 UNK         0.0216 
     26 CB        -58.8141  -29.9883   16.3888 C.3       12 UNK        -0.1964 
     27 N         -56.6675  -28.8942   15.9571 N.am      12 UNK        -0.4276 
     28 C         -55.8101  -27.9385   15.5728 C.2       12 UNK         0.5020 
     29 O         -56.0494  -27.1333   14.6669 O.2       12 UNK        -0.5489 
     30 CA        -54.4630  -27.8858   16.3211 C.3       11 UNK         0.0294 
     31 CB        -53.5376  -29.0395   15.8995 C.3       11 UNK        -0.2019 
     32 N         -53.7690  -26.6190   16.0838 N.am      11 UNK        -0.4493 
     33 C         -54.1147  -25.4475   16.6325 C.2       11 UNK         0.4932 
     34 O         -54.9694  -25.3302   17.5134 O.2       11 UNK        -0.5029 
     35 CA        -53.3896  -24.2045   16.0835 C.3       10 UNK         0.0280 
     36 CB        -53.6289  -22.9341   16.9281 C.3       10 UNK        -0.1976 
     37 N         -51.9572  -24.4253   15.8510 N.am      10 UNK        -0.4242 
     38 C         -51.0110  -24.6824   16.7709 C.2       10 UNK         0.5072 
     39 O         -51.2443  -24.8135   17.9734 O.2       10 UNK        -0.5224 
     40 CA        -49.5484  -24.8152   16.2901 C.3       9 UNK         0.0343 
     41 CB        -49.0735  -26.2731   16.4086 C.3       9 UNK        -0.2003 
     42 N         -49.3167  -24.3582   14.9182 N.am      9 UNK        -0.4272 
     43 C         -49.4459  -23.0996   14.4748 C.2       9 UNK         0.4988 
     44 O         -49.6552  -22.1323   15.2070 O.2       9 UNK        -0.5108 
     45 CA        -49.3879  -22.8919   12.9497 C.3       8 UNK         0.0248 
     46 CB        -47.9942  -22.4092   12.5185 C.3       8 UNK        -0.2001 
     47 N         -49.7611  -24.0851   12.1776 N.am      8 UNK        -0.4140 
     48 C         -50.9720  -24.6651   12.1925 C.2       8 UNK         0.5028 
     49 O         -51.9116  -24.2670   12.8816 O.2       8 UNK        -0.5428 
     50 CA        -51.1537  -25.9182   11.3238 C.3       7 UNK         0.0264 
     51 CB        -51.4655  -25.5304    9.8760 C.3       7 UNK        -0.1988 
     52 N         -49.9787  -26.7930   11.3639 N.am      7 UNK        -0.4454 
     53 C         -49.7197  -27.6263   12.3829 C.2       7 UNK         0.5027 
     54 O         -50.4838  -27.7887   13.3357 O.2       7 UNK        -0.5083 
     55 CA        -48.3636  -28.3648   12.3818 C.3       6 UNK         0.0844 
     56 C56       -48.4484  -29.7902   11.7795 C.3       14 UNK        -0.0967 
     57 S57       -48.4527  -29.8550    9.9506 S.3       14 UNK        -0.2604 
     58 C58       -49.8862  -30.9236    9.6040 C.3       14 UNK         0.0134 
     59 N         -47.2645  -27.5803   11.8121 N.am      6 UNK        -0.4116 
     60 C         -46.8231  -26.4059   12.2760 C.2       5 UNK         0.5034 
     61 O         -47.3245  -25.8302   13.2413 O.2       5 UNK        -0.5045 
     62 CA        -45.6512  -25.7302   11.5431 C.3       5 UNK         0.0224 
     63 CB        -44.3194  -25.9969   12.2702 C.3       5 UNK        -0.1978 
     64 N         -45.5489  -26.0217   10.1053 N.am      5 UNK        -0.4737 
     65 C         -45.2254  -27.1692    9.4866 C.2       4 UNK         0.5027 
     66 O         -45.0170  -28.2244   10.0841 O.2       4 UNK        -0.5211 
     67 CA        -45.1385  -27.1528    7.9470 C.3       4 UNK         0.0297 
     68 CB        -46.0952  -28.1853    7.3247 C.3       4 UNK        -0.1993 
     69 N         -45.4241  -25.8272    7.3906 N.am      4 UNK        -0.4486 
     70 C         -44.5082  -24.8606    7.2207 C.2       3 UNK         0.4961 
     71 O         -43.3022  -25.0286    7.4016 O.2       3 UNK        -0.5105 
     72 CA        -45.0078  -23.4615    6.8110 C.3       3 UNK         0.0299 
     73 CB        -44.6155  -23.1400    5.3596 C.3       3 UNK        -0.1972 
     74 N         -46.4533  -23.2824    6.9841 N.am      3 UNK        -0.4305 
     75 C         -47.0565  -23.1311    8.1740 C.2       2 UNK         0.5006 
     76 O         -46.4513  -23.1178    9.2457 O.2       2 UNK        -0.5106 
     77 CA        -48.5945  -23.0503    8.1825 C.3       2 UNK         0.0296 
     78 CB        -49.0643  -21.5972    8.0174 C.3       2 UNK        -0.2002 
     79 N         -49.2239  -23.8952    7.1609 N.am      2 UNK        -0.4032 
     80 C         -49.0977  -25.2290    7.1099 C.2       1 UNK         0.5000 
     81 O         -48.4973  -25.8814    7.9674 O.2       1 UNK        -0.5238 
     82 H82       -46.7616  -27.3538    3.4468 H         1 UNK         0.0889 
     83 H83       -45.5972  -26.2333    4.1574 H         1 UNK         0.0889 
     84 H84       -46.4220  -25.8169    2.6517 H         1 UNK         0.0889 
     85 H85       -48.4608  -27.4058    4.9243 H         1 UNK         0.3028 
     86 H86       -50.2219  -25.2224    5.2657 H         1 UNK         0.0864 
     87 H87       -50.6177  -27.8495    5.4125 H         1 UNK         0.0720 
     88 H88       -50.2131  -27.6588    7.0954 H         1 UNK         0.0720 
     89 H89       -52.8945  -28.9096    6.0239 H         1 UNK         0.0814 
     90 H90       -54.2094  -28.0714    6.8024 H         1 UNK         0.0814 
     91 H91       -51.0012  -29.8258    7.3863 H         1 UNK         0.1469 
     92 H92       -51.6107  -30.2251   11.6075 H         1 UNK         0.1381 
     93 H93       -54.3560  -27.9179    9.2593 H         1 UNK         0.1206 
     94 H94       -53.1637  -28.3632   12.5778 H         1 UNK         0.0813 
     95 H95       -54.5803  -27.9435   11.6619 H         1 UNK         0.0813 
     96 H96       -56.5848  -31.3585   11.6277 H         1 UNK         0.0638 
     97 H97       -55.8050  -30.4063   10.3924 H         1 UNK         0.0638 
     98 H98       -56.8058  -28.3535   11.1939 H         1 UNK         0.0568 
     99 H99       -60.5027  -29.2704   10.6421 H         1 UNK         0.3450 
    100 H100      -59.7664  -28.6749   12.1098 H         1 UNK         0.3450 
    101 H101      -57.1059  -28.0294   13.3401 H         1 UNK         0.2987 
    102 H102      -58.5137  -28.1549   15.3285 H         1 UNK         0.0766 
    103 H103      -58.9009  -29.5065   17.3629 H         1 UNK         0.0798 
    104 H104      -58.3546  -30.9664   16.5372 H         1 UNK         0.0798 
    105 H105      -59.8279  -30.1568   16.0227 H         1 UNK         0.0798 
    106 H106      -56.3758  -29.5342   16.6821 H         1 UNK         0.3198 
    107 H107      -54.6674  -27.9765   17.3904 H         1 UNK         0.0843 
    108 H108      -53.2381  -28.9578   14.8555 H         1 UNK         0.0831 
    109 H109      -54.0222  -30.0086   16.0241 H         1 UNK         0.0831 
    110 H110      -52.6291  -29.0549   16.5019 H         1 UNK         0.0831 
    111 H111      -53.0809  -26.6123   15.3452 H         1 UNK         0.3133 
    112 H112      -53.8221  -24.0213   15.0987 H         1 UNK         0.0566 
    113 H113      -53.1179  -22.0717   16.4999 H         1 UNK         0.0814 
    114 H114      -54.6910  -22.6907   16.9740 H         1 UNK         0.0814 
    115 H115      -53.2804  -23.0559   17.9541 H         1 UNK         0.0814 
    116 H116      -51.6747  -24.3571   14.8772 H         1 UNK         0.3091 
    117 H117      -48.9349  -24.1995   16.9507 H         1 UNK         0.0702 
    118 H118      -48.0275  -26.3758   16.1182 H         1 UNK         0.0785 
    119 H119      -49.6631  -26.9403   15.7791 H         1 UNK         0.0785 
    120 H120      -49.1615  -26.6316   17.4350 H         1 UNK         0.0785 
    121 H121      -49.0403  -25.0657   14.2470 H         1 UNK         0.2998 
    122 H122      -50.1082  -22.1091   12.7030 H         1 UNK         0.0697 
    123 H123      -47.2190  -23.1292   12.7787 H         1 UNK         0.0825 
    124 H124      -47.7399  -21.4710   13.0135 H         1 UNK         0.0825 
    125 H125      -47.9454  -22.2295   11.4446 H         1 UNK         0.0825 
    126 H126      -49.0339  -24.5092   11.6226 H         1 UNK         0.3029 
    127 H127      -52.0125  -26.4697   11.7089 H         1 UNK         0.0897 
    128 H128      -51.4750  -26.4104    9.2358 H         1 UNK         0.0792 
    129 H129      -52.4455  -25.0582    9.8003 H         1 UNK         0.0792 
    130 H130      -50.7355  -24.8312    9.4749 H         1 UNK         0.0792 
    131 H131      -49.3301  -26.7480   10.5893 H         1 UNK         0.3086 
    132 H132      -48.1114  -28.4944   13.4368 H         1 UNK         0.0583 
    133 H133      -47.5811  -30.3629   12.1118 H         1 UNK         0.1020 
    134 H134      -49.3085  -30.3248   12.1853 H         1 UNK         0.1020 
    135 H135      -49.7089  -31.4461    8.6628 H         1 UNK         0.0694 
    136 H136      -49.9771  -31.6998   10.3652 H         1 UNK         0.0694 
    137 H137      -46.7609  -28.0005   11.0377 H         1 UNK         0.2989 
    138 H138      -45.8388  -24.6572   11.6000 H         1 UNK         0.1055 
    139 H139      -44.3711  -25.6654   13.3083 H         1 UNK         0.0806 
    140 H140      -43.4962  -25.4592   11.7997 H         1 UNK         0.0806 
    141 H141      -44.0648  -27.0570   12.2833 H         1 UNK         0.0806 
    142 H142      -45.7412  -25.2231    9.5123 H         1 UNK         0.3061 
    143 H143      -44.1200  -27.4438    7.6812 H         1 UNK         0.0734 
    144 H144      -46.0410  -28.1746    6.2365 H         1 UNK         0.0832 
    145 H145      -45.8404  -29.1949    7.6498 H         1 UNK         0.0832 
    146 H146      -47.1311  -28.0119    7.6145 H         1 UNK         0.0832 
    147 H147      -46.4043  -25.6018    7.2736 H         1 UNK         0.3156 
    148 H148      -44.5010  -22.7406    7.4563 H         1 UNK         0.0589 
    149 H149      -45.0584  -23.8388    4.6512 H         1 UNK         0.0808 
    150 H150      -44.9270  -22.1342    5.0775 H         1 UNK         0.0808 
    151 H151      -43.5336  -23.1906    5.2290 H         1 UNK         0.0808 
    152 H152      -47.0208  -23.3512    6.1442 H         1 UNK         0.3098 
    153 H153      -48.9275  -23.4018    9.1604 H         1 UNK         0.0720 
    154 H154      -50.1470  -21.5169    8.1164 H         1 UNK         0.0791 
    155 H155      -48.7832  -21.1883    7.0460 H         1 UNK         0.0791 
    156 H156      -48.6228  -20.9560    8.7818 H         1 UNK         0.0791 
    157 H157      -49.6964  -23.4206    6.4045 H         1 UNK         0.3028 
@<TRIPOS>BOND
     1    1    2 1    
     2    1   82 1    
     3    1   83 1    
     4    1   84 1    
     5    2    3 2    
     6    2    4 am   BACKBONE|DICT|INTERRES
     7    4    5 1    
     8    4   85 1    
     9    5    6 1    
    10    5   80 1    
    11    5   86 1    
    12    6    7 1    
    13    6   87 1    
    14    6   88 1    
    15    7    8 1    
    16    8    9 1    
    17    8   89 1    
    18    8   90 1    
    19    9   10 ar   
    20    9   14 ar   
    21   10   11 ar   
    22   10   91 1    
    23   11   12 ar   
    24   11   58 1    
    25   12   13 ar   
    26   12   92 1    
    27   13   14 ar   
    28   13   15 1    
    29   14   93 1    
    30   15   16 1    
    31   15   94 1    
    32   15   95 1    
    33   16   17 1    
    34   17   18 1    
    35   17   96 1    
    36   17   97 1    
    37   18   19 1    
    38   18   22 1    
    39   18   98 1    
    40   19   20 am   BACKBONE|DICT|INTERRES
    41   19   21 2    
    42   20   99 1    
    43   20  100 1    
    44   22   23 am   BACKBONE|DICT|INTERRES
    45   22  101 1    
    46   23   24 2    
    47   23   25 1    
    48   25   26 1    
    49   25   27 1    
    50   25  102 1    
    51   26  103 1    
    52   26  104 1    
    53   26  105 1    
    54   27   28 am   BACKBONE|DICT|INTERRES
    55   27  106 1    
    56   28   29 2    
    57   28   30 1    
    58   30   31 1    
    59   30   32 1    
    60   30  107 1    
    61   31  108 1    
    62   31  109 1    
    63   31  110 1    
    64   32   33 am   BACKBONE|DICT|INTERRES
    65   32  111 1    
    66   33   34 2    
    67   33   35 1    
    68   35   36 1    
    69   35   37 1    
    70   35  112 1    
    71   36  113 1    
    72   36  114 1    
    73   36  115 1    
    74   37   38 am   BACKBONE|DICT|INTERRES
    75   37  116 1    
    76   38   39 2    
    77   38   40 1    
    78   40   41 1    
    79   40   42 1    
    80   40  117 1    
    81   41  118 1    
    82   41  119 1    
    83   41  120 1    
    84   42   43 am   BACKBONE|DICT|INTERRES
    85   42  121 1    
    86   43   44 2    
    87   43   45 1    
    88   45   46 1    
    89   45   47 1    
    90   45  122 1    
    91   46  123 1    
    92   46  124 1    
    93   46  125 1    
    94   47   48 am   BACKBONE|DICT|INTERRES
    95   47  126 1    
    96   48   49 2    
    97   48   50 1    
    98   50   51 1    
    99   50   52 1    
   100   50  127 1    
   101   51  128 1    
   102   51  129 1    
   103   51  130 1    
   104   52   53 am   BACKBONE|DICT|INTERRES
   105   52  131 1    
   106   53   54 2    
   107   53   55 1    
   108   55   56 1    
   109   55   59 1    
   110   55  132 1    
   111   56   57 1    
   112   56  133 1    
   113   56  134 1    
   114   57   58 1    
   115   58  135 1    
   116   58  136 1    
   117   59   60 am   BACKBONE|DICT|INTERRES
   118   59  137 1    
   119   60   61 2    
   120   60   62 1    
   121   62   63 1    
   122   62   64 1    
   123   62  138 1    
   124   63  139 1    
   125   63  140 1    
   126   63  141 1    
   127   64   65 am   BACKBONE|DICT|INTERRES
   128   64  142 1    
   129   65   66 2    
   130   65   67 1    
   131   67   68 1    
   132   67   69 1    
   133   67  143 1    
   134   68  144 1    
   135   68  145 1    
   136   68  146 1    
   137   69   70 am   BACKBONE|DICT|INTERRES
   138   69  147 1    
   139   70   71 2    
   140   70   72 1    
   141   72   73 1    
   142   72   74 1    
   143   72  148 1    
   144   73  149 1    
   145   73  150 1    
   146   73  151 1    
   147   74   75 am   BACKBONE|DICT|INTERRES
   148   74  152 1    
   149   75   76 2    
   150   75   77 1    
   151   77   78 1    
   152   77   79 1    
   153   77  153 1    
   154   78  154 1    
   155   78  155 1    
   156   78  156 1    
   157   79   80 am   BACKBONE|DICT|INTERRES
   158   79  157 1    
   159   80   81 2    
@<TRIPOS>SUBSTRUCTURE
     1 UNK         1 GROUP             0       ****    0 ROOT    
