@<TRIPOS>MOLECULE
3R207
157   159    1
SMALL
USER_CHARGES


@<TRIPOS>ATOM
      1 CA        -44.4836  -28.5229   11.5020 C.3       0 UNK        -0.1975 
      2 C         -44.9029  -28.5091   10.0399 C.2       0 UNK         0.4852 
      3 O         -44.0784  -28.7750    9.1637 O.2       0 UNK        -0.5216 
      4 N         -46.1809  -28.2131    9.7744 N.am      1 UNK        -0.4461 
      5 CA        -46.7491  -28.0785    8.4299 C.3       1 UNK         0.0864 
      6 C6        -48.2946  -28.1510    8.4787 C.3       14 UNK        -0.0898 
      7 S7        -49.0370  -28.6613    6.8872 S.3       14 UNK        -0.2598 
      8 C8        -49.9475  -30.1793    7.3315 C.3       14 UNK         0.0286 
      9 C9        -50.9801  -29.9263    8.4213 C.ar      14 UNK        -0.0844 
     10 C10       -50.8376  -30.5251    9.6764 C.ar      14 UNK        -0.0881 
     11 C11       -51.7296  -30.2255   10.7090 C.ar      14 UNK        -0.0643 
     12 C12       -52.7838  -29.3384   10.4730 C.ar      14 UNK        -0.0930 
     13 C13       -52.9493  -28.7509    9.2156 C.ar      14 UNK        -0.0827 
     14 C14       -52.0500  -29.0564    8.1910 C.ar      14 UNK        -0.1249 
     15 C15       -54.0473  -27.7261    8.9812 C.3       14 UNK         0.0141 
     16 S16       -55.5975  -28.4667    8.3792 S.3       14 UNK        -0.2313 
     17 C17       -56.3085  -29.2237    9.8813 C.3       14 UNK        -0.0915 
     18 CA        -57.2617  -28.2694   10.6508 C.3       13 UNK         0.0968 
     19 C         -58.1036  -29.0419   11.7099 C.2       13 UNK         0.5732 
     20 N         -58.0522  -28.6958   12.9911 N.am      13 UNK        -0.7310 
     21 O         -58.8302  -29.9687   11.3593 O.2       13 UNK        -0.5035 
     22 N         -56.5394  -27.1047   11.1896 N.am      13 UNK        -0.4233 
     23 C         -57.0796  -25.9064   11.4332 C.2       13 UNK         0.4989 
     24 O         -58.2619  -25.6312   11.2221 O.2       13 UNK        -0.4996 
     25 CA        -56.1361  -24.8573   12.0506 C.3       12 UNK         0.0216 
     26 CB        -56.8086  -23.4847   12.2384 C.3       12 UNK        -0.1964 
     27 N         -55.6163  -25.3147   13.3422 N.am      12 UNK        -0.4276 
     28 C         -54.5484  -26.1025   13.5088 C.2       12 UNK         0.5020 
     29 O         -53.8623  -26.5353   12.5787 O.2       12 UNK        -0.5489 
     30 CA        -54.2121  -26.5190   14.9479 C.3       11 UNK         0.0294 
     31 CB        -54.4452  -28.0276   15.1352 C.3       11 UNK        -0.2019 
     32 N         -52.8263  -26.2005   15.2914 N.am      11 UNK        -0.4493 
     33 C         -52.3386  -24.9632   15.4574 C.2       11 UNK         0.4932 
     34 O         -53.0221  -23.9476   15.3253 O.2       11 UNK        -0.5029 
     35 CA        -50.8405  -24.8162   15.8076 C.3       10 UNK         0.0280 
     36 CB        -50.6064  -23.7577   16.9052 C.3       10 UNK        -0.1976 
     37 N         -50.1408  -26.0683   16.1369 N.am      10 UNK        -0.4242 
     38 C         -50.3564  -26.8984   17.1712 C.2       10 UNK         0.5072 
     39 O         -51.2326  -26.7291   18.0184 O.2       10 UNK        -0.5224 
     40 CA        -49.4694  -28.1559   17.2546 C.3       9 UNK         0.0343 
     41 CB        -50.2885  -29.4155   16.9238 C.3       9 UNK        -0.2003 
     42 N         -48.3035  -28.0933   16.3650 N.am      9 UNK        -0.4272 
     43 C         -47.1463  -27.4934   16.6811 C.2       9 UNK         0.4988 
     44 O         -46.9127  -26.9786   17.7746 O.2       9 UNK        -0.5108 
     45 CA        -46.0912  -27.4259   15.5665 C.3       8 UNK         0.0248 
     46 CB        -45.5983  -28.8283   15.1690 C.3       8 UNK        -0.2001 
     47 N         -46.6084  -26.7202   14.3915 N.am      8 UNK        -0.4140 
     48 C         -46.8180  -25.3988   14.3204 C.2       8 UNK         0.5028 
     49 O         -46.5294  -24.6117   15.2212 O.2       8 UNK        -0.5428 
     50 CA        -47.5001  -24.8577   13.0510 C.3       7 UNK         0.0264 
     51 CB        -46.5074  -24.7505   11.8753 C.3       7 UNK        -0.1988 
     52 N         -48.7221  -25.5838   12.6720 N.am      7 UNK        -0.4454 
     53 C         -48.8389  -26.8325   12.1958 C.2       7 UNK         0.5027 
     54 O         -47.8777  -27.5839   12.0211 O.2       7 UNK        -0.5083 
     55 CA        -50.2643  -27.3455   11.8896 C.3       6 UNK         0.0844 
     56 C56       -50.7899  -28.2462   13.0391 C.3       14 UNK        -0.0967 
     57 S57       -50.1526  -29.9536   12.9651 S.3       14 UNK        -0.2604 
     58 C58       -51.5100  -30.8070   12.0973 C.3       14 UNK         0.0134 
     59 N         -51.2474  -26.3053   11.5563 N.am      6 UNK        -0.4116 
     60 C         -51.1405  -25.3999   10.5763 C.2       5 UNK         0.5034 
     61 O         -50.1345  -25.2426    9.8826 O.2       5 UNK        -0.5045 
     62 CA        -52.3588  -24.4951   10.3590 C.3       5 UNK         0.0224 
     63 CB        -52.4525  -23.4165   11.4517 C.3       5 UNK        -0.1978 
     64 N         -52.2284  -23.8497    9.0580 N.am      5 UNK        -0.4737 
     65 C         -53.1457  -23.8435    8.0864 C.2       4 UNK         0.5027 
     66 O         -54.2888  -24.2786    8.2264 O.2       4 UNK        -0.5211 
     67 CA        -52.7270  -23.2464    6.7265 C.3       4 UNK         0.0297 
     68 CB        -53.5055  -21.9498    6.4462 C.3       4 UNK        -0.1993 
     69 N         -51.2883  -22.9694    6.6178 N.am      4 UNK        -0.4486 
     70 C         -50.3360  -23.8981    6.4584 C.2       3 UNK         0.4961 
     71 O         -50.5643  -25.1027    6.3242 O.2       3 UNK        -0.5105 
     72 CA        -48.8887  -23.3874    6.4687 C.3       3 UNK         0.0299 
     73 CB        -48.5042  -22.7987    7.8429 C.3       3 UNK        -0.1972 
     74 N         -47.9943  -24.4916    6.1356 N.am      3 UNK        -0.4305 
     75 C         -46.7272  -24.3797    5.7207 C.2       2 UNK         0.5006 
     76 O         -46.1713  -23.2971    5.5224 O.2       2 UNK        -0.5106 
     77 CA        -45.9544  -25.6950    5.4800 C.3       2 UNK         0.0296 
     78 CB        -44.4230  -25.4968    5.4807 C.3       2 UNK        -0.2002 
     79 N         -46.3326  -26.7826    6.3942 N.am      2 UNK        -0.4032 
     80 C         -46.2577  -26.7872    7.7351 C.2       1 UNK         0.5000 
     81 O         -45.8526  -25.8354    8.4089 O.2       1 UNK        -0.5238 
     82 H82       -43.8397  -27.6706   11.7169 H         1 UNK         0.0889 
     83 H83       -43.9332  -29.4354   11.7294 H         1 UNK         0.0889 
     84 H84       -45.3455  -28.4765   12.1656 H         1 UNK         0.0889 
     85 H85       -46.8050  -27.9801   10.5436 H         1 UNK         0.3028 
     86 H86       -46.3832  -28.9290    7.8499 H         1 UNK         0.0864 
     87 H87       -48.7284  -27.1970    8.7831 H         1 UNK         0.0720 
     88 H88       -48.5965  -28.8654    9.2447 H         1 UNK         0.0720 
     89 H89       -49.2332  -30.9452    7.6377 H         1 UNK         0.0814 
     90 H90       -50.4509  -30.5646    6.4439 H         1 UNK         0.0814 
     91 H91       -50.0054  -31.1883    9.8692 H         1 UNK         0.1469 
     92 H92       -53.4512  -29.0755   11.2814 H         1 UNK         0.1381 
     93 H93       -52.1543  -28.5825    7.2243 H         1 UNK         0.1206 
     94 H94       -54.2306  -27.1596    9.8914 H         1 UNK         0.0813 
     95 H95       -53.7088  -26.9966    8.2441 H         1 UNK         0.0813 
     96 H96       -55.5206  -29.5957   10.5338 H         1 UNK         0.0638 
     97 H97       -56.8506  -30.1090    9.5441 H         1 UNK         0.0638 
     98 H98       -57.9917  -27.8973    9.9294 H         1 UNK         0.0568 
     99 H99       -57.4853  -27.9209   13.2895 H         1 UNK         0.3450 
    100 H100      -58.6098  -29.2038   13.6592 H         1 UNK         0.3450 
    101 H101      -55.5708  -27.2483   11.4446 H         1 UNK         0.2987 
    102 H102      -55.3088  -24.7199   11.3529 H         1 UNK         0.0766 
    103 H103      -56.1041  -22.7501   12.6292 H         1 UNK         0.0798 
    104 H104      -57.6553  -23.5366   12.9240 H         1 UNK         0.0798 
    105 H105      -57.1804  -23.0994   11.2878 H         1 UNK         0.0798 
    106 H106      -56.1332  -25.0201   14.1589 H         1 UNK         0.3198 
    107 H107      -54.8635  -25.9819   15.6409 H         1 UNK         0.0843 
    108 H108      -53.8181  -28.6243   14.4719 H         1 UNK         0.0831 
    109 H109      -55.4819  -28.2923   14.9239 H         1 UNK         0.0831 
    110 H110      -54.2378  -28.3370   16.1599 H         1 UNK         0.0831 
    111 H111      -52.2091  -26.9804   15.4486 H         1 UNK         0.3133 
    112 H112      -50.3659  -24.4443   14.8991 H         1 UNK         0.0566 
    113 H113      -49.5437  -23.6315   17.1135 H         1 UNK         0.0814 
    114 H114      -50.9919  -22.7834   16.6022 H         1 UNK         0.0814 
    115 H115      -51.1022  -24.0253   17.8388 H         1 UNK         0.0814 
    116 H116      -49.3672  -26.3018   15.5338 H         1 UNK         0.3091 
    117 H117      -49.1261  -28.2422   18.2879 H         1 UNK         0.0702 
    118 H118      -50.6966  -29.3883   15.9140 H         1 UNK         0.0785 
    119 H119      -51.1302  -29.5240   17.6095 H         1 UNK         0.0785 
    120 H120      -49.6827  -30.3172   17.0155 H         1 UNK         0.0785 
    121 H121      -48.3916  -28.5367   15.4618 H         1 UNK         0.2998 
    122 H122      -45.2354  -26.8687   15.9542 H         1 UNK         0.0697 
    123 H123      -46.3646  -29.4051   14.6498 H         1 UNK         0.0825 
    124 H124      -45.2972  -29.4005   16.0478 H         1 UNK         0.0825 
    125 H125      -44.7268  -28.7667   14.5178 H         1 UNK         0.0825 
    126 H126      -46.8965  -27.2761   13.5904 H         1 UNK         0.3029 
    127 H127      -47.8273  -23.8429   13.2846 H         1 UNK         0.0897 
    128 H128      -46.9885  -24.3422   10.9859 H         1 UNK         0.0792 
    129 H129      -46.0776  -25.7146   11.6038 H         1 UNK         0.0792 
    130 H130      -45.6774  -24.0896   12.1279 H         1 UNK         0.0792 
    131 H131      -49.5746  -25.0487   12.7495 H         1 UNK         0.3086 
    132 H132      -50.1746  -27.9477   10.9847 H         1 UNK         0.0583 
    133 H133      -50.5499  -27.8237   14.0131 H         1 UNK         0.1020 
    134 H134      -51.8782  -28.3013   13.0169 H         1 UNK         0.1020 
    135 H135      -51.2690  -31.8678   12.0158 H         1 UNK         0.0694 
    136 H136      -52.4211  -30.7438   12.6945 H         1 UNK         0.0694 
    137 H137      -52.1469  -26.3736   12.0315 H         1 UNK         0.2989 
    138 H138      -53.2516  -25.1193   10.3831 H         1 UNK         0.1055 
    139 H139      -53.3105  -22.7644   11.2873 H         1 UNK         0.0806 
    140 H140      -51.5588  -22.7919   11.4826 H         1 UNK         0.0806 
    141 H141      -52.5765  -23.8630   12.4388 H         1 UNK         0.0806 
    142 H142      -51.2863  -23.5687    8.8225 H         1 UNK         0.3061 
    143 H143      -52.9944  -23.9770    5.9600 H         1 UNK         0.0734 
    144 H144      -53.2732  -21.5511    5.4585 H         1 UNK         0.0832 
    145 H145      -54.5818  -22.1264    6.4756 H         1 UNK         0.0832 
    146 H146      -53.2834  -21.1774    7.1837 H         1 UNK         0.0832 
    147 H147      -51.0104  -22.0022    6.7098 H         1 UNK         0.3156 
    148 H148      -48.8017  -22.6155    5.7013 H         1 UNK         0.0589 
    149 H149      -48.5285  -23.5591    8.6242 H         1 UNK         0.0808 
    150 H150      -47.4981  -22.3798    7.8272 H         1 UNK         0.0808 
    151 H151      -49.1763  -21.9947    8.1435 H         1 UNK         0.0808 
    152 H152      -48.4206  -25.4064    6.2282 H         1 UNK         0.3098 
    153 H153      -46.2401  -26.0273    4.4810 H         1 UNK         0.0720 
    154 H154      -43.9012  -26.4334    5.2845 H         1 UNK         0.0791 
    155 H155      -44.0672  -25.1086    6.4358 H         1 UNK         0.0791 
    156 H156      -44.1174  -24.7901    4.7081 H         1 UNK         0.0791 
    157 H157      -46.7251  -27.6017    5.9490 H         1 UNK         0.3028 
@<TRIPOS>BOND
     1    1    2 1    
     2    1   82 1    
     3    1   83 1    
     4    1   84 1    
     5    2    3 2    
     6    2    4 am   BACKBONE|DICT|INTERRES
     7    4    5 1    
     8    4   85 1    
     9    5    6 1    
    10    5   80 1    
    11    5   86 1    
    12    6    7 1    
    13    6   87 1    
    14    6   88 1    
    15    7    8 1    
    16    8    9 1    
    17    8   89 1    
    18    8   90 1    
    19    9   10 ar   
    20    9   14 ar   
    21   10   11 ar   
    22   10   91 1    
    23   11   12 ar   
    24   11   58 1    
    25   12   13 ar   
    26   12   92 1    
    27   13   14 ar   
    28   13   15 1    
    29   14   93 1    
    30   15   16 1    
    31   15   94 1    
    32   15   95 1    
    33   16   17 1    
    34   17   18 1    
    35   17   96 1    
    36   17   97 1    
    37   18   19 1    
    38   18   22 1    
    39   18   98 1    
    40   19   20 am   BACKBONE|DICT|INTERRES
    41   19   21 2    
    42   20   99 1    
    43   20  100 1    
    44   22   23 am   BACKBONE|DICT|INTERRES
    45   22  101 1    
    46   23   24 2    
    47   23   25 1    
    48   25   26 1    
    49   25   27 1    
    50   25  102 1    
    51   26  103 1    
    52   26  104 1    
    53   26  105 1    
    54   27   28 am   BACKBONE|DICT|INTERRES
    55   27  106 1    
    56   28   29 2    
    57   28   30 1    
    58   30   31 1    
    59   30   32 1    
    60   30  107 1    
    61   31  108 1    
    62   31  109 1    
    63   31  110 1    
    64   32   33 am   BACKBONE|DICT|INTERRES
    65   32  111 1    
    66   33   34 2    
    67   33   35 1    
    68   35   36 1    
    69   35   37 1    
    70   35  112 1    
    71   36  113 1    
    72   36  114 1    
    73   36  115 1    
    74   37   38 am   BACKBONE|DICT|INTERRES
    75   37  116 1    
    76   38   39 2    
    77   38   40 1    
    78   40   41 1    
    79   40   42 1    
    80   40  117 1    
    81   41  118 1    
    82   41  119 1    
    83   41  120 1    
    84   42   43 am   BACKBONE|DICT|INTERRES
    85   42  121 1    
    86   43   44 2    
    87   43   45 1    
    88   45   46 1    
    89   45   47 1    
    90   45  122 1    
    91   46  123 1    
    92   46  124 1    
    93   46  125 1    
    94   47   48 am   BACKBONE|DICT|INTERRES
    95   47  126 1    
    96   48   49 2    
    97   48   50 1    
    98   50   51 1    
    99   50   52 1    
   100   50  127 1    
   101   51  128 1    
   102   51  129 1    
   103   51  130 1    
   104   52   53 am   BACKBONE|DICT|INTERRES
   105   52  131 1    
   106   53   54 2    
   107   53   55 1    
   108   55   56 1    
   109   55   59 1    
   110   55  132 1    
   111   56   57 1    
   112   56  133 1    
   113   56  134 1    
   114   57   58 1    
   115   58  135 1    
   116   58  136 1    
   117   59   60 am   BACKBONE|DICT|INTERRES
   118   59  137 1    
   119   60   61 2    
   120   60   62 1    
   121   62   63 1    
   122   62   64 1    
   123   62  138 1    
   124   63  139 1    
   125   63  140 1    
   126   63  141 1    
   127   64   65 am   BACKBONE|DICT|INTERRES
   128   64  142 1    
   129   65   66 2    
   130   65   67 1    
   131   67   68 1    
   132   67   69 1    
   133   67  143 1    
   134   68  144 1    
   135   68  145 1    
   136   68  146 1    
   137   69   70 am   BACKBONE|DICT|INTERRES
   138   69  147 1    
   139   70   71 2    
   140   70   72 1    
   141   72   73 1    
   142   72   74 1    
   143   72  148 1    
   144   73  149 1    
   145   73  150 1    
   146   73  151 1    
   147   74   75 am   BACKBONE|DICT|INTERRES
   148   74  152 1    
   149   75   76 2    
   150   75   77 1    
   151   77   78 1    
   152   77   79 1    
   153   77  153 1    
   154   78  154 1    
   155   78  155 1    
   156   78  156 1    
   157   79   80 am   BACKBONE|DICT|INTERRES
   158   79  157 1    
   159   80   81 2    
@<TRIPOS>SUBSTRUCTURE
     1 UNK         1 GROUP             0       ****    0 ROOT    
