@<TRIPOS>MOLECULE
3R207
157   159    1
SMALL
USER_CHARGES


@<TRIPOS>ATOM
      1 CA        -45.0289  -28.6424    5.4676 C.3       0 UNK        -0.1975 
      2 C         -46.4503  -28.3539    5.0073 C.2       0 UNK         0.4852 
      3 O         -46.6514  -27.9644    3.8568 O.2       0 UNK        -0.5216 
      4 N         -47.4332  -28.5496    5.8980 N.am      1 UNK        -0.4461 
      5 CA        -48.8617  -28.3009    5.6623 C.3       1 UNK         0.0864 
      6 C6        -49.7084  -28.8457    6.8389 C.3       14 UNK        -0.0898 
      7 S7        -51.4804  -29.0121    6.4362 S.3       14 UNK        -0.2598 
      8 C8        -51.8767  -30.6381    7.1529 C.3       14 UNK         0.0286 
      9 C9        -51.8248  -30.6144    8.6743 C.ar      14 UNK        -0.0844 
     10 C10       -50.7184  -31.1318    9.3542 C.ar      14 UNK        -0.0881 
     11 C11       -50.6719  -31.1233   10.7518 C.ar      14 UNK        -0.0643 
     12 C12       -51.7498  -30.5980   11.4718 C.ar      14 UNK        -0.0930 
     13 C13       -52.8672  -30.0870   10.8016 C.ar      14 UNK        -0.0827 
     14 C14       -52.8959  -30.0926    9.4043 C.ar      14 UNK        -0.1249 
     15 C15       -54.0414  -29.5181   11.5814 C.3       14 UNK         0.0141 
     16 S16       -55.4053  -30.7155   11.7036 S.3       14 UNK        -0.2313 
     17 C17       -56.2326  -30.2026   13.2483 C.3       14 UNK        -0.0915 
     18 CA        -57.2058  -29.0106   13.0580 C.3       13 UNK         0.0968 
     19 C         -58.1586  -28.8755   14.2752 C.2       13 UNK         0.5732 
     20 N         -57.8040  -28.1204   15.3073 N.am      13 UNK        -0.7310 
     21 O         -59.2398  -29.4594   14.2784 O.2       13 UNK        -0.5035 
     22 N         -56.4749  -27.7654   12.7859 N.am      13 UNK        -0.4233 
     23 C         -56.8383  -26.8465   11.8835 C.2       13 UNK         0.4989 
     24 O         -57.8359  -26.9492   11.1668 O.2       13 UNK        -0.4996 
     25 CA        -55.9089  -25.6245   11.7257 C.3       12 UNK         0.0216 
     26 CB        -56.6112  -24.4102   11.0806 C.3       12 UNK        -0.1964 
     27 N         -55.2215  -25.2382   12.9638 N.am      12 UNK        -0.4276 
     28 C         -55.7813  -24.8247   14.1087 C.2       12 UNK         0.5020 
     29 O         -56.9959  -24.6868   14.2677 O.2       12 UNK        -0.5489 
     30 CA        -54.8146  -24.5361   15.2760 C.3       11 UNK         0.0294 
     31 CB        -55.5555  -24.2854   16.6062 C.3       11 UNK        -0.2019 
     32 N         -53.7754  -25.5563   15.4790 N.am      11 UNK        -0.4493 
     33 C         -53.9416  -26.8808   15.6284 C.2       11 UNK         0.4932 
     34 O         -55.0178  -27.4527   15.4491 O.2       11 UNK        -0.5029 
     35 CA        -52.7177  -27.7162   16.0614 C.3       10 UNK         0.0280 
     36 CB        -52.6195  -29.0512   15.3064 C.3       10 UNK        -0.1976 
     37 N         -51.4497  -27.0040   15.9074 N.am      10 UNK        -0.4242 
     38 C         -50.8607  -26.2487   16.8423 C.2       10 UNK         0.5072 
     39 O         -51.3023  -26.0873   17.9802 O.2       10 UNK        -0.5224 
     40 CA        -49.5794  -25.5132   16.4134 C.3       9 UNK         0.0343 
     41 CB        -48.3579  -26.4405   16.5207 C.3       9 UNK        -0.2003 
     42 N         -49.6615  -24.9622   15.0562 N.am      9 UNK        -0.4272 
     43 C         -50.5334  -24.0212   14.6637 C.2       9 UNK         0.4988 
     44 O         -51.3812  -23.5186   15.4016 O.2       9 UNK        -0.5108 
     45 CA        -50.4658  -23.5895   13.1920 C.3       8 UNK         0.0248 
     46 CB        -49.2938  -22.6261   12.9627 C.3       8 UNK        -0.2001 
     47 N         -50.3693  -24.7356   12.2842 N.am      8 UNK        -0.4140 
     48 C         -51.3970  -25.5623   12.0377 C.2       8 UNK         0.5028 
     49 O         -52.5298  -25.3929   12.4867 O.2       8 UNK        -0.5428 
     50 CA        -51.1214  -26.8161   11.1921 C.3       7 UNK         0.0264 
     51 CB        -51.3465  -26.5331    9.7000 C.3       7 UNK        -0.1988 
     52 N         -49.7894  -27.3879   11.4011 N.am      7 UNK        -0.4454 
     53 C         -49.3359  -27.8302   12.5832 C.2       7 UNK         0.5027 
     54 O         -50.0181  -27.8375   13.6079 O.2       7 UNK        -0.5083 
     55 CA        -47.8715  -28.3038   12.6777 C.3       6 UNK         0.0844 
     56 C56       -47.7870  -29.8452   12.8146 C.3       14 UNK        -0.0967 
     57 S57       -47.9560  -30.7511   11.2325 S.3       14 UNK        -0.2604 
     58 C58       -49.4753  -31.7308   11.4708 C.3       14 UNK         0.0134 
     59 N         -46.9716  -27.7953   11.6355 N.am      6 UNK        -0.4116 
     60 C         -46.7330  -26.5154   11.3189 C.2       5 UNK         0.5034 
     61 O         -47.3043  -25.5579   11.8495 O.2       5 UNK        -0.5045 
     62 CA        -45.6828  -26.2975   10.2148 C.3       5 UNK         0.0224 
     63 CB        -45.9605  -27.1796    8.9796 C.3       5 UNK        -0.1978 
     64 N         -45.6599  -24.9012    9.7817 N.am      5 UNK        -0.4737 
     65 C         -44.6456  -24.0445    9.9617 C.2       4 UNK         0.5027 
     66 O         -43.6083  -24.3358   10.5588 O.2       4 UNK        -0.5211 
     67 CA        -44.7741  -22.6350    9.3465 C.3       4 UNK         0.0297 
     68 CB        -43.7836  -22.4676    8.1814 C.3       4 UNK        -0.1993 
     69 N         -46.1227  -22.3397    8.8584 N.am      4 UNK        -0.4486 
     70 C         -47.1437  -21.9456    9.6297 C.2       3 UNK         0.4961 
     71 O         -47.0198  -21.6544   10.8184 O.2       3 UNK        -0.5105 
     72 CA        -48.5403  -21.8692    8.9753 C.3       3 UNK         0.0299 
     73 CB        -48.9534  -20.4042    8.7603 C.3       3 UNK        -0.1972 
     74 N         -48.6706  -22.5982    7.7057 N.am      3 UNK        -0.4305 
     75 C         -48.5343  -23.9232    7.5618 C.2       2 UNK         0.5006 
     76 O         -48.2585  -24.6855    8.4920 O.2       2 UNK        -0.5106 
     77 CA        -48.6787  -24.4792    6.1398 C.3       2 UNK         0.0296 
     78 CB        -47.5897  -23.9250    5.2004 C.3       2 UNK        -0.2002 
     79 N         -48.5643  -25.9315    6.2015 N.am      2 UNK        -0.4032 
     80 C         -49.1560  -26.8087    5.3840 C.2       1 UNK         0.5000 
     81 O         -49.8762  -26.4877    4.4360 O.2       1 UNK        -0.5238 
     82 H82       -44.4402  -27.7255    5.4616 H         1 UNK         0.0889 
     83 H83       -44.5544  -29.3565    4.7950 H         1 UNK         0.0889 
     84 H84       -45.0007  -29.0579    6.4747 H         1 UNK         0.0889 
     85 H85       -47.1966  -28.9052    6.8125 H         1 UNK         0.3028 
     86 H86       -49.1317  -28.8575    4.7619 H         1 UNK         0.0864 
     87 H87       -49.5988  -28.2250    7.7294 H         1 UNK         0.0720 
     88 H88       -49.3337  -29.8309    7.1188 H         1 UNK         0.0720 
     89 H89       -51.1988  -31.3926    6.7507 H         1 UNK         0.0814 
     90 H90       -52.8774  -30.9293    6.8303 H         1 UNK         0.0814 
     91 H91       -49.8896  -31.5484    8.7984 H         1 UNK         0.1469 
     92 H92       -51.7232  -30.5967   12.5526 H         1 UNK         0.1381 
     93 H93       -53.7565  -29.6951    8.8834 H         1 UNK         0.1206 
     94 H94       -54.3994  -28.6138   11.0885 H         1 UNK         0.0813 
     95 H95       -53.7262  -29.2167   12.5768 H         1 UNK         0.0813 
     96 H96       -55.4862  -29.9801   14.0118 H         1 UNK         0.0638 
     97 H97       -56.7746  -31.0790   13.6093 H         1 UNK         0.0638 
     98 H98       -57.8405  -29.2488   12.2021 H         1 UNK         0.0568 
     99 H99       -56.8791  -27.7020   15.3433 H         1 UNK         0.3450 
    100 H100      -58.4297  -28.0278   16.0905 H         1 UNK         0.3450 
    101 H101      -55.7053  -27.5617   13.4104 H         1 UNK         0.2987 
    102 H102      -55.1207  -25.9425   11.0417 H         1 UNK         0.0766 
    103 H103      -55.9246  -23.5719   10.9630 H         1 UNK         0.0798 
    104 H104      -57.4590  -24.0695   11.6756 H         1 UNK         0.0798 
    105 H105      -56.9899  -24.6576   10.0881 H         1 UNK         0.0798 
    106 H106      -54.2003  -25.3065   12.9256 H         1 UNK         0.3198 
    107 H107      -54.2899  -23.6168   15.0111 H         1 UNK         0.0843 
    108 H108      -56.1238  -25.1619   16.9203 H         1 UNK         0.0831 
    109 H109      -56.2581  -23.4561   16.5151 H         1 UNK         0.0831 
    110 H110      -54.8600  -24.0317   17.4061 H         1 UNK         0.0831 
    111 H111      -52.8392  -25.1863   15.5905 H         1 UNK         0.3133 
    112 H112      -52.8711  -27.9519   17.1163 H         1 UNK         0.0566 
    113 H113      -51.8360  -29.6810   15.7279 H         1 UNK         0.0814 
    114 H114      -53.5490  -29.6179   15.3611 H         1 UNK         0.0814 
    115 H115      -52.3785  -28.8917   14.2579 H         1 UNK         0.0814 
    116 H116      -50.9769  -27.1217   15.0123 H         1 UNK         0.3091 
    117 H117      -49.4333  -24.6761   17.0993 H         1 UNK         0.0702 
    118 H118      -47.4361  -25.9163   16.2677 H         1 UNK         0.0785 
    119 H119      -48.4461  -27.3053   15.8626 H         1 UNK         0.0785 
    120 H120      -48.2460  -26.8179   17.5381 H         1 UNK         0.0785 
    121 H121      -49.0149  -25.3307   14.3742 H         1 UNK         0.2998 
    122 H122      -51.3880  -23.0487   12.9675 H         1 UNK         0.0697 
    123 H123      -48.3285  -23.1314   13.0158 H         1 UNK         0.0825 
    124 H124      -49.2874  -21.8272   13.7056 H         1 UNK         0.0825 
    125 H125      -49.3710  -22.1488   11.9879 H         1 UNK         0.0825 
    126 H126      -49.4556  -24.9553   11.9035 H         1 UNK         0.3029 
    127 H127      -51.8473  -27.5665   11.5063 H         1 UNK         0.0897 
    128 H128      -50.5869  -25.8656    9.2925 H         1 UNK         0.0792 
    129 H129      -52.3181  -26.0663    9.5321 H         1 UNK         0.0792 
    130 H130      -51.3355  -27.4570    9.1232 H         1 UNK         0.0792 
    131 H131      -49.1680  -27.4126   10.6071 H         1 UNK         0.3086 
    132 H132      -47.4978  -27.8823   13.6129 H         1 UNK         0.0583 
    133 H133      -46.8120  -30.1082   13.2278 H         1 UNK         0.1020 
    134 H134      -48.5069  -30.2114   13.5494 H         1 UNK         0.1020 
    135 H135      -49.3024  -32.7308   11.0703 H         1 UNK         0.0694 
    136 H136      -49.6834  -31.8701   12.5322 H         1 UNK         0.0694 
    137 H137      -46.4761  -28.5122   11.1257 H         1 UNK         0.2989 
    138 H138      -44.7137  -26.5799   10.6321 H         1 UNK         0.1055 
    139 H139      -45.7953  -28.2358    9.1950 H         1 UNK         0.0806 
    140 H140      -45.2977  -26.9200    8.1537 H         1 UNK         0.0806 
    141 H141      -46.9871  -27.0714    8.6306 H         1 UNK         0.0806 
    142 H142      -46.5225  -24.5690    9.3602 H         1 UNK         0.3061 
    143 H143      -44.5107  -21.9142   10.1236 H         1 UNK         0.0734 
    144 H144      -43.9851  -23.1733    7.3744 H         1 UNK         0.0832 
    145 H145      -43.8238  -21.4602    7.7667 H         1 UNK         0.0832 
    146 H146      -42.7582  -22.6376    8.5128 H         1 UNK         0.0832 
    147 H147      -46.3095  -22.5390    7.8872 H         1 UNK         0.3156 
    148 H148      -49.2454  -22.3216    9.6746 H         1 UNK         0.0589 
    149 H149      -48.3003  -19.9012    8.0460 H         1 UNK         0.0808 
    150 H150      -49.9772  -20.3286    8.3935 H         1 UNK         0.0808 
    151 H151      -48.9060  -19.8436    9.6952 H         1 UNK         0.0808 
    152 H152      -48.8903  -22.0428    6.8907 H         1 UNK         0.3098 
    153 H153      -49.6680  -24.2030    5.7687 H         1 UNK         0.0720 
    154 H154      -47.6786  -24.3514    4.2008 H         1 UNK         0.0791 
    155 H155      -46.5877  -24.1517    5.5674 H         1 UNK         0.0791 
    156 H156      -47.6647  -22.8426    5.0914 H         1 UNK         0.0791 
    157 H157      -48.0453  -26.2681    7.0007 H         1 UNK         0.3028 
@<TRIPOS>BOND
     1    1    2 1    
     2    1   82 1    
     3    1   83 1    
     4    1   84 1    
     5    2    3 2    
     6    2    4 am   BACKBONE|DICT|INTERRES
     7    4    5 1    
     8    4   85 1    
     9    5    6 1    
    10    5   80 1    
    11    5   86 1    
    12    6    7 1    
    13    6   87 1    
    14    6   88 1    
    15    7    8 1    
    16    8    9 1    
    17    8   89 1    
    18    8   90 1    
    19    9   10 ar   
    20    9   14 ar   
    21   10   11 ar   
    22   10   91 1    
    23   11   12 ar   
    24   11   58 1    
    25   12   13 ar   
    26   12   92 1    
    27   13   14 ar   
    28   13   15 1    
    29   14   93 1    
    30   15   16 1    
    31   15   94 1    
    32   15   95 1    
    33   16   17 1    
    34   17   18 1    
    35   17   96 1    
    36   17   97 1    
    37   18   19 1    
    38   18   22 1    
    39   18   98 1    
    40   19   20 am   BACKBONE|DICT|INTERRES
    41   19   21 2    
    42   20   99 1    
    43   20  100 1    
    44   22   23 am   BACKBONE|DICT|INTERRES
    45   22  101 1    
    46   23   24 2    
    47   23   25 1    
    48   25   26 1    
    49   25   27 1    
    50   25  102 1    
    51   26  103 1    
    52   26  104 1    
    53   26  105 1    
    54   27   28 am   BACKBONE|DICT|INTERRES
    55   27  106 1    
    56   28   29 2    
    57   28   30 1    
    58   30   31 1    
    59   30   32 1    
    60   30  107 1    
    61   31  108 1    
    62   31  109 1    
    63   31  110 1    
    64   32   33 am   BACKBONE|DICT|INTERRES
    65   32  111 1    
    66   33   34 2    
    67   33   35 1    
    68   35   36 1    
    69   35   37 1    
    70   35  112 1    
    71   36  113 1    
    72   36  114 1    
    73   36  115 1    
    74   37   38 am   BACKBONE|DICT|INTERRES
    75   37  116 1    
    76   38   39 2    
    77   38   40 1    
    78   40   41 1    
    79   40   42 1    
    80   40  117 1    
    81   41  118 1    
    82   41  119 1    
    83   41  120 1    
    84   42   43 am   BACKBONE|DICT|INTERRES
    85   42  121 1    
    86   43   44 2    
    87   43   45 1    
    88   45   46 1    
    89   45   47 1    
    90   45  122 1    
    91   46  123 1    
    92   46  124 1    
    93   46  125 1    
    94   47   48 am   BACKBONE|DICT|INTERRES
    95   47  126 1    
    96   48   49 2    
    97   48   50 1    
    98   50   51 1    
    99   50   52 1    
   100   50  127 1    
   101   51  128 1    
   102   51  129 1    
   103   51  130 1    
   104   52   53 am   BACKBONE|DICT|INTERRES
   105   52  131 1    
   106   53   54 2    
   107   53   55 1    
   108   55   56 1    
   109   55   59 1    
   110   55  132 1    
   111   56   57 1    
   112   56  133 1    
   113   56  134 1    
   114   57   58 1    
   115   58  135 1    
   116   58  136 1    
   117   59   60 am   BACKBONE|DICT|INTERRES
   118   59  137 1    
   119   60   61 2    
   120   60   62 1    
   121   62   63 1    
   122   62   64 1    
   123   62  138 1    
   124   63  139 1    
   125   63  140 1    
   126   63  141 1    
   127   64   65 am   BACKBONE|DICT|INTERRES
   128   64  142 1    
   129   65   66 2    
   130   65   67 1    
   131   67   68 1    
   132   67   69 1    
   133   67  143 1    
   134   68  144 1    
   135   68  145 1    
   136   68  146 1    
   137   69   70 am   BACKBONE|DICT|INTERRES
   138   69  147 1    
   139   70   71 2    
   140   70   72 1    
   141   72   73 1    
   142   72   74 1    
   143   72  148 1    
   144   73  149 1    
   145   73  150 1    
   146   73  151 1    
   147   74   75 am   BACKBONE|DICT|INTERRES
   148   74  152 1    
   149   75   76 2    
   150   75   77 1    
   151   77   78 1    
   152   77   79 1    
   153   77  153 1    
   154   78  154 1    
   155   78  155 1    
   156   78  156 1    
   157   79   80 am   BACKBONE|DICT|INTERRES
   158   79  157 1    
   159   80   81 2    
@<TRIPOS>SUBSTRUCTURE
     1 UNK         1 GROUP             0       ****    0 ROOT    
