@<TRIPOS>MOLECULE
3R207
157   159    1
SMALL
USER_CHARGES


@<TRIPOS>ATOM
      1 CA        -46.3217  -27.1697    4.2271 C.3       0 UNK        -0.1975 
      2 C         -47.3213  -26.2327    4.8873 C.2       0 UNK         0.4852 
      3 O         -47.1396  -25.0152    4.8430 O.2       0 UNK        -0.5216 
      4 N         -48.3717  -26.7824    5.5118 N.am      1 UNK        -0.4461 
      5 CA        -49.4279  -26.0207    6.1840 C.3       1 UNK         0.0864 
      6 C6        -50.6582  -26.9037    6.5044 C.3       14 UNK        -0.0898 
      7 S7        -52.2057  -25.9426    6.4502 S.3       14 UNK        -0.2598 
      8 C8        -53.4549  -27.2243    6.7824 C.3       14 UNK         0.0286 
      9 C9        -53.3744  -27.7602    8.2054 C.ar      14 UNK        -0.0844 
     10 C10       -52.6069  -28.8946    8.4820 C.ar      14 UNK        -0.0881 
     11 C11       -52.5403  -29.4102    9.7784 C.ar      14 UNK        -0.0643 
     12 C12       -53.2801  -28.8043   10.7967 C.ar      14 UNK        -0.0930 
     13 C13       -54.0546  -27.6708   10.5358 C.ar      14 UNK        -0.0827 
     14 C14       -54.0868  -27.1442    9.2395 C.ar      14 UNK        -0.1249 
     15 C15       -54.8551  -27.0282   11.6615 C.3       14 UNK         0.0141 
     16 S16       -56.6401  -26.9543   11.3095 S.3       14 UNK        -0.2313 
     17 C17       -57.0708  -28.7086   11.0494 C.3       14 UNK        -0.0915 
     18 CA        -57.9526  -29.2704   12.1905 C.3       13 UNK         0.0968 
     19 C         -58.6186  -30.6085   11.7673 C.2       13 UNK         0.5732 
     20 N         -59.7636  -30.5454   11.1013 N.am      13 UNK        -0.7310 
     21 O         -58.0949  -31.6965   12.0026 O.2       13 UNK        -0.5035 
     22 N         -57.1917  -29.4115   13.4389 N.am      13 UNK        -0.4233 
     23 C         -57.7446  -29.5650   14.6449 C.2       13 UNK         0.4989 
     24 O         -58.9528  -29.4478   14.8564 O.2       13 UNK        -0.4996 
     25 CA        -56.8231  -29.9130   15.8289 C.3       12 UNK         0.0216 
     26 CB        -56.7857  -31.4379   16.0507 C.3       12 UNK        -0.1964 
     27 N         -55.4615  -29.3571   15.7896 N.am      12 UNK        -0.4276 
     28 C         -54.4488  -29.6200   14.9540 C.2       12 UNK         0.5020 
     29 O         -54.5562  -30.2977   13.9307 O.2       12 UNK        -0.5489 
     30 CA        -53.0896  -29.0014   15.3340 C.3       11 UNK         0.0294 
     31 CB        -51.9066  -29.7677   14.7210 C.3       11 UNK        -0.2019 
     32 N         -52.9815  -27.5921   14.9584 N.am      11 UNK        -0.4493 
     33 C         -53.6564  -26.5839   15.5266 C.2       11 UNK         0.4932 
     34 O         -54.5001  -26.7327   16.4134 O.2       11 UNK        -0.5029 
     35 CA        -53.2680  -25.1759   15.0475 C.3       10 UNK         0.0280 
     36 CB        -54.0922  -24.0525   15.7095 C.3       10 UNK        -0.1976 
     37 N         -51.8296  -24.9449   15.2107 N.am      10 UNK        -0.4242 
     38 C         -51.1089  -24.9670   16.3441 C.2       10 UNK         0.5072 
     39 O         -51.5852  -25.1183   17.4697 O.2       10 UNK        -0.5224 
     40 CA        -49.5832  -24.8119   16.1995 C.3       9 UNK         0.0343 
     41 CB        -48.9010  -26.1847   16.3204 C.3       9 UNK        -0.2003 
     42 N         -49.1885  -24.1983   14.9299 N.am      9 UNK        -0.4272 
     43 C         -49.3450  -22.9018   14.6249 C.2       9 UNK         0.4988 
     44 O         -49.7314  -22.0483   15.4235 O.2       9 UNK        -0.5108 
     45 CA        -49.0691  -22.5054   13.1651 C.3       8 UNK         0.0248 
     46 CB        -47.5610  -22.3488   12.9122 C.3       8 UNK        -0.2001 
     47 N         -49.6462  -23.4696   12.2213 N.am      8 UNK        -0.4140 
     48 C         -50.9632  -23.6202   12.0116 C.2       8 UNK         0.5028 
     49 O         -51.8238  -22.9364   12.5638 O.2       8 UNK        -0.5428 
     50 CA        -51.4106  -24.7247   11.0422 C.3       7 UNK         0.0264 
     51 CB        -51.7158  -24.1323    9.6625 C.3       7 UNK        -0.1988 
     52 N         -50.4429  -25.8199   10.9237 N.am      7 UNK        -0.4454 
     53 C         -50.3271  -26.7977   11.8358 C.2       7 UNK         0.5027 
     54 O         -51.0430  -26.8862   12.8378 O.2       7 UNK        -0.5083 
     55 CA        -49.1613  -27.7883   11.6351 C.3       6 UNK         0.0844 
     56 C56       -49.4633  -28.8845   10.5799 C.3       14 UNK        -0.0967 
     57 S57       -50.3709  -30.2935   11.3011 S.3       14 UNK        -0.2604 
     58 C58       -51.6730  -30.6265   10.0698 C.3       14 UNK         0.0134 
     59 N         -47.9058  -27.0980   11.3353 N.am      6 UNK        -0.4116 
     60 C         -47.2427  -26.2892   12.1712 C.2       5 UNK         0.5034 
     61 O         -47.6831  -25.9431   13.2665 O.2       5 UNK        -0.5045 
     62 CA        -45.8827  -25.7299   11.7137 C.3       5 UNK         0.0224 
     63 CB        -44.7712  -26.0269   12.7403 C.3       5 UNK        -0.1978 
     64 N         -45.4830  -26.1175   10.3548 N.am      5 UNK        -0.4737 
     65 C         -45.1221  -27.3242    9.8895 C.2       4 UNK         0.5027 
     66 O         -45.0434  -28.3313   10.5913 O.2       4 UNK        -0.5211 
     67 CA        -44.8625  -27.4479    8.3747 C.3       4 UNK         0.0297 
     68 CB        -45.8296  -28.4668    7.7459 C.3       4 UNK        -0.1993 
     69 N         -45.0079  -26.1680    7.6763 N.am      4 UNK        -0.4486 
     70 C         -44.0537  -25.2328    7.5704 C.2       3 UNK         0.4961 
     71 O         -42.8898  -25.3956    7.9354 O.2       3 UNK        -0.5105 
     72 CA        -44.4836  -23.8687    7.0007 C.3       3 UNK         0.0299 
     73 CB        -44.0839  -23.7466    5.5215 C.3       3 UNK        -0.1972 
     74 N         -45.9232  -23.6143    7.1533 N.am      3 UNK        -0.4305 
     75 C         -46.5142  -23.3257    8.3251 C.2       2 UNK         0.5006 
     76 O         -45.9010  -23.2393    9.3878 O.2       2 UNK        -0.5106 
     77 CA        -48.0426  -23.1546    8.3415 C.3       2 UNK         0.0296 
     78 CB        -48.4280  -21.6809    8.1439 C.3       2 UNK        -0.2002 
     79 N         -48.7127  -23.9794    7.3357 N.am      2 UNK        -0.4032 
     80 C         -48.8694  -25.3062    7.4331 C.2       1 UNK         0.5000 
     81 O         -48.5530  -25.9612    8.4325 O.2       1 UNK        -0.5238 
     82 H82       -46.6155  -28.2145    4.3244 H         1 UNK         0.0889 
     83 H83       -45.3371  -27.0481    4.6778 H         1 UNK         0.0889 
     84 H84       -46.2398  -26.9388    3.1654 H         1 UNK         0.0889 
     85 H85       -48.4663  -27.7875    5.5397 H         1 UNK         0.3028 
     86 H86       -49.7443  -25.2583    5.4677 H         1 UNK         0.0864 
     87 H87       -50.7573  -27.7010    5.7658 H         1 UNK         0.0720 
     88 H88       -50.5546  -27.3978    7.4710 H         1 UNK         0.0720 
     89 H89       -53.3439  -28.0360    6.0617 H         1 UNK         0.0814 
     90 H90       -54.4450  -26.8007    6.6074 H         1 UNK         0.0814 
     91 H91       -52.0547  -29.3730    7.6849 H         1 UNK         0.1469 
     92 H92       -53.2440  -29.2151   11.7957 H         1 UNK         0.1381 
     93 H93       -54.6840  -26.2668    9.0325 H         1 UNK         0.1206 
     94 H94       -54.4913  -26.0141   11.8248 H         1 UNK         0.0813 
     95 H95       -54.7082  -27.5645   12.5993 H         1 UNK         0.0813 
     96 H96       -56.1732  -29.3161   10.9269 H         1 UNK         0.0638 
     97 H97       -57.5979  -28.7583   10.0947 H         1 UNK         0.0638 
     98 H98       -58.7577  -28.5558   12.3749 H         1 UNK         0.0568 
     99 H99       -60.2055  -31.4018   10.8057 H         1 UNK         0.3450 
    100 H100      -60.1974  -29.6598   10.8918 H         1 UNK         0.3450 
    101 H101      -56.2019  -29.6256   13.3527 H         1 UNK         0.2987 
    102 H102      -57.2868  -29.4682   16.7109 H         1 UNK         0.0766 
    103 H103      -56.2175  -31.6961   16.9443 H         1 UNK         0.0798 
    104 H104      -56.3375  -31.9600   15.2045 H         1 UNK         0.0798 
    105 H105      -57.7922  -31.8383   16.1803 H         1 UNK         0.0798 
    106 H106      -55.2726  -28.6458   16.4900 H         1 UNK         0.3198 
    107 H107      -52.9903  -29.0698   16.4197 H         1 UNK         0.0843 
    108 H108      -51.9065  -29.6925   13.6355 H         1 UNK         0.0831 
    109 H109      -51.9496  -30.8275   14.9753 H         1 UNK         0.0831 
    110 H110      -50.9522  -29.3833   15.0810 H         1 UNK         0.0831 
    111 H111      -52.3036  -27.3698   14.2320 H         1 UNK         0.3133 
    112 H112      -53.4662  -25.1424   13.9754 H         1 UNK         0.0566 
    113 H113      -53.8055  -23.0743   15.3231 H         1 UNK         0.0814 
    114 H114      -55.1564  -24.1824   15.5093 H         1 UNK         0.0814 
    115 H115      -53.9656  -24.0362   16.7924 H         1 UNK         0.0814 
    116 H116      -51.3128  -24.8413   14.3494 H         1 UNK         0.3091 
    117 H117      -49.2326  -24.1771   17.0160 H         1 UNK         0.0702 
    118 H118      -47.8159  -26.0947   16.2656 H         1 UNK         0.0785 
    119 H119      -49.2201  -26.8628   15.5271 H         1 UNK         0.0785 
    120 H120      -49.1406  -26.6593   17.2729 H         1 UNK         0.0785 
    121 H121      -48.7827  -24.8248   14.2371 H         1 UNK         0.2998 
    122 H122      -49.5422  -21.5378   12.9832 H         1 UNK         0.0697 
    123 H123      -47.0044  -23.2372   13.2085 H         1 UNK         0.0825 
    124 H124      -47.1607  -21.5164   13.4923 H         1 UNK         0.0825 
    125 H125      -47.3456  -22.1442   11.8629 H         1 UNK         0.0825 
    126 H126      -49.0096  -24.0927   11.7501 H         1 UNK         0.3029 
    127 H127      -52.3439  -25.1331   11.4334 H         1 UNK         0.0897 
    128 H128      -52.1476  -24.8890    9.0131 H         1 UNK         0.0792 
    129 H129      -52.4438  -23.3232    9.7358 H         1 UNK         0.0792 
    130 H130      -50.8279  -23.7281    9.1806 H         1 UNK         0.0792 
    131 H131      -49.8247  -25.8235   10.1187 H         1 UNK         0.3086 
    132 H132      -49.0003  -28.2797   12.5977 H         1 UNK         0.0583 
    133 H133      -49.9829  -28.4734    9.7132 H         1 UNK         0.1020 
    134 H134      -48.5320  -29.2972   10.1879 H         1 UNK         0.1020 
    135 H135      -51.2029  -30.9984    9.1580 H         1 UNK         0.0694 
    136 H136      -52.3078  -31.4328   10.4396 H         1 UNK         0.0694 
    137 H137      -47.4961  -27.2752   10.4301 H         1 UNK         0.2989 
    138 H138      -46.0044  -24.6478   11.6757 H         1 UNK         0.1055 
    139 H139      -45.0141  -25.5966   13.7129 H         1 UNK         0.0806 
    140 H140      -43.8181  -25.6001   12.4281 H         1 UNK         0.0806 
    141 H141      -44.6283  -27.0973   12.8901 H         1 UNK         0.0806 
    142 H142      -45.5061  -25.3533    9.6902 H         1 UNK         0.3061 
    143 H143      -43.8428  -27.8175    8.2473 H         1 UNK         0.0734 
    144 H144      -45.6063  -28.6260    6.6918 H         1 UNK         0.0832 
    145 H145      -45.7491  -29.4386    8.2351 H         1 UNK         0.0832 
    146 H146      -46.8689  -28.1471    7.8297 H         1 UNK         0.0832 
    147 H147      -45.9373  -25.9298    7.3629 H         1 UNK         0.3156 
    148 H148      -43.9445  -23.0981    7.5562 H         1 UNK         0.0589 
    149 H149      -44.5455  -24.5196    4.9075 H         1 UNK         0.0808 
    150 H150      -44.3674  -22.7774    5.1112 H         1 UNK         0.0808 
    151 H151      -43.0038  -23.8439    5.4031 H         1 UNK         0.0808 
    152 H152      -46.4921  -23.7333    6.3205 H         1 UNK         0.3098 
    153 H153      -48.3919  -23.4625    9.3291 H         1 UNK         0.0720 
    154 H154      -48.1143  -21.3065    7.1686 H         1 UNK         0.0791 
    155 H155      -47.9593  -21.0510    8.9016 H         1 UNK         0.0791 
    156 H156      -49.5055  -21.5380    8.2286 H         1 UNK         0.0791 
    157 H157      -48.9788  -23.5210    6.4752 H         1 UNK         0.3028 
@<TRIPOS>BOND
     1    1    2 1    
     2    1   82 1    
     3    1   83 1    
     4    1   84 1    
     5    2    3 2    
     6    2    4 am   BACKBONE|DICT|INTERRES
     7    4    5 1    
     8    4   85 1    
     9    5    6 1    
    10    5   80 1    
    11    5   86 1    
    12    6    7 1    
    13    6   87 1    
    14    6   88 1    
    15    7    8 1    
    16    8    9 1    
    17    8   89 1    
    18    8   90 1    
    19    9   10 ar   
    20    9   14 ar   
    21   10   11 ar   
    22   10   91 1    
    23   11   12 ar   
    24   11   58 1    
    25   12   13 ar   
    26   12   92 1    
    27   13   14 ar   
    28   13   15 1    
    29   14   93 1    
    30   15   16 1    
    31   15   94 1    
    32   15   95 1    
    33   16   17 1    
    34   17   18 1    
    35   17   96 1    
    36   17   97 1    
    37   18   19 1    
    38   18   22 1    
    39   18   98 1    
    40   19   20 am   BACKBONE|DICT|INTERRES
    41   19   21 2    
    42   20   99 1    
    43   20  100 1    
    44   22   23 am   BACKBONE|DICT|INTERRES
    45   22  101 1    
    46   23   24 2    
    47   23   25 1    
    48   25   26 1    
    49   25   27 1    
    50   25  102 1    
    51   26  103 1    
    52   26  104 1    
    53   26  105 1    
    54   27   28 am   BACKBONE|DICT|INTERRES
    55   27  106 1    
    56   28   29 2    
    57   28   30 1    
    58   30   31 1    
    59   30   32 1    
    60   30  107 1    
    61   31  108 1    
    62   31  109 1    
    63   31  110 1    
    64   32   33 am   BACKBONE|DICT|INTERRES
    65   32  111 1    
    66   33   34 2    
    67   33   35 1    
    68   35   36 1    
    69   35   37 1    
    70   35  112 1    
    71   36  113 1    
    72   36  114 1    
    73   36  115 1    
    74   37   38 am   BACKBONE|DICT|INTERRES
    75   37  116 1    
    76   38   39 2    
    77   38   40 1    
    78   40   41 1    
    79   40   42 1    
    80   40  117 1    
    81   41  118 1    
    82   41  119 1    
    83   41  120 1    
    84   42   43 am   BACKBONE|DICT|INTERRES
    85   42  121 1    
    86   43   44 2    
    87   43   45 1    
    88   45   46 1    
    89   45   47 1    
    90   45  122 1    
    91   46  123 1    
    92   46  124 1    
    93   46  125 1    
    94   47   48 am   BACKBONE|DICT|INTERRES
    95   47  126 1    
    96   48   49 2    
    97   48   50 1    
    98   50   51 1    
    99   50   52 1    
   100   50  127 1    
   101   51  128 1    
   102   51  129 1    
   103   51  130 1    
   104   52   53 am   BACKBONE|DICT|INTERRES
   105   52  131 1    
   106   53   54 2    
   107   53   55 1    
   108   55   56 1    
   109   55   59 1    
   110   55  132 1    
   111   56   57 1    
   112   56  133 1    
   113   56  134 1    
   114   57   58 1    
   115   58  135 1    
   116   58  136 1    
   117   59   60 am   BACKBONE|DICT|INTERRES
   118   59  137 1    
   119   60   61 2    
   120   60   62 1    
   121   62   63 1    
   122   62   64 1    
   123   62  138 1    
   124   63  139 1    
   125   63  140 1    
   126   63  141 1    
   127   64   65 am   BACKBONE|DICT|INTERRES
   128   64  142 1    
   129   65   66 2    
   130   65   67 1    
   131   67   68 1    
   132   67   69 1    
   133   67  143 1    
   134   68  144 1    
   135   68  145 1    
   136   68  146 1    
   137   69   70 am   BACKBONE|DICT|INTERRES
   138   69  147 1    
   139   70   71 2    
   140   70   72 1    
   141   72   73 1    
   142   72   74 1    
   143   72  148 1    
   144   73  149 1    
   145   73  150 1    
   146   73  151 1    
   147   74   75 am   BACKBONE|DICT|INTERRES
   148   74  152 1    
   149   75   76 2    
   150   75   77 1    
   151   77   78 1    
   152   77   79 1    
   153   77  153 1    
   154   78  154 1    
   155   78  155 1    
   156   78  156 1    
   157   79   80 am   BACKBONE|DICT|INTERRES
   158   79  157 1    
   159   80   81 2    
@<TRIPOS>SUBSTRUCTURE
     1 UNK         1 GROUP             0       ****    0 ROOT    
