@<TRIPOS>MOLECULE
3R207
157   159    1
SMALL
USER_CHARGES


@<TRIPOS>ATOM
      1 CA        -47.9015  -29.1112    0.5549 C.3       0 UNK        -0.1975 
      2 C         -47.6261  -28.7332    2.0032 C.2       0 UNK         0.4852 
      3 O         -46.4623  -28.6349    2.3950 O.2       0 UNK        -0.5216 
      4 N         -48.6888  -28.5276    2.7946 N.am      1 UNK        -0.4461 
      5 CA        -48.6543  -28.1095    4.2017 C.3       1 UNK         0.0864 
      6 C6        -47.9744  -29.1632    5.1261 C.3       14 UNK        -0.0898 
      7 S7        -48.5829  -29.1041    6.8464 S.3       14 UNK        -0.2598 
      8 C8        -49.8786  -30.3783    6.7882 C.3       14 UNK         0.0286 
      9 C9        -50.5266  -30.5949    8.1477 C.ar      14 UNK        -0.0844 
     10 C10       -49.8357  -31.2914    9.1443 C.ar      14 UNK        -0.0881 
     11 C11       -50.4467  -31.5621   10.3712 C.ar      14 UNK        -0.0643 
     12 C12       -51.7600  -31.1426   10.5927 C.ar      14 UNK        -0.0930 
     13 C13       -52.4533  -30.4172    9.6194 C.ar      14 UNK        -0.0827 
     14 C14       -51.8290  -30.1454    8.3965 C.ar      14 UNK        -0.1249 
     15 C15       -53.8864  -29.9623    9.8752 C.3       14 UNK         0.0141 
     16 S16       -53.9793  -28.2940   10.6087 S.3       14 UNK        -0.2313 
     17 C17       -53.5299  -28.6179   12.3465 C.3       14 UNK        -0.0915 
     18 CA        -54.7717  -28.6846   13.2768 C.3       13 UNK         0.0968 
     19 C         -54.5118  -29.5109   14.5718 C.2       13 UNK         0.5732 
     20 N         -54.9350  -29.0722   15.7522 N.am      13 UNK        -0.7310 
     21 O         -53.9358  -30.5940   14.5062 O.2       13 UNK        -0.5035 
     22 N         -55.2877  -27.3381   13.5582 N.am      13 UNK        -0.4233 
     23 C         -56.5699  -26.9686   13.4636 C.2       13 UNK         0.4989 
     24 O         -57.4637  -27.6976   13.0285 O.2       13 UNK        -0.4996 
     25 CA        -56.9115  -25.5438   13.9482 C.3       12 UNK         0.0216 
     26 CB        -58.4166  -25.3529   14.2341 C.3       12 UNK        -0.1964 
     27 N         -56.1103  -25.1038   15.0993 N.am      12 UNK        -0.4276 
     28 C         -56.0184  -25.6948   16.3031 C.2       12 UNK         0.5020 
     29 O         -56.6118  -26.7349   16.5921 O.2       12 UNK        -0.5489 
     30 CA        -55.0838  -25.0534   17.3484 C.3       11 UNK         0.0294 
     31 CB        -54.2982  -26.1220   18.1316 C.3       11 UNK        -0.2019 
     32 N         -54.1272  -24.1442   16.7186 N.am      11 UNK        -0.4493 
     33 C         -54.1711  -22.8055   16.7617 C.2       11 UNK         0.4932 
     34 O         -54.9916  -22.1677   17.4212 O.2       11 UNK        -0.5029 
     35 CA        -53.1418  -22.0408   15.9035 C.3       10 UNK         0.0280 
     36 CB        -51.9742  -21.5539   16.7767 C.3       10 UNK        -0.1976 
     37 N         -52.6089  -22.8221   14.7817 N.am      10 UNK        -0.4242 
     38 C         -53.3326  -23.2938   13.7555 C.2       10 UNK         0.5072 
     39 O         -54.5307  -23.0575   13.5999 O.2       10 UNK        -0.5224 
     40 CA        -52.6242  -24.2598   12.7885 C.3       9 UNK         0.0343 
     41 CB        -52.0955  -23.4941   11.5691 C.3       9 UNK        -0.2003 
     42 N         -51.5476  -25.0473   13.4151 N.am      9 UNK        -0.4272 
     43 C         -51.7608  -25.9224   14.4134 C.2       9 UNK         0.4988 
     44 O         -52.8816  -26.1174   14.8882 O.2       9 UNK        -0.5108 
     45 CA        -50.5784  -26.7113   14.9998 C.3       8 UNK         0.0248 
     46 CB        -50.7928  -28.2289   14.8442 C.3       8 UNK        -0.2001 
     47 N         -49.2758  -26.3510   14.4378 N.am      8 UNK        -0.4140 
     48 C         -48.1162  -26.3945   15.1069 C.2       8 UNK         0.5028 
     49 O         -48.0252  -26.6057   16.3184 O.2       8 UNK        -0.5428 
     50 CA        -46.8469  -26.2236   14.2482 C.3       7 UNK         0.0264 
     51 CB        -45.5370  -26.3291   15.0580 C.3       7 UNK        -0.1988 
     52 N         -46.8467  -27.1570   13.1123 N.am      7 UNK        -0.4454 
     53 C         -46.8933  -28.5009   13.1475 C.2       7 UNK         0.5027 
     54 O         -46.7673  -29.1571   14.1826 O.2       7 UNK        -0.5083 
     55 CA        -47.1467  -29.2260   11.7981 C.3       6 UNK         0.0844 
     56 C56       -47.3961  -30.7519   11.9355 C.3       14 UNK        -0.0967 
     57 S57       -48.9970  -31.2046   12.6995 S.3       14 UNK        -0.2604 
     58 C58       -49.7100  -32.3284   11.4576 C.3       14 UNK         0.0134 
     59 N         -48.2080  -28.5670   11.0268 N.am      6 UNK        -0.4116 
     60 C         -48.0381  -27.4687   10.2812 C.2       5 UNK         0.5034 
     61 O         -46.9284  -26.9760   10.0650 O.2       5 UNK        -0.5045 
     62 CA        -49.2940  -26.7450    9.7556 C.3       5 UNK         0.0224 
     63 CB        -50.5997  -27.1473   10.4749 C.3       5 UNK        -0.1978 
     64 N         -49.0937  -25.2899    9.7888 N.am      5 UNK        -0.4737 
     65 C         -48.8607  -24.5374   10.8758 C.2       4 UNK         0.5027 
     66 O         -48.9970  -24.9561   12.0273 O.2       4 UNK        -0.5211 
     67 CA        -48.3650  -23.0926   10.6730 C.3       4 UNK         0.0297 
     68 CB        -46.9821  -22.9151   11.3225 C.3       4 UNK        -0.1993 
     69 N         -48.2726  -22.7085    9.2634 N.am      4 UNK        -0.4486 
     70 C         -49.2706  -22.1850    8.5392 C.2       3 UNK         0.4961 
     71 O         -50.3718  -21.8870    9.0008 O.2       3 UNK        -0.5105 
     72 CA        -49.0008  -21.9781    7.0351 C.3       3 UNK         0.0299 
     73 CB        -48.5539  -20.5322    6.7651 C.3       3 UNK        -0.1972 
     74 N         -48.0128  -22.9069    6.4669 N.am      3 UNK        -0.4305 
     75 C         -48.1525  -24.2393    6.4298 C.2       2 UNK         0.5006 
     76 O         -49.1263  -24.8352    6.8956 O.2       2 UNK        -0.5106 
     77 CA        -46.9787  -25.0379    5.8407 C.3       2 UNK         0.0296 
     78 CB        -45.8495  -25.1698    6.8766 C.3       2 UNK        -0.2002 
     79 N         -47.4102  -26.3784    5.4456 N.am      2 UNK        -0.4032 
     80 C         -48.1200  -26.6629    4.3468 C.2       1 UNK         0.5000 
     81 O         -48.3862  -25.8271    3.4771 O.2       1 UNK        -0.5238 
     82 H82       -47.4526  -30.0778    0.3277 H         1 UNK         0.0889 
     83 H83       -47.4691  -28.3684   -0.1148 H         1 UNK         0.0889 
     84 H84       -48.9691  -29.1759    0.3453 H         1 UNK         0.0889 
     85 H85       -49.6139  -28.5939    2.3932 H         1 UNK         0.3028 
     86 H86       -49.7045  -28.0494    4.4917 H         1 UNK         0.0864 
     87 H87       -46.8881  -29.0547    5.1227 H         1 UNK         0.0720 
     88 H88       -48.1576  -30.1675    4.7406 H         1 UNK         0.0720 
     89 H89       -50.6278  -30.0948    6.0472 H         1 UNK         0.0814 
     90 H90       -49.4474  -31.3200    6.4449 H         1 UNK         0.0814 
     91 H91       -48.8273  -31.6336    8.9562 H         1 UNK         0.1469 
     92 H92       -52.2378  -31.3872   11.5307 H         1 UNK         0.1381 
     93 H93       -52.3662  -29.6010    7.6318 H         1 UNK         0.1206 
     94 H94       -54.4024  -30.6735   10.5222 H         1 UNK         0.0813 
     95 H95       -54.4396  -29.9574    8.9349 H         1 UNK         0.0813 
     96 H96       -52.9438  -29.5308   12.3967 H         1 UNK         0.0638 
     97 H97       -52.8533  -27.8280   12.6650 H         1 UNK         0.0638 
     98 H98       -55.5342  -29.2628   12.7523 H         1 UNK         0.0568 
     99 H99       -55.4716  -28.2169   15.8414 H         1 UNK         0.3450 
    100 H100      -54.7608  -29.6359   16.5680 H         1 UNK         0.3450 
    101 H101      -54.6190  -26.7055   13.9839 H         1 UNK         0.2987 
    102 H102      -56.6473  -24.8791   13.1243 H         1 UNK         0.0766 
    103 H103      -58.6340  -24.3320   14.5482 H         1 UNK         0.0798 
    104 H104      -59.0141  -25.5492   13.3430 H         1 UNK         0.0798 
    105 H105      -58.7676  -26.0268   15.0165 H         1 UNK         0.0798 
    106 H106      -55.5565  -24.2697   14.9327 H         1 UNK         0.3198 
    107 H107      -55.7182  -24.5115   18.0527 H         1 UNK         0.0843 
    108 H108      -54.9710  -26.7852   18.6769 H         1 UNK         0.0831 
    109 H109      -53.6327  -25.6666   18.8650 H         1 UNK         0.0831 
    110 H110      -53.6933  -26.7435   17.4698 H         1 UNK         0.0831 
    111 H111      -53.4443  -24.5948   16.1183 H         1 UNK         0.3133 
    112 H112      -53.6479  -21.1668   15.4881 H         1 UNK         0.0566 
    113 H113      -51.4160  -22.3866   17.2069 H         1 UNK         0.0814 
    114 H114      -52.3351  -20.9421   17.6049 H         1 UNK         0.0814 
    115 H115      -51.2778  -20.9405   16.2045 H         1 UNK         0.0814 
    116 H116      -51.6308  -23.0694   14.8237 H         1 UNK         0.3091 
    117 H117      -53.3779  -24.9662   12.4332 H         1 UNK         0.0702 
    118 H118      -52.8857  -22.9013   11.1061 H         1 UNK         0.0785 
    119 H119      -51.7240  -24.1736   10.8032 H         1 UNK         0.0785 
    120 H120      -51.2946  -22.8070   11.8404 H         1 UNK         0.0785 
    121 H121      -50.6138  -24.9239   13.0351 H         1 UNK         0.2998 
    122 H122      -50.5789  -26.4768   16.0662 H         1 UNK         0.0697 
    123 H123      -50.0160  -28.7934   15.3605 H         1 UNK         0.0825 
    124 H124      -50.7797  -28.5344   13.7976 H         1 UNK         0.0825 
    125 H125      -51.7478  -28.5398   15.2687 H         1 UNK         0.0825 
    126 H126      -49.2407  -26.0887   13.4551 H         1 UNK         0.3029 
    127 H127      -46.8921  -25.2181   13.8273 H         1 UNK         0.0897 
    128 H128      -44.6646  -26.1846   14.4209 H         1 UNK         0.0792 
    129 H129      -45.5002  -25.5662   15.8366 H         1 UNK         0.0792 
    130 H130      -45.4369  -27.2971   15.5497 H         1 UNK         0.0792 
    131 H131      -46.9307  -26.7257   12.1986 H         1 UNK         0.3086 
    132 H132      -46.2122  -29.1261   11.2418 H         1 UNK         0.0583 
    133 H133      -47.3290  -31.2055   10.9462 H         1 UNK         0.1020 
    134 H134      -46.5963  -31.2187   12.5135 H         1 UNK         0.1020 
    135 H135      -48.9327  -32.9646   11.0316 H         1 UNK         0.0694 
    136 H136      -50.4061  -33.0023   11.9595 H         1 UNK         0.0694 
    137 H137      -49.1408  -28.9250   11.1746 H         1 UNK         0.2989 
    138 H138      -49.3945  -27.0146    8.7041 H         1 UNK         0.1055 
    139 H139      -51.4438  -26.5629   10.1100 H         1 UNK         0.0806 
    140 H140      -50.5441  -27.0115   11.5539 H         1 UNK         0.0806 
    141 H141      -50.8404  -28.1934   10.2910 H         1 UNK         0.0806 
    142 H142      -48.9955  -24.8621    8.8735 H         1 UNK         0.3061 
    143 H143      -49.0640  -22.4282   11.1836 H         1 UNK         0.0734 
    144 H144      -47.0245  -23.1152   12.3938 H         1 UNK         0.0832 
    145 H145      -46.2434  -23.5937   10.8936 H         1 UNK         0.0832 
    146 H146      -46.6140  -21.8960   11.2027 H         1 UNK         0.0832 
    147 H147      -47.4019  -22.9120    8.7950 H         1 UNK         0.3156 
    148 H148      -49.9449  -22.1453    6.5122 H         1 UNK         0.0589 
    149 H149      -47.5974  -20.3087    7.2394 H         1 UNK         0.0808 
    150 H150      -48.4541  -20.3391    5.6968 H         1 UNK         0.0808 
    151 H151      -49.2835  -19.8197    7.1531 H         1 UNK         0.0808 
    152 H152      -47.1792  -22.4940    6.0721 H         1 UNK         0.3098 
    153 H153      -46.5984  -24.5134    4.9615 H         1 UNK         0.0720 
    154 H154      -45.0126  -25.7442    6.4787 H         1 UNK         0.0791 
    155 H155      -45.4591  -24.1929    7.1643 H         1 UNK         0.0791 
    156 H156      -46.1912  -25.6656    7.7864 H         1 UNK         0.0791 
    157 H157      -47.3039  -27.1101    6.1352 H         1 UNK         0.3028 
@<TRIPOS>BOND
     1    1    2 1    
     2    1   82 1    
     3    1   83 1    
     4    1   84 1    
     5    2    3 2    
     6    2    4 am   BACKBONE|DICT|INTERRES
     7    4    5 1    
     8    4   85 1    
     9    5    6 1    
    10    5   80 1    
    11    5   86 1    
    12    6    7 1    
    13    6   87 1    
    14    6   88 1    
    15    7    8 1    
    16    8    9 1    
    17    8   89 1    
    18    8   90 1    
    19    9   10 ar   
    20    9   14 ar   
    21   10   11 ar   
    22   10   91 1    
    23   11   12 ar   
    24   11   58 1    
    25   12   13 ar   
    26   12   92 1    
    27   13   14 ar   
    28   13   15 1    
    29   14   93 1    
    30   15   16 1    
    31   15   94 1    
    32   15   95 1    
    33   16   17 1    
    34   17   18 1    
    35   17   96 1    
    36   17   97 1    
    37   18   19 1    
    38   18   22 1    
    39   18   98 1    
    40   19   20 am   BACKBONE|DICT|INTERRES
    41   19   21 2    
    42   20   99 1    
    43   20  100 1    
    44   22   23 am   BACKBONE|DICT|INTERRES
    45   22  101 1    
    46   23   24 2    
    47   23   25 1    
    48   25   26 1    
    49   25   27 1    
    50   25  102 1    
    51   26  103 1    
    52   26  104 1    
    53   26  105 1    
    54   27   28 am   BACKBONE|DICT|INTERRES
    55   27  106 1    
    56   28   29 2    
    57   28   30 1    
    58   30   31 1    
    59   30   32 1    
    60   30  107 1    
    61   31  108 1    
    62   31  109 1    
    63   31  110 1    
    64   32   33 am   BACKBONE|DICT|INTERRES
    65   32  111 1    
    66   33   34 2    
    67   33   35 1    
    68   35   36 1    
    69   35   37 1    
    70   35  112 1    
    71   36  113 1    
    72   36  114 1    
    73   36  115 1    
    74   37   38 am   BACKBONE|DICT|INTERRES
    75   37  116 1    
    76   38   39 2    
    77   38   40 1    
    78   40   41 1    
    79   40   42 1    
    80   40  117 1    
    81   41  118 1    
    82   41  119 1    
    83   41  120 1    
    84   42   43 am   BACKBONE|DICT|INTERRES
    85   42  121 1    
    86   43   44 2    
    87   43   45 1    
    88   45   46 1    
    89   45   47 1    
    90   45  122 1    
    91   46  123 1    
    92   46  124 1    
    93   46  125 1    
    94   47   48 am   BACKBONE|DICT|INTERRES
    95   47  126 1    
    96   48   49 2    
    97   48   50 1    
    98   50   51 1    
    99   50   52 1    
   100   50  127 1    
   101   51  128 1    
   102   51  129 1    
   103   51  130 1    
   104   52   53 am   BACKBONE|DICT|INTERRES
   105   52  131 1    
   106   53   54 2    
   107   53   55 1    
   108   55   56 1    
   109   55   59 1    
   110   55  132 1    
   111   56   57 1    
   112   56  133 1    
   113   56  134 1    
   114   57   58 1    
   115   58  135 1    
   116   58  136 1    
   117   59   60 am   BACKBONE|DICT|INTERRES
   118   59  137 1    
   119   60   61 2    
   120   60   62 1    
   121   62   63 1    
   122   62   64 1    
   123   62  138 1    
   124   63  139 1    
   125   63  140 1    
   126   63  141 1    
   127   64   65 am   BACKBONE|DICT|INTERRES
   128   64  142 1    
   129   65   66 2    
   130   65   67 1    
   131   67   68 1    
   132   67   69 1    
   133   67  143 1    
   134   68  144 1    
   135   68  145 1    
   136   68  146 1    
   137   69   70 am   BACKBONE|DICT|INTERRES
   138   69  147 1    
   139   70   71 2    
   140   70   72 1    
   141   72   73 1    
   142   72   74 1    
   143   72  148 1    
   144   73  149 1    
   145   73  150 1    
   146   73  151 1    
   147   74   75 am   BACKBONE|DICT|INTERRES
   148   74  152 1    
   149   75   76 2    
   150   75   77 1    
   151   77   78 1    
   152   77   79 1    
   153   77  153 1    
   154   78  154 1    
   155   78  155 1    
   156   78  156 1    
   157   79   80 am   BACKBONE|DICT|INTERRES
   158   79  157 1    
   159   80   81 2    
@<TRIPOS>SUBSTRUCTURE
     1 UNK         1 GROUP             0       ****    0 ROOT    
