@<TRIPOS>MOLECULE
3R207
157   159    1
SMALL
USER_CHARGES


@<TRIPOS>ATOM
      1 CA        -47.3403  -25.5236    2.1714 C.3       0 UNK        -0.1975 
      2 C         -47.3722  -26.1706    3.5485 C.2       0 UNK         0.4852 
      3 O         -46.3224  -26.5502    4.0700 O.2       0 UNK        -0.5216 
      4 N         -48.5662  -26.2892    4.1420 N.am      1 UNK        -0.4461 
      5 CA        -48.7945  -26.9229    5.4453 C.3       1 UNK         0.0864 
      6 C6        -50.1817  -26.5639    6.0358 C.3       14 UNK        -0.0898 
      7 S7        -50.5420  -24.7741    6.0916 S.3       14 UNK        -0.2598 
      8 C8        -52.3477  -24.7632    5.8186 C.3       14 UNK         0.0286 
      9 C9        -53.1222  -25.0275    7.1047 C.ar      14 UNK        -0.0844 
     10 C10       -53.8503  -24.0016    7.7149 C.ar      14 UNK        -0.0881 
     11 C11       -54.5432  -24.2317    8.9092 C.ar      14 UNK        -0.0643 
     12 C12       -54.5037  -25.4997    9.4958 C.ar      14 UNK        -0.0930 
     13 C13       -53.7695  -26.5277    8.8998 C.ar      14 UNK        -0.0827 
     14 C14       -53.1069  -26.2944    7.6936 C.ar      14 UNK        -0.1249 
     15 C15       -53.6284  -27.8736    9.5842 C.3       14 UNK         0.0141 
     16 S16       -52.2230  -27.8148   10.7324 S.3       14 UNK        -0.2313 
     17 C17       -51.7865  -29.5775   10.8802 C.3       14 UNK        -0.0915 
     18 CA        -52.8413  -30.4416   11.6212 C.3       13 UNK         0.0968 
     19 C         -52.3445  -31.9124   11.7366 C.2       13 UNK         0.5732 
     20 N         -52.0491  -32.4266   12.9245 N.am      13 UNK        -0.7310 
     21 O         -52.2235  -32.5975   10.7242 O.2       13 UNK        -0.5035 
     22 N         -53.2785  -29.8169   12.8803 N.am      13 UNK        -0.4233 
     23 C         -54.3478  -30.1873   13.5959 C.2       13 UNK         0.4989 
     24 O         -55.0784  -31.1357   13.3073 O.2       13 UNK        -0.4996 
     25 CA        -54.6655  -29.3457   14.8419 C.3       12 UNK         0.0216 
     26 CB        -53.8866  -29.8696   16.0588 C.3       12 UNK        -0.1964 
     27 N         -54.3987  -27.9142   14.6557 N.am      12 UNK        -0.4276 
     28 C         -55.1479  -27.1072   13.8857 C.2       12 UNK         0.5020 
     29 O         -56.1003  -27.5165   13.2195 O.2       12 UNK        -0.5489 
     30 CA        -54.8029  -25.6018   13.8257 C.3       11 UNK         0.0294 
     31 CB        -56.0681  -24.7219   13.8956 C.3       11 UNK        -0.2019 
     32 N         -53.8083  -25.1439   14.8022 N.am      11 UNK        -0.4493 
     33 C         -53.8677  -25.1724   16.1418 C.2       11 UNK         0.4932 
     34 O         -54.8435  -25.5630   16.7838 O.2       11 UNK        -0.5029 
     35 CA        -52.5787  -24.7337   16.8703 C.3       10 UNK         0.0280 
     36 CB        -52.5466  -25.1679   18.3507 C.3       10 UNK        -0.1976 
     37 N         -51.3635  -25.1793   16.1706 N.am      10 UNK        -0.4242 
     38 C         -51.0339  -26.4402   15.8468 C.2       10 UNK         0.5072 
     39 O         -51.7049  -27.4212   16.1680 O.2       10 UNK        -0.5224 
     40 CA        -49.8010  -26.6565   14.9510 C.3       9 UNK         0.0343 
     41 CB        -50.2345  -27.2561   13.6052 C.3       9 UNK        -0.2003 
     42 N         -49.0449  -25.4342   14.6797 N.am      9 UNK        -0.4272 
     43 C         -48.1400  -24.8861   15.4998 C.2       9 UNK         0.4988 
     44 O         -47.8460  -25.3419   16.6049 O.2       9 UNK        -0.5108 
     45 CA        -47.4574  -23.6043   15.0004 C.3       8 UNK         0.0248 
     46 CB        -46.2887  -23.9403   14.0604 C.3       8 UNK        -0.2001 
     47 N         -48.3996  -22.7232   14.3075 N.am      8 UNK        -0.4140 
     48 C         -49.2303  -21.8739   14.9252 C.2       8 UNK         0.5028 
     49 O         -49.2738  -21.7249   16.1468 O.2       8 UNK        -0.5428 
     50 CA        -50.1747  -21.0462   14.0366 C.3       7 UNK         0.0264 
     51 CB        -49.5157  -19.7122   13.6498 C.3       7 UNK        -0.1988 
     52 N         -50.6166  -21.7378   12.8217 N.am      7 UNK        -0.4454 
     53 C         -51.4389  -22.7968   12.8139 C.2       7 UNK         0.5027 
     54 O         -51.8361  -23.3631   13.8321 O.2       7 UNK        -0.5083 
     55 CA        -51.8789  -23.3264   11.4330 C.3       6 UNK         0.0844 
     56 C56       -52.8257  -22.3100   10.7321 C.3       14 UNK        -0.0967 
     57 S57       -54.5728  -22.6034   11.1737 S.3       14 UNK        -0.2604 
     58 C58       -55.3081  -23.0989    9.5799 C.3       14 UNK         0.0134 
     59 N         -50.8000  -23.7832   10.5430 N.am      6 UNK        -0.4116 
     60 C         -49.6449  -24.3825   10.8689 C.2       5 UNK         0.5034 
     61 O         -49.1957  -24.4820   12.0148 O.2       5 UNK        -0.5045 
     62 CA        -48.8390  -24.9618    9.7010 C.3       5 UNK         0.0224 
     63 CB        -48.2135  -23.8495    8.8416 C.3       5 UNK        -0.1978 
     64 N         -47.7757  -25.8060   10.2396 N.am      5 UNK        -0.4737 
     65 C         -47.3810  -26.9781    9.7394 C.2       4 UNK         0.5027 
     66 O         -47.8487  -27.4691    8.7086 O.2       4 UNK        -0.5211 
     67 CA        -46.2454  -27.7134   10.4818 C.3       4 UNK         0.0297 
     68 CB        -46.0355  -27.2696   11.9487 C.3       4 UNK        -0.1993 
     69 N         -46.4062  -29.1645   10.3624 N.am      4 UNK        -0.4486 
     70 C         -47.3548  -29.9293   10.9188 C.2       3 UNK         0.4961 
     71 O         -48.1339  -29.5520   11.7937 O.2       3 UNK        -0.5105 
     72 CA        -47.4893  -31.3447   10.3254 C.3       3 UNK         0.0299 
     73 CB        -48.3291  -32.2812   11.2133 C.3       3 UNK        -0.1972 
     74 N         -48.1058  -31.2627    8.9993 N.am      3 UNK        -0.4305 
     75 C         -47.4915  -30.8327    7.8884 C.2       2 UNK         0.5006 
     76 O         -46.2815  -30.6044    7.8248 O.2       2 UNK        -0.5106 
     77 CA        -48.3662  -30.5508    6.6624 C.3       2 UNK         0.0296 
     78 CB        -49.7968  -31.1312    6.7477 C.3       2 UNK        -0.2002 
     79 N         -48.4207  -29.1010    6.4961 N.am      2 UNK        -0.4032 
     80 C         -48.6640  -28.4597    5.3498 C.2       1 UNK         0.5000 
     81 O         -48.8476  -29.0330    4.2710 O.2       1 UNK        -0.5238 
     82 H82       -46.9374  -26.2221    1.4385 H         1 UNK         0.0889 
     83 H83       -46.7034  -24.6396    2.1867 H         1 UNK         0.0889 
     84 H84       -48.3333  -25.2200    1.8404 H         1 UNK         0.0889 
     85 H85       -49.3961  -25.9683    3.6652 H         1 UNK         0.3028 
     86 H86       -48.0263  -26.5585    6.1314 H         1 UNK         0.0864 
     87 H87       -50.2567  -26.9443    7.0563 H         1 UNK         0.0720 
     88 H88       -50.9665  -27.0614    5.4627 H         1 UNK         0.0720 
     89 H89       -52.6247  -25.4959    5.0596 H         1 UNK         0.0814 
     90 H90       -52.6228  -23.7910    5.4069 H         1 UNK         0.0814 
     91 H91       -53.8684  -23.0176    7.2663 H         1 UNK         0.1469 
     92 H92       -55.0147  -25.6744   10.4327 H         1 UNK         0.1381 
     93 H93       -52.5514  -27.0982    7.2347 H         1 UNK         0.1206 
     94 H94       -54.5382  -28.1265   10.1310 H         1 UNK         0.0813 
     95 H95       -53.4756  -28.6594    8.8429 H         1 UNK         0.0813 
     96 H96       -51.6011  -29.9685    9.8782 H         1 UNK         0.0638 
     97 H97       -50.8298  -29.6253   11.4032 H         1 UNK         0.0638 
     98 H98       -53.7258  -30.4862   10.9834 H         1 UNK         0.0568 
     99 H99       -51.7325  -33.3811   12.9828 H         1 UNK         0.3450 
    100 H100      -52.1460  -31.8739   13.7601 H         1 UNK         0.3450 
    101 H101      -52.7467  -29.0159   13.1831 H         1 UNK         0.2987 
    102 H102      -55.7310  -29.4604   15.0535 H         1 UNK         0.0766 
    103 H103      -54.1143  -29.2923   16.9553 H         1 UNK         0.0798 
    104 H104      -52.8085  -29.8284   15.8999 H         1 UNK         0.0798 
    105 H105      -54.1444  -30.9088   16.2678 H         1 UNK         0.0798 
    106 H106      -53.6308  -27.5191   15.1882 H         1 UNK         0.3198 
    107 H107      -54.3463  -25.4431   12.8478 H         1 UNK         0.0843 
    108 H108      -56.6265  -24.8897   14.8169 H         1 UNK         0.0831 
    109 H109      -56.7404  -24.9345   13.0635 H         1 UNK         0.0831 
    110 H110      -55.8182  -23.6624   13.8425 H         1 UNK         0.0831 
    111 H111      -52.9747  -24.7153   14.4029 H         1 UNK         0.3133 
    112 H112      -52.5661  -23.6432   16.8411 H         1 UNK         0.0566 
    113 H113      -52.6098  -26.2515   18.4563 H         1 UNK         0.0814 
    114 H114      -51.6316  -24.8359   18.8412 H         1 UNK         0.0814 
    115 H115      -53.3837  -24.7384   18.9024 H         1 UNK         0.0814 
    116 H116      -50.7853  -24.4415   15.7915 H         1 UNK         0.3091 
    117 H117      -49.1479  -27.3728   15.4536 H         1 UNK         0.0702 
    118 H118      -50.7188  -28.2234   13.7411 H         1 UNK         0.0785 
    119 H119      -50.9368  -26.6006   13.0891 H         1 UNK         0.0785 
    120 H120      -49.3836  -27.4151   12.9432 H         1 UNK         0.0785 
    121 H121      -49.1951  -25.0063   13.7679 H         1 UNK         0.2998 
    122 H122      -47.0510  -23.0815   15.8691 H         1 UNK         0.0697 
    123 H123      -46.6354  -24.4090   13.1401 H         1 UNK         0.0825 
    124 H124      -45.5871  -24.6272   14.5358 H         1 UNK         0.0825 
    125 H125      -45.7309  -23.0441   13.7885 H         1 UNK         0.0825 
    126 H126      -48.4859  -22.8420   13.3061 H         1 UNK         0.3029 
    127 H127      -51.0632  -20.8242   14.6324 H         1 UNK         0.0897 
    128 H128      -48.6327  -19.8621   13.0272 H         1 UNK         0.0792 
    129 H129      -49.1987  -19.1621   14.5372 H         1 UNK         0.0792 
    130 H130      -50.2078  -19.0702   13.1044 H         1 UNK         0.0792 
    131 H131      -50.3093  -21.3549   11.9391 H         1 UNK         0.3086 
    132 H132      -52.4427  -24.2414   11.6264 H         1 UNK         0.0583 
    133 H133      -52.5786  -21.2740   10.9722 H         1 UNK         0.1020 
    134 H134      -52.7199  -22.3630    9.6492 H         1 UNK         0.1020 
    135 H135      -56.3391  -23.4125    9.7490 H         1 UNK         0.0694 
    136 H136      -55.3568  -22.2247    8.9287 H         1 UNK         0.0694 
    137 H137      -51.0350  -23.7637    9.5614 H         1 UNK         0.2989 
    138 H138      -49.5203  -25.5614    9.0921 H         1 UNK         0.1055 
    139 H139      -48.9772  -23.1995    8.4131 H         1 UNK         0.0806 
    140 H140      -47.6493  -24.2692    8.0084 H         1 UNK         0.0806 
    141 H141      -47.5363  -23.2224    9.4228 H         1 UNK         0.0806 
    142 H142      -47.4194  -25.5066   11.1370 H         1 UNK         0.3061 
    143 H143      -45.3312  -27.4750    9.9365 H         1 UNK         0.0734 
    144 H144      -45.3083  -27.9066   12.4520 H         1 UNK         0.0832 
    145 H145      -45.6470  -26.2525   11.9965 H         1 UNK         0.0832 
    146 H146      -46.9587  -27.3019   12.5284 H         1 UNK         0.0832 
    147 H147      -45.9149  -29.5809    9.5774 H         1 UNK         0.3156 
    148 H148      -46.4895  -31.7744   10.2332 H         1 UNK         0.0589 
    149 H149      -49.3499  -31.9183   11.3337 H         1 UNK         0.0808 
    150 H150      -48.3784  -33.2869   10.7958 H         1 UNK         0.0808 
    151 H151      -47.8946  -32.3643   12.2103 H         1 UNK         0.0808 
    152 H152      -49.1051  -31.4012    8.9634 H         1 UNK         0.3098 
    153 H153      -47.8581  -30.9942    5.8035 H         1 UNK         0.0720 
    154 H154      -50.3313  -30.9882    5.8083 H         1 UNK         0.0791 
    155 H155      -50.3880  -30.6567    7.5321 H         1 UNK         0.0791 
    156 H156      -49.7789  -32.2052    6.9385 H         1 UNK         0.0791 
    157 H157      -48.2316  -28.5500    7.3364 H         1 UNK         0.3028 
@<TRIPOS>BOND
     1    1    2 1    
     2    1   82 1    
     3    1   83 1    
     4    1   84 1    
     5    2    3 2    
     6    2    4 am   BACKBONE|DICT|INTERRES
     7    4    5 1    
     8    4   85 1    
     9    5    6 1    
    10    5   80 1    
    11    5   86 1    
    12    6    7 1    
    13    6   87 1    
    14    6   88 1    
    15    7    8 1    
    16    8    9 1    
    17    8   89 1    
    18    8   90 1    
    19    9   10 ar   
    20    9   14 ar   
    21   10   11 ar   
    22   10   91 1    
    23   11   12 ar   
    24   11   58 1    
    25   12   13 ar   
    26   12   92 1    
    27   13   14 ar   
    28   13   15 1    
    29   14   93 1    
    30   15   16 1    
    31   15   94 1    
    32   15   95 1    
    33   16   17 1    
    34   17   18 1    
    35   17   96 1    
    36   17   97 1    
    37   18   19 1    
    38   18   22 1    
    39   18   98 1    
    40   19   20 am   BACKBONE|DICT|INTERRES
    41   19   21 2    
    42   20   99 1    
    43   20  100 1    
    44   22   23 am   BACKBONE|DICT|INTERRES
    45   22  101 1    
    46   23   24 2    
    47   23   25 1    
    48   25   26 1    
    49   25   27 1    
    50   25  102 1    
    51   26  103 1    
    52   26  104 1    
    53   26  105 1    
    54   27   28 am   BACKBONE|DICT|INTERRES
    55   27  106 1    
    56   28   29 2    
    57   28   30 1    
    58   30   31 1    
    59   30   32 1    
    60   30  107 1    
    61   31  108 1    
    62   31  109 1    
    63   31  110 1    
    64   32   33 am   BACKBONE|DICT|INTERRES
    65   32  111 1    
    66   33   34 2    
    67   33   35 1    
    68   35   36 1    
    69   35   37 1    
    70   35  112 1    
    71   36  113 1    
    72   36  114 1    
    73   36  115 1    
    74   37   38 am   BACKBONE|DICT|INTERRES
    75   37  116 1    
    76   38   39 2    
    77   38   40 1    
    78   40   41 1    
    79   40   42 1    
    80   40  117 1    
    81   41  118 1    
    82   41  119 1    
    83   41  120 1    
    84   42   43 am   BACKBONE|DICT|INTERRES
    85   42  121 1    
    86   43   44 2    
    87   43   45 1    
    88   45   46 1    
    89   45   47 1    
    90   45  122 1    
    91   46  123 1    
    92   46  124 1    
    93   46  125 1    
    94   47   48 am   BACKBONE|DICT|INTERRES
    95   47  126 1    
    96   48   49 2    
    97   48   50 1    
    98   50   51 1    
    99   50   52 1    
   100   50  127 1    
   101   51  128 1    
   102   51  129 1    
   103   51  130 1    
   104   52   53 am   BACKBONE|DICT|INTERRES
   105   52  131 1    
   106   53   54 2    
   107   53   55 1    
   108   55   56 1    
   109   55   59 1    
   110   55  132 1    
   111   56   57 1    
   112   56  133 1    
   113   56  134 1    
   114   57   58 1    
   115   58  135 1    
   116   58  136 1    
   117   59   60 am   BACKBONE|DICT|INTERRES
   118   59  137 1    
   119   60   61 2    
   120   60   62 1    
   121   62   63 1    
   122   62   64 1    
   123   62  138 1    
   124   63  139 1    
   125   63  140 1    
   126   63  141 1    
   127   64   65 am   BACKBONE|DICT|INTERRES
   128   64  142 1    
   129   65   66 2    
   130   65   67 1    
   131   67   68 1    
   132   67   69 1    
   133   67  143 1    
   134   68  144 1    
   135   68  145 1    
   136   68  146 1    
   137   69   70 am   BACKBONE|DICT|INTERRES
   138   69  147 1    
   139   70   71 2    
   140   70   72 1    
   141   72   73 1    
   142   72   74 1    
   143   72  148 1    
   144   73  149 1    
   145   73  150 1    
   146   73  151 1    
   147   74   75 am   BACKBONE|DICT|INTERRES
   148   74  152 1    
   149   75   76 2    
   150   75   77 1    
   151   77   78 1    
   152   77   79 1    
   153   77  153 1    
   154   78  154 1    
   155   78  155 1    
   156   78  156 1    
   157   79   80 am   BACKBONE|DICT|INTERRES
   158   79  157 1    
   159   80   81 2    
@<TRIPOS>SUBSTRUCTURE
     1 UNK         1 GROUP             0       ****    0 ROOT    
