@<TRIPOS>MOLECULE
3R207
157   159    1
SMALL
USER_CHARGES


@<TRIPOS>ATOM
      1 CA        -45.1917  -29.5834    7.5063 C.3       0 UNK        -0.1975 
      2 C         -46.2947  -28.7247    6.9085 C.2       0 UNK         0.4852 
      3 O         -46.5154  -27.6041    7.3737 O.2       0 UNK        -0.5216 
      4 N         -46.9806  -29.2297    5.8715 N.am      1 UNK        -0.4461 
      5 CA        -48.0630  -28.5860    5.1065 C.3       1 UNK         0.0864 
      6 C6        -49.2710  -28.1710    5.9962 C.3       14 UNK        -0.0898 
      7 S7        -50.7654  -27.7786    5.0261 S.3       14 UNK        -0.2598 
      8 C8        -51.9971  -28.9336    5.7144 C.3       14 UNK         0.0286 
      9 C9        -52.6006  -28.4676    7.0372 C.ar      14 UNK        -0.0844 
     10 C10       -53.0469  -27.1512    7.1986 C.ar      14 UNK        -0.0881 
     11 C11       -53.6732  -26.7478    8.3814 C.ar      14 UNK        -0.0643 
     12 C12       -53.8747  -27.6804    9.4022 C.ar      14 UNK        -0.0930 
     13 C13       -53.4227  -28.9980    9.2644 C.ar      14 UNK        -0.0827 
     14 C14       -52.7833  -29.3807    8.0802 C.ar      14 UNK        -0.1249 
     15 C15       -53.6789  -30.0394   10.3489 C.3       14 UNK         0.0141 
     16 S16       -53.4398  -29.4138   12.0442 S.3       14 UNK        -0.2313 
     17 C17       -53.9789  -30.8729   12.9970 C.3       14 UNK        -0.0915 
     18 CA        -55.5084  -30.8617   13.2919 C.3       13 UNK         0.0968 
     19 C         -56.0366  -32.2260   13.8357 C.2       13 UNK         0.5732 
     20 N         -57.0926  -32.2503   14.6406 N.am      13 UNK        -0.7310 
     21 O         -55.5113  -33.2842   13.4969 O.2       13 UNK        -0.5035 
     22 N         -55.9327  -29.6781   14.0621 N.am      13 UNK        -0.4233 
     23 C         -55.6264  -29.4046   15.3364 C.2       13 UNK         0.4989 
     24 O         -54.9360  -30.1301   16.0542 O.2       13 UNK        -0.4996 
     25 CA        -56.1847  -28.0801   15.8843 C.3       12 UNK         0.0216 
     26 CB        -56.0687  -27.9693   17.4160 C.3       12 UNK        -0.1964 
     27 N         -55.5116  -26.9406   15.2564 N.am      12 UNK        -0.4276 
     28 C         -55.8420  -26.4291   14.0607 C.2       12 UNK         0.5020 
     29 O         -56.7566  -26.8917   13.3749 O.2       12 UNK        -0.5489 
     30 CA        -55.0283  -25.2434   13.4984 C.3       11 UNK         0.0294 
     31 CB        -55.9418  -24.0973   13.0189 C.3       11 UNK        -0.2019 
     32 N         -53.9644  -24.7347   14.3714 N.am      11 UNK        -0.4493 
     33 C         -54.0611  -24.1436   15.5712 C.2       11 UNK         0.4932 
     34 O         -55.1268  -23.8713   16.1252 O.2       11 UNK        -0.5029 
     35 CA        -52.7175  -23.8776   16.2859 C.3       10 UNK         0.0280 
     36 CB        -52.8854  -23.5142   17.7759 C.3       10 UNK        -0.1976 
     37 N         -51.7765  -24.9967   16.1236 N.am      10 UNK        -0.4242 
     38 C         -51.9953  -26.2818   16.4468 C.2       10 UNK         0.5072 
     39 O         -52.9961  -26.6654   17.0506 O.2       10 UNK        -0.5224 
     40 CA        -50.9855  -27.3376   15.9621 C.3       9 UNK         0.0343 
     41 CB        -51.6437  -28.2364   14.9041 C.3       9 UNK        -0.2003 
     42 N         -49.7620  -26.7673   15.3959 N.am      9 UNK        -0.4272 
     43 C         -48.7334  -26.3160   16.1258 C.2       9 UNK         0.4988 
     44 O         -48.6896  -26.3682   17.3554 O.2       9 UNK        -0.5108 
     45 CA        -47.5642  -25.6778   15.3576 C.3       8 UNK         0.0248 
     46 CB        -46.6110  -26.7624   14.8309 C.3       8 UNK        -0.2001 
     47 N         -47.9948  -24.8150   14.2525 N.am      8 UNK        -0.4140 
     48 C         -48.7342  -23.7044   14.3942 C.2       8 UNK         0.5028 
     49 O         -49.1393  -23.2827   15.4776 O.2       8 UNK        -0.5428 
     50 CA        -49.1263  -22.9553   13.1109 C.3       7 UNK         0.0264 
     51 CB        -47.9435  -22.1397   12.5643 C.3       7 UNK        -0.1988 
     52 N         -49.6347  -23.8424   12.0654 N.am      7 UNK        -0.4454 
     53 C         -50.7337  -24.6043   12.1662 C.2       7 UNK         0.5027 
     54 O         -51.4572  -24.6409   13.1607 O.2       7 UNK        -0.5083 
     55 CA        -51.0447  -25.5192   10.9668 C.3       6 UNK         0.0844 
     56 C56       -51.6491  -24.7209    9.7818 C.3       14 UNK        -0.0967 
     57 S57       -53.4446  -24.4683    9.9968 S.3       14 UNK        -0.2604 
     58 C58       -54.1492  -25.3082    8.5384 C.3       14 UNK         0.0134 
     59 N         -49.8628  -26.2885   10.5771 N.am      6 UNK        -0.4116 
     60 C         -49.2349  -27.1777   11.3601 C.2       5 UNK         0.5034 
     61 O         -49.5974  -27.4841   12.4957 O.2       5 UNK        -0.5045 
     62 CA        -47.9498  -27.7958   10.7916 C.3       5 UNK         0.0224 
     63 CB        -48.2922  -28.9938    9.8928 C.3       5 UNK        -0.1978 
     64 N         -47.1247  -26.8243   10.0617 N.am      5 UNK        -0.4737 
     65 C         -46.5518  -25.7558   10.6357 C.2       4 UNK         0.5027 
     66 O         -46.6386  -25.4976   11.8356 O.2       4 UNK        -0.5211 
     67 CA        -45.7921  -24.7842    9.7196 C.3       4 UNK         0.0297 
     68 CB        -44.4349  -25.3738    9.3035 C.3       4 UNK        -0.1993 
     69 N         -46.5369  -24.3729    8.5263 N.am      4 UNK        -0.4486 
     70 C         -47.7612  -23.8300    8.4964 C.2       3 UNK         0.4961 
     71 O         -48.4566  -23.6646    9.4980 O.2       3 UNK        -0.5105 
     72 CA        -48.3357  -23.4036    7.1303 C.3       3 UNK         0.0299 
     73 CB        -48.1843  -21.8843    6.9250 C.3       3 UNK        -0.1972 
     74 N         -47.8357  -24.1574    5.9695 N.am      3 UNK        -0.4305 
     75 C         -46.6004  -24.1903    5.4449 C.2       2 UNK         0.5006 
     76 O         -45.6485  -23.5430    5.8820 O.2       2 UNK        -0.5106 
     77 CA        -46.3893  -25.2086    4.3167 C.3       2 UNK         0.0296 
     78 CB        -44.9296  -25.2951    3.8320 C.3       2 UNK        -0.2002 
     79 N         -46.8113  -26.5012    4.8400 N.am      2 UNK        -0.4032 
     80 C         -47.5651  -27.4145    4.2264 C.2       1 UNK         0.5000 
     81 O         -47.8780  -27.3585    3.0357 O.2       1 UNK        -0.5238 
     82 H82       -45.3009  -30.6321    7.2310 H         1 UNK         0.0889 
     83 H83       -45.2053  -29.5157    8.5935 H         1 UNK         0.0889 
     84 H84       -44.2196  -29.2352    7.1589 H         1 UNK         0.0889 
     85 H85       -46.7204  -30.1452    5.5301 H         1 UNK         0.3028 
     86 H86       -48.4149  -29.3567    4.4184 H         1 UNK         0.0864 
     87 H87       -49.0311  -27.3083    6.6197 H         1 UNK         0.0720 
     88 H88       -49.5075  -28.9799    6.6885 H         1 UNK         0.0720 
     89 H89       -51.5477  -29.9231    5.8123 H         1 UNK         0.0814 
     90 H90       -52.8078  -29.0394    4.9926 H         1 UNK         0.0814 
     91 H91       -52.9178  -26.4414    6.3931 H         1 UNK         0.1469 
     92 H92       -54.3839  -27.3738   10.3055 H         1 UNK         0.1381 
     93 H93       -52.4574  -30.4046    7.9560 H         1 UNK         0.1206 
     94 H94       -54.7019  -30.4010   10.2402 H         1 UNK         0.0813 
     95 H95       -53.0254  -30.9015   10.2065 H         1 UNK         0.0813 
     96 H96       -53.4093  -30.9070   13.9267 H         1 UNK         0.0638 
     97 H97       -53.6914  -31.7656   12.4392 H         1 UNK         0.0638 
     98 H98       -56.0132  -30.7620   12.3310 H         1 UNK         0.0568 
     99 H99       -57.4348  -33.1363   14.9774 H         1 UNK         0.3450 
    100 H100      -57.5462  -31.3949   14.9169 H         1 UNK         0.3450 
    101 H101      -56.4686  -28.9841   13.5527 H         1 UNK         0.2987 
    102 H102      -57.2490  -28.0445   15.6412 H         1 UNK         0.0766 
    103 H103      -56.4577  -27.0169   17.7764 H         1 UNK         0.0798 
    104 H104      -55.0377  -28.0602   17.7574 H         1 UNK         0.0798 
    105 H105      -56.6395  -28.7597   17.9049 H         1 UNK         0.0798 
    106 H106      -54.7200  -26.5553   15.7601 H         1 UNK         0.3198 
    107 H107      -54.5138  -25.6391   12.6215 H         1 UNK         0.0843 
    108 H108      -56.5307  -23.6782   13.8351 H         1 UNK         0.0831 
    109 H109      -56.6425  -24.4474   12.2599 H         1 UNK         0.0831 
    110 H110      -55.3615  -23.2906   12.5711 H         1 UNK         0.0831 
    111 H111      -53.0201  -24.8495   13.9998 H         1 UNK         0.3133 
    112 H112      -52.2640  -23.0226   15.7823 H         1 UNK         0.0566 
    113 H113      -51.9217  -23.3191   18.2462 H         1 UNK         0.0814 
    114 H114      -53.4909  -22.6146   17.8923 H         1 UNK         0.0814 
    115 H115      -53.3769  -24.3110   18.3351 H         1 UNK         0.0814 
    116 H116      -50.9328  -24.7785   15.6075 H         1 UNK         0.3091 
    117 H117      -50.7232  -27.9591   16.8208 H         1 UNK         0.0702 
    118 H118      -52.5318  -28.7300   15.3008 H         1 UNK         0.0785 
    119 H119      -50.9647  -29.0185   14.5643 H         1 UNK         0.0785 
    120 H120      -51.9530  -27.6609   14.0305 H         1 UNK         0.0785 
    121 H121      -49.7018  -26.7401   14.3818 H         1 UNK         0.2998 
    122 H122      -47.0106  -25.0532   16.0616 H         1 UNK         0.0697 
    123 H123      -47.0947  -27.3964   14.0869 H         1 UNK         0.0825 
    124 H124      -46.2674  -27.4090   15.6394 H         1 UNK         0.0825 
    125 H125      -45.7265  -26.3225   14.3698 H         1 UNK         0.0825 
    126 H126      -47.6659  -25.0701   13.3223 H         1 UNK         0.3029 
    127 H127      -49.9287  -22.2605   13.3681 H         1 UNK         0.0897 
    128 H128      -48.2410  -21.5402   11.7036 H         1 UNK         0.0792 
    129 H129      -47.5580  -21.4546   13.3205 H         1 UNK         0.0792 
    130 H130      -47.1189  -22.7815   12.2523 H         1 UNK         0.0792 
    131 H131      -49.1110  -23.8633   11.1909 H         1 UNK         0.3086 
    132 H132      -51.7801  -26.2563   11.2987 H         1 UNK         0.0583 
    133 H133      -51.1670  -23.7498    9.6529 H         1 UNK         0.1020 
    134 H134      -51.4754  -25.2490    8.8439 H         1 UNK         0.1020 
    135 H135      -55.2368  -25.3025    8.6216 H         1 UNK         0.0694 
    136 H136      -53.9060  -24.7207    7.6518 H         1 UNK         0.0694 
    137 H137      -49.4426  -26.0597    9.6893 H         1 UNK         0.2989 
    138 H138      -47.3647  -28.1617   11.6381 H         1 UNK         0.1055 
    139 H139      -48.9517  -29.6938   10.4083 H         1 UNK         0.0806 
    140 H140      -47.3976  -29.5478    9.6135 H         1 UNK         0.0806 
    141 H141      -48.7998  -28.6817    8.9803 H         1 UNK         0.0806 
    142 H142      -46.9731  -26.9872    9.0675 H         1 UNK         0.3061 
    143 H143      -45.6014  -23.8788   10.2992 H         1 UNK         0.0734 
    144 H144      -43.8383  -24.6462    8.7530 H         1 UNK         0.0832 
    145 H145      -43.8546  -25.6722   10.1778 H         1 UNK         0.0832 
    146 H146      -44.5512  -26.2561    8.6733 H         1 UNK         0.0832 
    147 H147      -46.0322  -24.3948    7.6475 H         1 UNK         0.3156 
    148 H148      -49.4045  -23.6194    7.1744 H         1 UNK         0.0589 
    149 H149      -47.1385  -21.5773    6.8968 H         1 UNK         0.0808 
    150 H150      -48.6551  -21.5600    5.9970 H         1 UNK         0.0808 
    151 H151      -48.6592  -21.3339    7.7385 H         1 UNK         0.0808 
    152 H152      -48.5210  -24.7654    5.5422 H         1 UNK         0.3098 
    153 H153      -47.0250  -24.9100    3.4804 H         1 UNK         0.0720 
    154 H154      -44.8237  -26.0249    3.0292 H         1 UNK         0.0791 
    155 H155      -44.2534  -25.5839    4.6376 H         1 UNK         0.0791 
    156 H156      -44.5890  -24.3340    3.4448 H         1 UNK         0.0791 
    157 H157      -46.6119  -26.6735    5.8251 H         1 UNK         0.3028 
@<TRIPOS>BOND
     1    1    2 1    
     2    1   82 1    
     3    1   83 1    
     4    1   84 1    
     5    2    3 2    
     6    2    4 am   BACKBONE|DICT|INTERRES
     7    4    5 1    
     8    4   85 1    
     9    5    6 1    
    10    5   80 1    
    11    5   86 1    
    12    6    7 1    
    13    6   87 1    
    14    6   88 1    
    15    7    8 1    
    16    8    9 1    
    17    8   89 1    
    18    8   90 1    
    19    9   10 ar   
    20    9   14 ar   
    21   10   11 ar   
    22   10   91 1    
    23   11   12 ar   
    24   11   58 1    
    25   12   13 ar   
    26   12   92 1    
    27   13   14 ar   
    28   13   15 1    
    29   14   93 1    
    30   15   16 1    
    31   15   94 1    
    32   15   95 1    
    33   16   17 1    
    34   17   18 1    
    35   17   96 1    
    36   17   97 1    
    37   18   19 1    
    38   18   22 1    
    39   18   98 1    
    40   19   20 am   BACKBONE|DICT|INTERRES
    41   19   21 2    
    42   20   99 1    
    43   20  100 1    
    44   22   23 am   BACKBONE|DICT|INTERRES
    45   22  101 1    
    46   23   24 2    
    47   23   25 1    
    48   25   26 1    
    49   25   27 1    
    50   25  102 1    
    51   26  103 1    
    52   26  104 1    
    53   26  105 1    
    54   27   28 am   BACKBONE|DICT|INTERRES
    55   27  106 1    
    56   28   29 2    
    57   28   30 1    
    58   30   31 1    
    59   30   32 1    
    60   30  107 1    
    61   31  108 1    
    62   31  109 1    
    63   31  110 1    
    64   32   33 am   BACKBONE|DICT|INTERRES
    65   32  111 1    
    66   33   34 2    
    67   33   35 1    
    68   35   36 1    
    69   35   37 1    
    70   35  112 1    
    71   36  113 1    
    72   36  114 1    
    73   36  115 1    
    74   37   38 am   BACKBONE|DICT|INTERRES
    75   37  116 1    
    76   38   39 2    
    77   38   40 1    
    78   40   41 1    
    79   40   42 1    
    80   40  117 1    
    81   41  118 1    
    82   41  119 1    
    83   41  120 1    
    84   42   43 am   BACKBONE|DICT|INTERRES
    85   42  121 1    
    86   43   44 2    
    87   43   45 1    
    88   45   46 1    
    89   45   47 1    
    90   45  122 1    
    91   46  123 1    
    92   46  124 1    
    93   46  125 1    
    94   47   48 am   BACKBONE|DICT|INTERRES
    95   47  126 1    
    96   48   49 2    
    97   48   50 1    
    98   50   51 1    
    99   50   52 1    
   100   50  127 1    
   101   51  128 1    
   102   51  129 1    
   103   51  130 1    
   104   52   53 am   BACKBONE|DICT|INTERRES
   105   52  131 1    
   106   53   54 2    
   107   53   55 1    
   108   55   56 1    
   109   55   59 1    
   110   55  132 1    
   111   56   57 1    
   112   56  133 1    
   113   56  134 1    
   114   57   58 1    
   115   58  135 1    
   116   58  136 1    
   117   59   60 am   BACKBONE|DICT|INTERRES
   118   59  137 1    
   119   60   61 2    
   120   60   62 1    
   121   62   63 1    
   122   62   64 1    
   123   62  138 1    
   124   63  139 1    
   125   63  140 1    
   126   63  141 1    
   127   64   65 am   BACKBONE|DICT|INTERRES
   128   64  142 1    
   129   65   66 2    
   130   65   67 1    
   131   67   68 1    
   132   67   69 1    
   133   67  143 1    
   134   68  144 1    
   135   68  145 1    
   136   68  146 1    
   137   69   70 am   BACKBONE|DICT|INTERRES
   138   69  147 1    
   139   70   71 2    
   140   70   72 1    
   141   72   73 1    
   142   72   74 1    
   143   72  148 1    
   144   73  149 1    
   145   73  150 1    
   146   73  151 1    
   147   74   75 am   BACKBONE|DICT|INTERRES
   148   74  152 1    
   149   75   76 2    
   150   75   77 1    
   151   77   78 1    
   152   77   79 1    
   153   77  153 1    
   154   78  154 1    
   155   78  155 1    
   156   78  156 1    
   157   79   80 am   BACKBONE|DICT|INTERRES
   158   79  157 1    
   159   80   81 2    
@<TRIPOS>SUBSTRUCTURE
     1 UNK         1 GROUP             0       ****    0 ROOT    
