@<TRIPOS>MOLECULE
3R207
157   159    1
SMALL
USER_CHARGES


@<TRIPOS>ATOM
      1 CA        -44.1275  -29.0762    7.0911 C.3       0 UNK        -0.1975 
      2 C         -45.1377  -29.1941    5.9597 C.2       0 UNK         0.4852 
      3 O         -44.8127  -28.8862    4.8130 O.2       0 UNK        -0.5216 
      4 N         -46.3659  -29.6281    6.2743 N.am      1 UNK        -0.4461 
      5 CA        -47.4748  -29.8053    5.3260 C.3       1 UNK         0.0864 
      6 C6        -48.4678  -30.8888    5.8237 C.3       14 UNK        -0.0898 
      7 S7        -49.3646  -30.4310    7.3497 S.3       14 UNK        -0.2598 
      8 C8        -51.0659  -30.2698    6.7220 C.3       14 UNK         0.0286 
      9 C9        -51.8354  -29.2039    7.4834 C.ar      14 UNK        -0.0844 
     10 C10       -51.8701  -27.8936    6.9995 C.ar      14 UNK        -0.0881 
     11 C11       -52.5859  -26.9037    7.6786 C.ar      14 UNK        -0.0643 
     12 C12       -53.2673  -27.2314    8.8539 C.ar      14 UNK        -0.0930 
     13 C13       -53.2390  -28.5399    9.3472 C.ar      14 UNK        -0.0827 
     14 C14       -52.5229  -29.5235    8.6577 C.ar      14 UNK        -0.1249 
     15 C15       -53.9650  -28.8818   10.6368 C.3       14 UNK         0.0141 
     16 S16       -55.7451  -29.1421   10.3630 S.3       14 UNK        -0.2313 
     17 C17       -56.2780  -29.7666   11.9954 C.3       14 UNK        -0.0915 
     18 CA        -56.0678  -28.7583   13.1599 C.3       13 UNK         0.0968 
     19 C         -56.9409  -27.4858   13.0610 C.2       13 UNK         0.5732 
     20 N         -56.3366  -26.3106   13.1518 N.am      13 UNK        -0.7310 
     21 O         -58.1583  -27.5619   12.9085 O.2       13 UNK        -0.5035 
     22 N         -56.2689  -29.3561   14.4776 N.am      13 UNK        -0.4233 
     23 C         -55.4048  -30.1621   15.0982 C.2       13 UNK         0.4989 
     24 O         -54.3812  -30.6094   14.5788 O.2       13 UNK        -0.4996 
     25 CA        -55.7132  -30.4644   16.5742 C.3       12 UNK         0.0216 
     26 CB        -54.9290  -31.6795   17.1048 C.3       12 UNK        -0.1964 
     27 N         -55.4012  -29.2973   17.4019 N.am      12 UNK        -0.4276 
     28 C         -56.1699  -28.2061   17.5183 C.2       12 UNK         0.5020 
     29 O         -57.2635  -28.0806   16.9647 O.2       12 UNK        -0.5489 
     30 CA        -55.6121  -27.0605   18.3744 C.3       11 UNK         0.0294 
     31 CB        -55.0430  -27.5498   19.7203 C.3       11 UNK        -0.2019 
     32 N         -54.5777  -26.3353   17.6356 N.am      11 UNK        -0.4493 
     33 C         -54.8071  -25.2894   16.8289 C.2       11 UNK         0.4932 
     34 O         -55.9198  -24.7996   16.6352 O.2       11 UNK        -0.5029 
     35 CA        -53.5835  -24.6654   16.1358 C.3       10 UNK         0.0280 
     36 CB        -52.9514  -23.5864   17.0292 C.3       10 UNK        -0.1976 
     37 N         -52.5650  -25.6537   15.7761 N.am      10 UNK        -0.4242 
     38 C         -52.6583  -26.4987   14.7421 C.2       10 UNK         0.5072 
     39 O         -53.6183  -26.5201   13.9705 O.2       10 UNK        -0.5224 
     40 CA        -51.4794  -27.4722   14.5422 C.3       9 UNK         0.0343 
     41 CB        -51.6694  -28.3943   13.3259 C.3       9 UNK        -0.2003 
     42 N         -50.2040  -26.7662   14.4016 N.am      9 UNK        -0.4272 
     43 C         -49.4817  -26.2708   15.4154 C.2       9 UNK         0.4988 
     44 O         -49.8214  -26.3572   16.5968 O.2       9 UNK        -0.5108 
     45 CA        -48.1871  -25.5274   15.0516 C.3       8 UNK         0.0248 
     46 CB        -47.0942  -26.5137   14.6083 C.3       8 UNK        -0.2001 
     47 N         -48.3975  -24.5158   14.0140 N.am      8 UNK        -0.4140 
     48 C         -49.1290  -23.4025   14.1736 C.2       8 UNK         0.5028 
     49 O         -49.6512  -23.0707   15.2382 O.2       8 UNK        -0.5428 
     50 CA        -49.3209  -22.5078   12.9369 C.3       7 UNK         0.0264 
     51 CB        -48.1070  -21.5879   12.7306 C.3       7 UNK        -0.1988 
     52 N         -49.5708  -23.2750   11.7155 N.am      7 UNK        -0.4454 
     53 C         -50.6689  -24.0138   11.4897 C.2       7 UNK         0.5027 
     54 O         -51.6245  -24.0805   12.2619 O.2       7 UNK        -0.5083 
     55 CA        -50.6934  -24.8176   10.1753 C.3       6 UNK         0.0844 
     56 C56       -51.2181  -23.9200    9.0235 C.3       14 UNK        -0.0967 
     57 S57       -51.0461  -24.6338    7.3541 S.3       14 UNK        -0.2604 
     58 C58       -52.6322  -25.4902    7.1219 C.3       14 UNK         0.0134 
     59 N         -49.3844  -25.4175    9.9026 N.am      6 UNK        -0.4116 
     60 C         -48.8150  -26.3793   10.6438 C.2       5 UNK         0.5034 
     61 O         -49.3367  -26.8873   11.6350 O.2       5 UNK        -0.5045 
     62 CA        -47.3928  -26.8051   10.2496 C.3       5 UNK         0.0224 
     63 CB        -47.4312  -27.8434    9.1220 C.3       5 UNK        -0.1978 
     64 N         -46.5614  -25.6662    9.8538 N.am      5 UNK        -0.4737 
     65 C         -46.1738  -24.7034   10.7037 C.2       4 UNK         0.5027 
     66 O         -46.4287  -24.7157   11.9068 O.2       4 UNK        -0.5211 
     67 CA        -45.4240  -23.4982   10.1131 C.3       4 UNK         0.0297 
     68 CB        -43.9075  -23.7408   10.1508 C.3       4 UNK        -0.1993 
     69 N         -45.8318  -23.1698    8.7457 N.am      4 UNK        -0.4486 
     70 C         -47.0753  -22.8533    8.3588 C.2       3 UNK         0.4961 
     71 O         -48.0327  -22.7730    9.1300 O.2       3 UNK        -0.5105 
     72 CA        -47.2944  -22.6139    6.8541 C.3       3 UNK         0.0299 
     73 CB        -46.0184  -22.1585    6.1106 C.3       3 UNK        -0.1972 
     74 N         -47.8885  -23.7687    6.1689 N.am      3 UNK        -0.4305 
     75 C         -47.4450  -25.0349    6.1487 C.2       2 UNK         0.5006 
     76 O         -46.4961  -25.4553    6.8199 O.2       2 UNK        -0.5106 
     77 CA        -48.1703  -25.9847    5.1832 C.3       2 UNK         0.0296 
     78 CB        -47.9133  -25.5696    3.7184 C.3       2 UNK        -0.2002 
     79 N         -47.6844  -27.3402    5.4214 N.am      2 UNK        -0.4032 
     80 C         -48.1774  -28.4820    4.9247 C.2       1 UNK         0.5000 
     81 O         -49.1543  -28.5259    4.1740 O.2       1 UNK        -0.5238 
     82 H82       -44.4794  -29.5570    8.0037 H         1 UNK         0.0889 
     83 H83       -43.9319  -28.0267    7.3103 H         1 UNK         0.0889 
     84 H84       -43.1869  -29.5466    6.8058 H         1 UNK         0.0889 
     85 H85       -46.5822  -29.8728    7.2304 H         1 UNK         0.3028 
     86 H86       -47.0438  -30.1880    4.3981 H         1 UNK         0.0864 
     87 H87       -49.1746  -31.1452    5.0328 H         1 UNK         0.0720 
     88 H88       -47.9246  -31.8136    6.0246 H         1 UNK         0.0720 
     89 H89       -51.5718  -31.2333    6.7996 H         1 UNK         0.0814 
     90 H90       -51.0571  -30.0147    5.6612 H         1 UNK         0.0814 
     91 H91       -51.3380  -27.6416    6.0916 H         1 UNK         0.1469 
     92 H92       -53.8227  -26.4706    9.3854 H         1 UNK         0.1381 
     93 H93       -52.4963  -30.5364    9.0359 H         1 UNK         0.1206 
     94 H94       -53.5292  -29.7690   11.0994 H         1 UNK         0.0813 
     95 H95       -53.8255  -28.0588   11.3371 H         1 UNK         0.0813 
     96 H96       -55.7230  -30.6860   12.1865 H         1 UNK         0.0638 
     97 H97       -57.3268  -30.0604   11.9295 H         1 UNK         0.0638 
     98 H98       -55.0265  -28.4458   13.1400 H         1 UNK         0.0568 
     99 H99       -55.3375  -26.2677   13.3450 H         1 UNK         0.3450 
    100 H100      -56.8800  -25.4647   13.0981 H         1 UNK         0.3450 
    101 H101      -57.0358  -28.9677   15.0171 H         1 UNK         0.2987 
    102 H102      -56.7784  -30.6919   16.6577 H         1 UNK         0.0766 
    103 H103      -53.8512  -31.5135   17.0778 H         1 UNK         0.0798 
    104 H104      -55.2066  -31.9118   18.1331 H         1 UNK         0.0798 
    105 H105      -55.1365  -32.5675   16.5061 H         1 UNK         0.0798 
    106 H106      -54.5065  -29.3074   17.8689 H         1 UNK         0.3198 
    107 H107      -56.4431  -26.3871   18.5976 H         1 UNK         0.0843 
    108 H108      -55.7746  -28.1563   20.2563 H         1 UNK         0.0831 
    109 H109      -54.7931  -26.7074   20.3656 H         1 UNK         0.0831 
    110 H110      -54.1408  -28.1504   19.6026 H         1 UNK         0.0831 
    111 H111      -53.6291  -26.6692   17.7222 H         1 UNK         0.3133 
    112 H112      -53.9301  -24.1825   15.2194 H         1 UNK         0.0566 
    113 H113      -53.6841  -22.8245   17.2991 H         1 UNK         0.0814 
    114 H114      -52.1330  -23.0796   16.5172 H         1 UNK         0.0814 
    115 H115      -52.5584  -24.0052   17.9565 H         1 UNK         0.0814 
    116 H116      -51.7173  -25.6843   16.3339 H         1 UNK         0.3091 
    117 H117      -51.4352  -28.1078   15.4290 H         1 UNK         0.0702 
    118 H118      -51.7304  -27.8230   12.3992 H         1 UNK         0.0785 
    119 H119      -52.5840  -28.9797   13.4171 H         1 UNK         0.0785 
    120 H120      -50.8433  -29.0985   13.2281 H         1 UNK         0.0785 
    121 H121      -49.8639  -26.6501   13.4496 H         1 UNK         0.2998 
    122 H122      -47.8345  -25.0154   15.9494 H         1 UNK         0.0697 
    123 H123      -47.3650  -27.0333   13.6886 H         1 UNK         0.0825 
    124 H124      -46.9175  -27.2714   15.3729 H         1 UNK         0.0825 
    125 H125      -46.1475  -26.0020   14.4341 H         1 UNK         0.0825 
    126 H126      -47.9243  -24.6673   13.1269 H         1 UNK         0.3029 
    127 H127      -50.1961  -21.8796   13.1172 H         1 UNK         0.0897 
    128 H128      -48.2463  -20.9310   11.8717 H         1 UNK         0.0792 
    129 H129      -47.9492  -20.9530   13.6034 H         1 UNK         0.0792 
    130 H130      -47.1904  -22.1562   12.5734 H         1 UNK         0.0792 
    131 H131      -48.8623  -23.2350   10.9895 H         1 UNK         0.3086 
    132 H132      -51.3982  -25.6403   10.3093 H         1 UNK         0.0583 
    133 H133      -52.2636  -23.6595    9.1982 H         1 UNK         0.1020 
    134 H134      -50.6824  -22.9687    9.0054 H         1 UNK         0.1020 
    135 H135      -53.4441  -24.9142    7.5681 H         1 UNK         0.0694 
    136 H136      -52.8475  -25.5378    6.0535 H         1 UNK         0.0694 
    137 H137      -48.8642  -25.0131    9.1376 H         1 UNK         0.2989 
    138 H138      -46.9311  -27.2695   11.1240 H         1 UNK         0.1055 
    139 H139      -47.9571  -28.7419    9.4474 H         1 UNK         0.0806 
    140 H140      -46.4259  -28.1411    8.8287 H         1 UNK         0.0806 
    141 H141      -47.9495  -27.4663    8.2404 H         1 UNK         0.0806 
    142 H142      -46.3414  -25.5673    8.8670 H         1 UNK         0.3061 
    143 H143      -45.6487  -22.6321   10.7382 H         1 UNK         0.0734 
    144 H144      -43.5749  -23.9664   11.1652 H         1 UNK         0.0832 
    145 H145      -43.6165  -24.5807    9.5185 H         1 UNK         0.0832 
    146 H146      -43.3550  -22.8614    9.8195 H         1 UNK         0.0832 
    147 H147      -45.1252  -23.2522    8.0292 H         1 UNK         0.3156 
    148 H148      -48.0219  -21.8039    6.7814 H         1 UNK         0.0589 
    149 H149      -45.2721  -22.9506    6.0393 H         1 UNK         0.0808 
    150 H150      -46.2542  -21.8437    5.0939 H         1 UNK         0.0808 
    151 H151      -45.5542  -21.3050    6.6071 H         1 UNK         0.0808 
    152 H152      -48.7159  -23.5585    5.6279 H         1 UNK         0.3098 
    153 H153      -49.2398  -25.9555    5.3965 H         1 UNK         0.0720 
    154 H154      -48.4417  -26.2149    3.0169 H         1 UNK         0.0791 
    155 H155      -46.8513  -25.6105    3.4724 H         1 UNK         0.0791 
    156 H156      -48.2542  -24.5521    3.5250 H         1 UNK         0.0791 
    157 H157      -46.8824  -27.3768    6.0384 H         1 UNK         0.3028 
@<TRIPOS>BOND
     1    1    2 1    
     2    1   82 1    
     3    1   83 1    
     4    1   84 1    
     5    2    3 2    
     6    2    4 am   BACKBONE|DICT|INTERRES
     7    4    5 1    
     8    4   85 1    
     9    5    6 1    
    10    5   80 1    
    11    5   86 1    
    12    6    7 1    
    13    6   87 1    
    14    6   88 1    
    15    7    8 1    
    16    8    9 1    
    17    8   89 1    
    18    8   90 1    
    19    9   10 ar   
    20    9   14 ar   
    21   10   11 ar   
    22   10   91 1    
    23   11   12 ar   
    24   11   58 1    
    25   12   13 ar   
    26   12   92 1    
    27   13   14 ar   
    28   13   15 1    
    29   14   93 1    
    30   15   16 1    
    31   15   94 1    
    32   15   95 1    
    33   16   17 1    
    34   17   18 1    
    35   17   96 1    
    36   17   97 1    
    37   18   19 1    
    38   18   22 1    
    39   18   98 1    
    40   19   20 am   BACKBONE|DICT|INTERRES
    41   19   21 2    
    42   20   99 1    
    43   20  100 1    
    44   22   23 am   BACKBONE|DICT|INTERRES
    45   22  101 1    
    46   23   24 2    
    47   23   25 1    
    48   25   26 1    
    49   25   27 1    
    50   25  102 1    
    51   26  103 1    
    52   26  104 1    
    53   26  105 1    
    54   27   28 am   BACKBONE|DICT|INTERRES
    55   27  106 1    
    56   28   29 2    
    57   28   30 1    
    58   30   31 1    
    59   30   32 1    
    60   30  107 1    
    61   31  108 1    
    62   31  109 1    
    63   31  110 1    
    64   32   33 am   BACKBONE|DICT|INTERRES
    65   32  111 1    
    66   33   34 2    
    67   33   35 1    
    68   35   36 1    
    69   35   37 1    
    70   35  112 1    
    71   36  113 1    
    72   36  114 1    
    73   36  115 1    
    74   37   38 am   BACKBONE|DICT|INTERRES
    75   37  116 1    
    76   38   39 2    
    77   38   40 1    
    78   40   41 1    
    79   40   42 1    
    80   40  117 1    
    81   41  118 1    
    82   41  119 1    
    83   41  120 1    
    84   42   43 am   BACKBONE|DICT|INTERRES
    85   42  121 1    
    86   43   44 2    
    87   43   45 1    
    88   45   46 1    
    89   45   47 1    
    90   45  122 1    
    91   46  123 1    
    92   46  124 1    
    93   46  125 1    
    94   47   48 am   BACKBONE|DICT|INTERRES
    95   47  126 1    
    96   48   49 2    
    97   48   50 1    
    98   50   51 1    
    99   50   52 1    
   100   50  127 1    
   101   51  128 1    
   102   51  129 1    
   103   51  130 1    
   104   52   53 am   BACKBONE|DICT|INTERRES
   105   52  131 1    
   106   53   54 2    
   107   53   55 1    
   108   55   56 1    
   109   55   59 1    
   110   55  132 1    
   111   56   57 1    
   112   56  133 1    
   113   56  134 1    
   114   57   58 1    
   115   58  135 1    
   116   58  136 1    
   117   59   60 am   BACKBONE|DICT|INTERRES
   118   59  137 1    
   119   60   61 2    
   120   60   62 1    
   121   62   63 1    
   122   62   64 1    
   123   62  138 1    
   124   63  139 1    
   125   63  140 1    
   126   63  141 1    
   127   64   65 am   BACKBONE|DICT|INTERRES
   128   64  142 1    
   129   65   66 2    
   130   65   67 1    
   131   67   68 1    
   132   67   69 1    
   133   67  143 1    
   134   68  144 1    
   135   68  145 1    
   136   68  146 1    
   137   69   70 am   BACKBONE|DICT|INTERRES
   138   69  147 1    
   139   70   71 2    
   140   70   72 1    
   141   72   73 1    
   142   72   74 1    
   143   72  148 1    
   144   73  149 1    
   145   73  150 1    
   146   73  151 1    
   147   74   75 am   BACKBONE|DICT|INTERRES
   148   74  152 1    
   149   75   76 2    
   150   75   77 1    
   151   77   78 1    
   152   77   79 1    
   153   77  153 1    
   154   78  154 1    
   155   78  155 1    
   156   78  156 1    
   157   79   80 am   BACKBONE|DICT|INTERRES
   158   79  157 1    
   159   80   81 2    
@<TRIPOS>SUBSTRUCTURE
     1 UNK         1 GROUP             0       ****    0 ROOT    
