@<TRIPOS>MOLECULE
3R207
157   159    1
SMALL
USER_CHARGES


@<TRIPOS>ATOM
      1 CA        -49.4407  -30.6680    3.8044 C.3       0 UNK        -0.1975 
      2 C         -48.5700  -29.5005    4.2444 C.2       0 UNK         0.4852 
      3 O         -47.5827  -29.1882    3.5780 O.2       0 UNK        -0.5216 
      4 N         -48.9287  -28.8543    5.3623 N.am      1 UNK        -0.4461 
      5 CA        -48.1985  -27.7246    5.9520 C.3       1 UNK         0.0864 
      6 C6        -49.0676  -26.9315    6.9659 C.3       14 UNK        -0.0898 
      7 S7        -49.6825  -27.9285    8.3724 S.3       14 UNK        -0.2598 
      8 C8        -51.3838  -28.3176    7.8494 C.3       14 UNK         0.0286 
      9 C9        -52.3699  -27.2260    8.2352 C.ar      14 UNK        -0.0844 
     10 C10       -52.6937  -26.2042    7.3388 C.ar      14 UNK        -0.0881 
     11 C11       -53.6250  -25.2224    7.6896 C.ar      14 UNK        -0.0643 
     12 C12       -54.2562  -25.2843    8.9376 C.ar      14 UNK        -0.0930 
     13 C13       -53.9414  -26.3036    9.8432 C.ar      14 UNK        -0.0827 
     14 C14       -52.9892  -27.2624    9.4860 C.ar      14 UNK        -0.1249 
     15 C15       -54.6282  -26.3689   11.2026 C.3       14 UNK         0.0141 
     16 S16       -55.8251  -27.7373   11.2951 S.3       14 UNK        -0.2313 
     17 C17       -54.7552  -29.1370   11.7762 C.3       14 UNK        -0.0915 
     18 CA        -55.3996  -30.0318   12.8611 C.3       13 UNK         0.0968 
     19 C         -54.5222  -31.2785   13.1427 C.2       13 UNK         0.5732 
     20 N         -53.5249  -31.1907   14.0147 N.am      13 UNK        -0.7310 
     21 O         -54.7574  -32.3416   12.5732 O.2       13 UNK        -0.5035 
     22 N         -55.7007  -29.2848   14.0916 N.am      13 UNK        -0.4233 
     23 C         -56.8211  -29.4438   14.8068 C.2       13 UNK         0.4989 
     24 O         -57.7321  -30.2090   14.4850 O.2       13 UNK        -0.4996 
     25 CA        -56.9750  -28.6380   16.1096 C.3       12 UNK         0.0216 
     26 CB        -56.9630  -29.5792   17.3266 C.3       12 UNK        -0.1964 
     27 N         -55.9579  -27.6071   16.3145 N.am      12 UNK        -0.4276 
     28 C         -55.8759  -26.4262   15.6943 C.2       12 UNK         0.5020 
     29 O         -56.6537  -26.0668   14.8108 O.2       12 UNK        -0.5489 
     30 CA        -54.7434  -25.4742   16.1332 C.3       11 UNK         0.0294 
     31 CB        -55.2042  -24.5781   17.2983 C.3       11 UNK        -0.2019 
     32 N         -53.4497  -26.1121   16.4367 N.am      11 UNK        -0.4493 
     33 C         -53.1470  -27.0167   17.3820 C.2       11 UNK         0.4932 
     34 O         -53.9659  -27.4355   18.2021 O.2       11 UNK        -0.5029 
     35 CA        -51.7074  -27.5713   17.4169 C.3       10 UNK         0.0280 
     36 CB        -51.6524  -28.9985   18.0031 C.3       10 UNK        -0.1976 
     37 N         -50.9923  -27.5346   16.1357 N.am      10 UNK        -0.4242 
     38 C         -51.3435  -28.0873   14.9656 C.2       10 UNK         0.5072 
     39 O         -52.4210  -28.6576   14.7699 O.2       10 UNK        -0.5224 
     40 CA        -50.3071  -27.9590   13.8244 C.3       9 UNK         0.0343 
     41 CB        -50.7916  -28.5995   12.5126 C.3       9 UNK        -0.2003 
     42 N         -49.9524  -26.5634   13.5538 N.am      9 UNK        -0.4272 
     43 C         -49.1894  -25.7732   14.3232 C.2       9 UNK         0.4988 
     44 O         -48.5788  -26.1757   15.3142 O.2       9 UNK        -0.5108 
     45 CA        -49.1580  -24.2728   13.9755 C.3       8 UNK         0.0248 
     46 CB        -47.8996  -23.9210   13.1663 C.3       8 UNK        -0.2001 
     47 N         -50.3489  -23.8097   13.2536 N.am      8 UNK        -0.4140 
     48 C         -51.6081  -23.8612   13.7127 C.2       8 UNK         0.5028 
     49 O         -51.8988  -24.2881   14.8299 O.2       8 UNK        -0.5428 
     50 CA        -52.7507  -23.4392   12.7681 C.3       7 UNK         0.0264 
     51 CB        -53.3535  -22.0853   13.1910 C.3       7 UNK        -0.1988 
     52 N         -52.4182  -23.4679   11.3329 N.am      7 UNK        -0.4454 
     53 C         -51.5842  -22.6649   10.6580 C.2       7 UNK         0.5027 
     54 O         -50.9584  -21.7343   11.1703 O.2       7 UNK        -0.5083 
     55 CA        -51.4076  -22.9777    9.1602 C.3       6 UNK         0.0844 
     56 C56       -52.4941  -22.2609    8.3211 C.3       14 UNK        -0.0967 
     57 S57       -52.5562  -22.8964    6.6128 S.3       14 UNK        -0.2604 
     58 C58       -53.9332  -24.0889    6.7207 C.3       14 UNK         0.0134 
     59 N         -50.0514  -22.6333    8.7266 N.am      6 UNK        -0.4116 
     60 C         -48.9523  -23.2930    9.1110 C.2       5 UNK         0.5034 
     61 O         -48.9652  -24.3435    9.7590 O.2       5 UNK        -0.5045 
     62 CA        -47.6127  -22.6435    8.7530 C.3       5 UNK         0.0224 
     63 CB        -47.2808  -21.5101    9.7441 C.3       5 UNK        -0.1978 
     64 N         -46.5758  -23.6690    8.7936 N.am      5 UNK        -0.4737 
     65 C         -45.3557  -23.5776    8.2566 C.2       4 UNK         0.5027 
     66 O         -44.9518  -22.5739    7.6678 O.2       4 UNK        -0.5211 
     67 CA        -44.4366  -24.8106    8.3420 C.3       4 UNK         0.0297 
     68 CB        -43.0446  -24.4613    8.9098 C.3       4 UNK        -0.1993 
     69 N         -45.0290  -25.9753    9.0160 N.am      4 UNK        -0.4486 
     70 C         -45.2431  -26.1737   10.3275 C.2       3 UNK         0.4961 
     71 O         -44.9802  -25.3416   11.1950 O.2       3 UNK        -0.5105 
     72 CA        -45.8717  -27.5175   10.7591 C.3       3 UNK         0.0299 
     73 CB        -47.1936  -27.2914   11.5089 C.3       3 UNK        -0.1972 
     74 N         -46.1155  -28.4405    9.6480 N.am      3 UNK        -0.4305 
     75 C         -45.1798  -29.1856    9.0411 C.2       2 UNK         0.5006 
     76 O         -44.0102  -29.2552    9.4191 O.2       2 UNK        -0.5106 
     77 CA        -45.6069  -29.9541    7.7744 C.3       2 UNK         0.0296 
     78 CB        -45.8927  -31.4268    8.1099 C.3       2 UNK        -0.2002 
     79 N         -46.7712  -29.3836    7.0852 N.am      2 UNK        -0.4032 
     80 C         -46.8498  -28.1443    6.5732 C.2       1 UNK         0.5000 
     81 O         -45.9231  -27.3337    6.6100 O.2       1 UNK        -0.5238 
     82 H82       -48.8502  -31.5830    3.7672 H         1 UNK         0.0889 
     83 H83       -49.8427  -30.4812    2.8090 H         1 UNK         0.0889 
     84 H84       -50.2781  -30.8322    4.4824 H         1 UNK         0.0889 
     85 H85       -49.7467  -29.1575    5.8693 H         1 UNK         0.3028 
     86 H86       -47.9540  -27.0396    5.1369 H         1 UNK         0.0864 
     87 H87       -48.5026  -26.0902    7.3727 H         1 UNK         0.0720 
     88 H88       -49.9116  -26.4789    6.4464 H         1 UNK         0.0720 
     89 H89       -51.6817  -29.2568    8.3183 H         1 UNK         0.0814 
     90 H90       -51.4216  -28.4967    6.7746 H         1 UNK         0.0814 
     91 H91       -52.2194  -26.1637    6.3684 H         1 UNK         0.1469 
     92 H92       -54.9907  -24.5361    9.2034 H         1 UNK         0.1381 
     93 H93       -52.7428  -28.0604   10.1689 H         1 UNK         0.1206 
     94 H94       -55.1659  -25.4403   11.3998 H         1 UNK         0.0813 
     95 H95       -53.8866  -26.4632   11.9968 H         1 UNK         0.0813 
     96 H96       -53.8005  -28.7614   12.1407 H         1 UNK         0.0638 
     97 H97       -54.5398  -29.7158   10.8760 H         1 UNK         0.0638 
     98 H98       -56.3319  -30.4056   12.4331 H         1 UNK         0.0568 
     99 H99       -52.9661  -32.0066   14.2027 H         1 UNK         0.3450 
    100 H100      -53.2624  -30.2953   14.4176 H         1 UNK         0.3450 
    101 H101      -54.9773  -28.6699   14.4354 H         1 UNK         0.2987 
    102 H102      -57.9487  -28.1455   16.0668 H         1 UNK         0.0766 
    103 H103      -57.7381  -30.3424   17.2428 H         1 UNK         0.0798 
    104 H104      -57.1481  -29.0337   18.2522 H         1 UNK         0.0798 
    105 H105      -56.0065  -30.0943   17.4267 H         1 UNK         0.0798 
    106 H106      -55.2764  -27.7719   17.0545 H         1 UNK         0.3198 
    107 H107      -54.5509  -24.8214   15.2805 H         1 UNK         0.0843 
    108 H108      -55.4180  -25.1552   18.1984 H         1 UNK         0.0831 
    109 H109      -56.1148  -24.0375   17.0366 H         1 UNK         0.0831 
    110 H110      -54.4470  -23.8347   17.5477 H         1 UNK         0.0831 
    111 H111      -52.6920  -25.7922   15.8383 H         1 UNK         0.3133 
    112 H112      -51.1521  -26.9157   18.0888 H         1 UNK         0.0566 
    113 H113      -50.6289  -29.3705   18.0483 H         1 UNK         0.0814 
    114 H114      -52.2381  -29.7000   17.4075 H         1 UNK         0.0814 
    115 H115      -52.0471  -29.0249   19.0195 H         1 UNK         0.0814 
    116 H116      -50.0971  -27.0521   16.1472 H         1 UNK         0.3091 
    117 H117      -49.4093  -28.4912   14.1450 H         1 UNK         0.0702 
    118 H118      -50.0145  -28.5911   11.7488 H         1 UNK         0.0785 
    119 H119      -51.6493  -28.0616   12.1158 H         1 UNK         0.0785 
    120 H120      -51.0888  -29.6386   12.6613 H         1 UNK         0.0785 
    121 H121      -50.4156  -26.1333   12.7674 H         1 UNK         0.2998 
    122 H122      -49.1182  -23.7269   14.9202 H         1 UNK         0.0697 
    123 H123      -47.9033  -24.3919   12.1835 H         1 UNK         0.0825 
    124 H124      -46.9961  -24.2521   13.6805 H         1 UNK         0.0825 
    125 H125      -47.8111  -22.8446   13.0206 H         1 UNK         0.0825 
    126 H126      -50.1992  -23.3909   12.3445 H         1 UNK         0.3029 
    127 H127      -53.5324  -24.1871   12.9031 H         1 UNK         0.0897 
    128 H128      -52.6231  -21.2773   13.1447 H         1 UNK         0.0792 
    129 H129      -53.7180  -22.1285   14.2184 H         1 UNK         0.0792 
    130 H130      -54.1988  -21.8120   12.5595 H         1 UNK         0.0792 
    131 H131      -52.8462  -24.2216   10.8115 H         1 UNK         0.3086 
    132 H132      -51.5204  -24.0567    9.0381 H         1 UNK         0.0583 
    133 H133      -53.4829  -22.3746    8.7699 H         1 UNK         0.1020 
    134 H134      -52.3089  -21.1855    8.2890 H         1 UNK         0.1020 
    135 H135      -54.8454  -23.5647    7.0102 H         1 UNK         0.0694 
    136 H136      -54.1209  -24.5027    5.7290 H         1 UNK         0.0694 
    137 H137      -49.9545  -21.7673    8.2182 H         1 UNK         0.2989 
    138 H138      -47.6778  -22.2443    7.7383 H         1 UNK         0.1055 
    139 H139      -46.3577  -20.9977    9.4733 H         1 UNK         0.0806 
    140 H140      -47.1656  -21.8892   10.7601 H         1 UNK         0.0806 
    141 H141      -48.0704  -20.7579    9.7651 H         1 UNK         0.0806 
    142 H142      -46.8571  -24.5269    9.2524 H         1 UNK         0.3061 
    143 H143      -44.2876  -25.1296    7.3093 H         1 UNK         0.0734 
    144 H144      -43.1068  -24.0428    9.9145 H         1 UNK         0.0832 
    145 H145      -42.3987  -25.3384    8.9482 H         1 UNK         0.0832 
    146 H146      -42.5452  -23.7196    8.2854 H         1 UNK         0.0832 
    147 H147      -45.3248  -26.7033    8.3716 H         1 UNK         0.3156 
    148 H148      -45.1713  -27.9894   11.4513 H         1 UNK         0.0589 
    149 H149      -47.6237  -28.2343   11.8456 H         1 UNK         0.0808 
    150 H150      -47.9338  -26.7823   10.8896 H         1 UNK         0.0808 
    151 H151      -47.0321  -26.6824   12.3982 H         1 UNK         0.0808 
    152 H152      -47.0546  -28.4562    9.2750 H         1 UNK         0.3098 
    153 H153      -44.7668  -29.9178    7.0779 H         1 UNK         0.0720 
    154 H154      -45.0339  -31.8899    8.5982 H         1 UNK         0.0791 
    155 H155      -46.1016  -32.0064    7.2105 H         1 UNK         0.0791 
    156 H156      -46.7448  -31.5298    8.7832 H         1 UNK         0.0791 
    157 H157      -47.5872  -29.9734    7.0125 H         1 UNK         0.3028 
@<TRIPOS>BOND
     1    1    2 1    
     2    1   82 1    
     3    1   83 1    
     4    1   84 1    
     5    2    3 2    
     6    2    4 am   BACKBONE|DICT|INTERRES
     7    4    5 1    
     8    4   85 1    
     9    5    6 1    
    10    5   80 1    
    11    5   86 1    
    12    6    7 1    
    13    6   87 1    
    14    6   88 1    
    15    7    8 1    
    16    8    9 1    
    17    8   89 1    
    18    8   90 1    
    19    9   10 ar   
    20    9   14 ar   
    21   10   11 ar   
    22   10   91 1    
    23   11   12 ar   
    24   11   58 1    
    25   12   13 ar   
    26   12   92 1    
    27   13   14 ar   
    28   13   15 1    
    29   14   93 1    
    30   15   16 1    
    31   15   94 1    
    32   15   95 1    
    33   16   17 1    
    34   17   18 1    
    35   17   96 1    
    36   17   97 1    
    37   18   19 1    
    38   18   22 1    
    39   18   98 1    
    40   19   20 am   BACKBONE|DICT|INTERRES
    41   19   21 2    
    42   20   99 1    
    43   20  100 1    
    44   22   23 am   BACKBONE|DICT|INTERRES
    45   22  101 1    
    46   23   24 2    
    47   23   25 1    
    48   25   26 1    
    49   25   27 1    
    50   25  102 1    
    51   26  103 1    
    52   26  104 1    
    53   26  105 1    
    54   27   28 am   BACKBONE|DICT|INTERRES
    55   27  106 1    
    56   28   29 2    
    57   28   30 1    
    58   30   31 1    
    59   30   32 1    
    60   30  107 1    
    61   31  108 1    
    62   31  109 1    
    63   31  110 1    
    64   32   33 am   BACKBONE|DICT|INTERRES
    65   32  111 1    
    66   33   34 2    
    67   33   35 1    
    68   35   36 1    
    69   35   37 1    
    70   35  112 1    
    71   36  113 1    
    72   36  114 1    
    73   36  115 1    
    74   37   38 am   BACKBONE|DICT|INTERRES
    75   37  116 1    
    76   38   39 2    
    77   38   40 1    
    78   40   41 1    
    79   40   42 1    
    80   40  117 1    
    81   41  118 1    
    82   41  119 1    
    83   41  120 1    
    84   42   43 am   BACKBONE|DICT|INTERRES
    85   42  121 1    
    86   43   44 2    
    87   43   45 1    
    88   45   46 1    
    89   45   47 1    
    90   45  122 1    
    91   46  123 1    
    92   46  124 1    
    93   46  125 1    
    94   47   48 am   BACKBONE|DICT|INTERRES
    95   47  126 1    
    96   48   49 2    
    97   48   50 1    
    98   50   51 1    
    99   50   52 1    
   100   50  127 1    
   101   51  128 1    
   102   51  129 1    
   103   51  130 1    
   104   52   53 am   BACKBONE|DICT|INTERRES
   105   52  131 1    
   106   53   54 2    
   107   53   55 1    
   108   55   56 1    
   109   55   59 1    
   110   55  132 1    
   111   56   57 1    
   112   56  133 1    
   113   56  134 1    
   114   57   58 1    
   115   58  135 1    
   116   58  136 1    
   117   59   60 am   BACKBONE|DICT|INTERRES
   118   59  137 1    
   119   60   61 2    
   120   60   62 1    
   121   62   63 1    
   122   62   64 1    
   123   62  138 1    
   124   63  139 1    
   125   63  140 1    
   126   63  141 1    
   127   64   65 am   BACKBONE|DICT|INTERRES
   128   64  142 1    
   129   65   66 2    
   130   65   67 1    
   131   67   68 1    
   132   67   69 1    
   133   67  143 1    
   134   68  144 1    
   135   68  145 1    
   136   68  146 1    
   137   69   70 am   BACKBONE|DICT|INTERRES
   138   69  147 1    
   139   70   71 2    
   140   70   72 1    
   141   72   73 1    
   142   72   74 1    
   143   72  148 1    
   144   73  149 1    
   145   73  150 1    
   146   73  151 1    
   147   74   75 am   BACKBONE|DICT|INTERRES
   148   74  152 1    
   149   75   76 2    
   150   75   77 1    
   151   77   78 1    
   152   77   79 1    
   153   77  153 1    
   154   78  154 1    
   155   78  155 1    
   156   78  156 1    
   157   79   80 am   BACKBONE|DICT|INTERRES
   158   79  157 1    
   159   80   81 2    
@<TRIPOS>SUBSTRUCTURE
     1 UNK         1 GROUP             0       ****    0 ROOT    
