@<TRIPOS>MOLECULE
3R207
157   159    1
SMALL
USER_CHARGES


@<TRIPOS>ATOM
      1 CA        -46.6898  -33.1164    6.6401 C.3       0 UNK        -0.1975 
      2 C         -47.0008  -31.7934    5.9553 C.2       0 UNK         0.4852 
      3 O         -46.1861  -31.3046    5.1706 O.2       0 UNK        -0.5216 
      4 N         -48.1763  -31.2184    6.2374 N.am      1 UNK        -0.4461 
      5 CA        -48.6203  -29.9216    5.7158 C.3       1 UNK         0.0864 
      6 C6        -50.1437  -29.7188    5.8953 C.3       14 UNK        -0.0898 
      7 S7        -51.1812  -31.0308    5.1577 S.3       14 UNK        -0.2598 
      8 C8        -52.7928  -30.1857    4.9762 C.3       14 UNK         0.0286 
      9 C9        -53.3143  -29.6640    6.3091 C.ar      14 UNK        -0.0844 
     10 C10       -52.9346  -28.3917    6.7465 C.ar      14 UNK        -0.0881 
     11 C11       -53.2938  -27.9435    8.0161 C.ar      14 UNK        -0.0643 
     12 C12       -54.1020  -28.7420    8.8249 C.ar      14 UNK        -0.0930 
     13 C13       -54.5395  -29.9908    8.3803 C.ar      14 UNK        -0.0827 
     14 C14       -54.1357  -30.4553    7.1225 C.ar      14 UNK        -0.1249 
     15 C15       -55.4149  -30.8323    9.2940 C.3       14 UNK         0.0141 
     16 S16       -57.1184  -30.1876    9.3299 S.3       14 UNK        -0.2313 
     17 C17       -57.5928  -30.4472   11.0739 C.3       14 UNK        -0.0915 
     18 CA        -57.8190  -29.1146   11.8407 C.3       13 UNK         0.0968 
     19 C         -58.4487  -29.3778   13.2406 C.2       13 UNK         0.5732 
     20 N         -57.8023  -29.0224   14.3449 N.am      13 UNK        -0.7310 
     21 O         -59.5539  -29.9083   13.3255 O.2       13 UNK        -0.5035 
     22 N         -56.6076  -28.2758   11.8652 N.am      13 UNK        -0.4233 
     23 C         -56.5897  -26.9507   12.0512 C.2       13 UNK         0.4989 
     24 O         -57.6050  -26.2703   12.2082 O.2       13 UNK        -0.4996 
     25 CA        -55.1989  -26.2801   12.0806 C.3       12 UNK         0.0216 
     26 CB        -55.2785  -24.7419   12.1059 C.3       12 UNK        -0.1964 
     27 N         -54.3772  -26.7269   13.2094 N.am      12 UNK        -0.4276 
     28 C         -53.7930  -27.9265   13.3278 C.2       12 UNK         0.5020 
     29 O         -53.8964  -28.8105   12.4754 O.2       12 UNK        -0.5489 
     30 CA        -52.9727  -28.1894   14.6025 C.3       11 UNK         0.0294 
     31 CB        -51.7431  -29.0711   14.3165 C.3       11 UNK        -0.2019 
     32 N         -52.5227  -26.9485   15.2400 N.am      11 UNK        -0.4493 
     33 C         -52.8974  -26.5038   16.4463 C.2       11 UNK         0.4932 
     34 O         -53.7765  -27.0276   17.1322 O.2       11 UNK        -0.5029 
     35 CA        -52.1182  -25.2792   16.9688 C.3       10 UNK         0.0280 
     36 CB        -52.4690  -24.8979   18.4227 C.3       10 UNK        -0.1976 
     37 N         -50.6707  -25.4620   16.7908 N.am      10 UNK        -0.4242 
     38 C         -49.8996  -26.4173   17.3352 C.2       10 UNK         0.5072 
     39 O         -50.2763  -27.1905   18.2170 O.2       10 UNK        -0.5224 
     40 CA        -48.4743  -26.5814   16.7778 C.3       9 UNK         0.0343 
     41 CB        -48.4016  -27.8278   15.8802 C.3       9 UNK        -0.2003 
     42 N         -47.9970  -25.4234   16.0176 N.am      9 UNK        -0.4272 
     43 C         -47.5095  -24.3064   16.5745 C.2       9 UNK         0.4988 
     44 O         -47.4243  -24.1275   17.7902 O.2       9 UNK        -0.5108 
     45 CA        -47.0331  -23.2016   15.6162 C.3       8 UNK         0.0248 
     46 CB        -45.6491  -23.5439   15.0413 C.3       8 UNK        -0.2001 
     47 N         -47.9728  -22.9374   14.5233 N.am      8 UNK        -0.4140 
     48 C         -49.2055  -22.4349   14.6897 C.2       8 UNK         0.5028 
     49 O         -49.6816  -22.1290   15.7832 O.2       8 UNK        -0.5428 
     50 CA        -50.0662  -22.2631   13.4276 C.3       7 UNK         0.0264 
     51 CB        -49.6650  -20.9943   12.6583 C.3       7 UNK        -0.1988 
     52 N         -50.0039  -23.4189   12.5333 N.am      7 UNK        -0.4454 
     53 C         -50.4337  -24.6499   12.8463 C.2       7 UNK         0.5027 
     54 O         -50.9651  -24.9484   13.9156 O.2       7 UNK        -0.5083 
     55 CA        -50.2144  -25.7463   11.7912 C.3       6 UNK         0.0844 
     56 C56       -51.2986  -25.6209   10.6974 C.3       14 UNK        -0.0967 
     57 S57       -51.2174  -26.9555    9.4737 S.3       14 UNK        -0.2604 
     58 C58       -52.7473  -26.6342    8.5463 C.3       14 UNK         0.0134 
     59 N         -48.8404  -25.7386   11.2729 N.am      6 UNK        -0.4116 
     60 C         -47.7391  -25.8728   12.0305 C.2       5 UNK         0.5034 
     61 O         -47.7567  -26.0875   13.2419 O.2       5 UNK        -0.5045 
     62 CA        -46.3851  -25.6566   11.3419 C.3       5 UNK         0.0224 
     63 CB        -45.8949  -26.9417   10.6560 C.3       5 UNK        -0.1978 
     64 N         -46.4434  -24.5515   10.3838 N.am      5 UNK        -0.4737 
     65 C         -46.5483  -23.2620   10.7392 C.2       4 UNK         0.5027 
     66 O         -46.5486  -22.8747   11.9075 O.2       4 UNK        -0.5211 
     67 CA        -46.7318  -22.2381    9.6057 C.3       4 UNK         0.0297 
     68 CB        -45.3705  -21.8280    9.0227 C.3       4 UNK        -0.1993 
     69 N         -47.5987  -22.7329    8.5334 N.am      4 UNK        -0.4486 
     70 C         -48.8986  -23.0231    8.6863 C.2       3 UNK         0.4961 
     71 O         -49.5219  -22.8224    9.7287 O.2       3 UNK        -0.5105 
     72 CA        -49.6142  -23.6920    7.4965 C.3       3 UNK         0.0299 
     73 CB        -50.3040  -22.6339    6.6221 C.3       3 UNK        -0.1972 
     74 N         -48.7448  -24.5318    6.6600 N.am      3 UNK        -0.4305 
     75 C         -48.0609  -25.6000    7.0962 C.2       2 UNK         0.5006 
     76 O         -48.0655  -25.9688    8.2703 O.2       2 UNK        -0.5106 
     77 CA        -47.1921  -26.3302    6.0560 C.3       2 UNK         0.0296 
     78 CB        -45.7248  -26.4452    6.5206 C.3       2 UNK        -0.2002 
     79 N         -47.7552  -27.6306    5.6648 N.am      2 UNK        -0.4032 
     80 C         -47.8586  -28.7565    6.3907 C.2       1 UNK         0.5000 
     81 O         -47.4197  -28.8999    7.5351 O.2       1 UNK        -0.5238 
     82 H82       -45.7889  -33.0219    7.2458 H         1 UNK         0.0889 
     83 H83       -46.5208  -33.8940    5.8956 H         1 UNK         0.0889 
     84 H84       -47.5029  -33.4401    7.2898 H         1 UNK         0.0889 
     85 H85       -48.8024  -31.6563    6.8974 H         1 UNK         0.3028 
     86 H86       -48.3964  -29.9008    4.6468 H         1 UNK         0.0864 
     87 H87       -50.4301  -28.7717    5.4368 H         1 UNK         0.0720 
     88 H88       -50.3958  -29.6442    6.9556 H         1 UNK         0.0720 
     89 H89       -53.5115  -30.8823    4.5420 H         1 UNK         0.0814 
     90 H90       -52.6944  -29.3668    4.2619 H         1 UNK         0.0814 
     91 H91       -52.3063  -27.7691    6.1259 H         1 UNK         0.1469 
     92 H92       -54.3730  -28.4044    9.8142 H         1 UNK         0.1381 
     93 H93       -54.4406  -31.4370    6.7863 H         1 UNK         0.1206 
     94 H94       -55.4301  -31.8746    8.9720 H         1 UNK         0.0813 
     95 H95       -54.9807  -30.8240   10.2950 H         1 UNK         0.0813 
     96 H96       -56.8487  -31.0608   11.5839 H         1 UNK         0.0638 
     97 H97       -58.5098  -31.0394   11.0632 H         1 UNK         0.0638 
     98 H98       -58.5791  -28.5578   11.2894 H         1 UNK         0.0568 
     99 H99       -58.2281  -29.1960   15.2416 H         1 UNK         0.3450 
    100 H100      -56.9015  -28.5780   14.2895 H         1 UNK         0.3450 
    101 H101      -55.7145  -28.7590   11.8327 H         1 UNK         0.2987 
    102 H102      -54.6918  -26.5633   11.1585 H         1 UNK         0.0766 
    103 H103      -54.2878  -24.2898   12.0532 H         1 UNK         0.0798 
    104 H104      -55.7655  -24.3766   13.0110 H         1 UNK         0.0798 
    105 H105      -55.8486  -24.3666   11.2549 H         1 UNK         0.0798 
    106 H106      -54.2668  -26.0768   13.9743 H         1 UNK         0.3198 
    107 H107      -53.6281  -28.7418   15.2788 H         1 UNK         0.0843 
    108 H108      -51.0693  -28.6053   13.5975 H         1 UNK         0.0831 
    109 H109      -52.0382  -30.0380   13.9068 H         1 UNK         0.0831 
    110 H110      -51.1788  -29.2690   15.2280 H         1 UNK         0.0831 
    111 H111      -51.8422  -26.3893   14.7282 H         1 UNK         0.3133 
    112 H112      -52.3993  -24.4387   16.3325 H         1 UNK         0.0566 
    113 H113      -51.8969  -24.0310   18.7530 H         1 UNK         0.0814 
    114 H114      -53.5256  -24.6431   18.5123 H         1 UNK         0.0814 
    115 H115      -52.2743  -25.7140   19.1189 H         1 UNK         0.0814 
    116 H116      -50.2644  -24.9128   16.0432 H         1 UNK         0.3091 
    117 H117      -47.8076  -26.7395   17.6282 H         1 UNK         0.0702 
    118 H118      -47.3870  -27.9989   15.5200 H         1 UNK         0.0785 
    119 H119      -49.0527  -27.7334   15.0104 H         1 UNK         0.0785 
    120 H120      -48.7087  -28.7226   16.4232 H         1 UNK         0.0785 
    121 H121      -47.9899  -25.5179   15.0034 H         1 UNK         0.2998 
    122 H122      -46.9372  -22.2814   16.1963 H         1 UNK         0.0697 
    123 H123      -45.6798  -24.4401   14.4211 H         1 UNK         0.0825 
    124 H124      -44.9273  -23.7230   15.8393 H         1 UNK         0.0825 
    125 H125      -45.2611  -22.7286   14.4304 H         1 UNK         0.0825 
    126 H126      -47.6366  -23.1100   13.5800 H         1 UNK         0.3029 
    127 H127      -51.1040  -22.1519   13.7498 H         1 UNK         0.0897 
    128 H128      -50.3232  -20.8237   11.8060 H         1 UNK         0.0792 
    129 H129      -49.7269  -20.1131   13.2983 H         1 UNK         0.0792 
    130 H130      -48.6432  -21.0548   12.2822 H         1 UNK         0.0792 
    131 H131      -49.6332  -23.2543   11.5998 H         1 UNK         0.3086 
    132 H132      -50.3529  -26.7064   12.2916 H         1 UNK         0.0583 
    133 H133      -52.2879  -25.6537   11.1575 H         1 UNK         0.1020 
    134 H134      -51.2382  -24.6650   10.1776 H         1 UNK         0.1020 
    135 H135      -53.4936  -26.1533    9.1786 H         1 UNK         0.0694 
    136 H136      -52.5381  -25.9393    7.7314 H         1 UNK         0.0694 
    137 H137      -48.7284  -25.6237   10.2714 H         1 UNK         0.2989 
    138 H138      -45.6594  -25.3938   12.1148 H         1 UNK         0.1055 
    139 H139      -45.7623  -27.7410   11.3863 H         1 UNK         0.0806 
    140 H140      -44.9340  -26.7894   10.1647 H         1 UNK         0.0806 
    141 H141      -46.6002  -27.3057    9.9086 H         1 UNK         0.0806 
    142 H142      -46.5505  -24.8041    9.4099 H         1 UNK         0.3061 
    143 H143      -47.2020  -21.3505   10.0348 H         1 UNK         0.0734 
    144 H144      -45.4790  -21.0438    8.2732 H         1 UNK         0.0832 
    145 H145      -44.7155  -21.4384    9.8036 H         1 UNK         0.0832 
    146 H146      -44.8568  -22.6704    8.5579 H         1 UNK         0.0832 
    147 H147      -47.1681  -22.9183    7.6395 H         1 UNK         0.3156 
    148 H148      -50.3869  -24.3425    7.9094 H         1 UNK         0.0589 
    149 H149      -49.5826  -21.9686    6.1460 H         1 UNK         0.0808 
    150 H150      -50.9751  -22.0134    7.2182 H         1 UNK         0.0808 
    151 H151      -50.9055  -23.0957    5.8389 H         1 UNK         0.0808 
    152 H152      -48.6837  -24.2810    5.6832 H         1 UNK         0.3098 
    153 H153      -47.1857  -25.7292    5.1452 H         1 UNK         0.0720 
    154 H154      -45.6303  -27.0001    7.4544 H         1 UNK         0.0791 
    155 H155      -45.2928  -25.4583    6.6902 H         1 UNK         0.0791 
    156 H156      -45.1100  -26.9446    5.7719 H         1 UNK         0.0791 
    157 H157      -48.1689  -27.6415    4.7427 H         1 UNK         0.3028 
@<TRIPOS>BOND
     1    1    2 1    
     2    1   82 1    
     3    1   83 1    
     4    1   84 1    
     5    2    3 2    
     6    2    4 am   BACKBONE|DICT|INTERRES
     7    4    5 1    
     8    4   85 1    
     9    5    6 1    
    10    5   80 1    
    11    5   86 1    
    12    6    7 1    
    13    6   87 1    
    14    6   88 1    
    15    7    8 1    
    16    8    9 1    
    17    8   89 1    
    18    8   90 1    
    19    9   10 ar   
    20    9   14 ar   
    21   10   11 ar   
    22   10   91 1    
    23   11   12 ar   
    24   11   58 1    
    25   12   13 ar   
    26   12   92 1    
    27   13   14 ar   
    28   13   15 1    
    29   14   93 1    
    30   15   16 1    
    31   15   94 1    
    32   15   95 1    
    33   16   17 1    
    34   17   18 1    
    35   17   96 1    
    36   17   97 1    
    37   18   19 1    
    38   18   22 1    
    39   18   98 1    
    40   19   20 am   BACKBONE|DICT|INTERRES
    41   19   21 2    
    42   20   99 1    
    43   20  100 1    
    44   22   23 am   BACKBONE|DICT|INTERRES
    45   22  101 1    
    46   23   24 2    
    47   23   25 1    
    48   25   26 1    
    49   25   27 1    
    50   25  102 1    
    51   26  103 1    
    52   26  104 1    
    53   26  105 1    
    54   27   28 am   BACKBONE|DICT|INTERRES
    55   27  106 1    
    56   28   29 2    
    57   28   30 1    
    58   30   31 1    
    59   30   32 1    
    60   30  107 1    
    61   31  108 1    
    62   31  109 1    
    63   31  110 1    
    64   32   33 am   BACKBONE|DICT|INTERRES
    65   32  111 1    
    66   33   34 2    
    67   33   35 1    
    68   35   36 1    
    69   35   37 1    
    70   35  112 1    
    71   36  113 1    
    72   36  114 1    
    73   36  115 1    
    74   37   38 am   BACKBONE|DICT|INTERRES
    75   37  116 1    
    76   38   39 2    
    77   38   40 1    
    78   40   41 1    
    79   40   42 1    
    80   40  117 1    
    81   41  118 1    
    82   41  119 1    
    83   41  120 1    
    84   42   43 am   BACKBONE|DICT|INTERRES
    85   42  121 1    
    86   43   44 2    
    87   43   45 1    
    88   45   46 1    
    89   45   47 1    
    90   45  122 1    
    91   46  123 1    
    92   46  124 1    
    93   46  125 1    
    94   47   48 am   BACKBONE|DICT|INTERRES
    95   47  126 1    
    96   48   49 2    
    97   48   50 1    
    98   50   51 1    
    99   50   52 1    
   100   50  127 1    
   101   51  128 1    
   102   51  129 1    
   103   51  130 1    
   104   52   53 am   BACKBONE|DICT|INTERRES
   105   52  131 1    
   106   53   54 2    
   107   53   55 1    
   108   55   56 1    
   109   55   59 1    
   110   55  132 1    
   111   56   57 1    
   112   56  133 1    
   113   56  134 1    
   114   57   58 1    
   115   58  135 1    
   116   58  136 1    
   117   59   60 am   BACKBONE|DICT|INTERRES
   118   59  137 1    
   119   60   61 2    
   120   60   62 1    
   121   62   63 1    
   122   62   64 1    
   123   62  138 1    
   124   63  139 1    
   125   63  140 1    
   126   63  141 1    
   127   64   65 am   BACKBONE|DICT|INTERRES
   128   64  142 1    
   129   65   66 2    
   130   65   67 1    
   131   67   68 1    
   132   67   69 1    
   133   67  143 1    
   134   68  144 1    
   135   68  145 1    
   136   68  146 1    
   137   69   70 am   BACKBONE|DICT|INTERRES
   138   69  147 1    
   139   70   71 2    
   140   70   72 1    
   141   72   73 1    
   142   72   74 1    
   143   72  148 1    
   144   73  149 1    
   145   73  150 1    
   146   73  151 1    
   147   74   75 am   BACKBONE|DICT|INTERRES
   148   74  152 1    
   149   75   76 2    
   150   75   77 1    
   151   77   78 1    
   152   77   79 1    
   153   77  153 1    
   154   78  154 1    
   155   78  155 1    
   156   78  156 1    
   157   79   80 am   BACKBONE|DICT|INTERRES
   158   79  157 1    
   159   80   81 2    
@<TRIPOS>SUBSTRUCTURE
     1 UNK         1 GROUP             0       ****    0 ROOT    
