@<TRIPOS>MOLECULE
3R207
157   159    1
SMALL
USER_CHARGES


@<TRIPOS>ATOM
      1 CA        -49.2303  -30.1052    3.6597 C.3       0 UNK        -0.1975 
      2 C         -49.3673  -28.6860    4.1887 C.2       0 UNK         0.4852 
      3 O         -48.6291  -28.3077    5.0962 O.2       0 UNK        -0.5216 
      4 N         -50.2871  -27.9009    3.6056 N.am      1 UNK        -0.4461 
      5 CA        -50.7012  -26.5306    3.9671 C.3       1 UNK         0.0864 
      6 C6        -51.7495  -26.4895    5.1174 C.3       14 UNK        -0.0898 
      7 S7        -51.1119  -26.8300    6.7952 S.3       14 UNK        -0.2598 
      8 C8        -51.7613  -28.5011    7.0956 C.3       14 UNK         0.0286 
      9 C9        -51.3759  -29.0169    8.4748 C.ar      14 UNK        -0.0844 
     10 C10       -50.0751  -29.4681    8.7177 C.ar      14 UNK        -0.0881 
     11 C11       -49.7223  -29.9844    9.9689 C.ar      14 UNK        -0.0643 
     12 C12       -50.6855  -30.0532   10.9795 C.ar      14 UNK        -0.0930 
     13 C13       -51.9910  -29.6043   10.7509 C.ar      14 UNK        -0.0827 
     14 C14       -52.3252  -29.0742    9.4998 C.ar      14 UNK        -0.1249 
     15 C15       -53.0217  -29.6630   11.8711 C.3       14 UNK         0.0141 
     16 S16       -54.5495  -30.5294   11.3943 S.3       14 UNK        -0.2313 
     17 C17       -55.4904  -30.4706   12.9583 C.3       14 UNK        -0.0915 
     18 CA        -56.5518  -29.3400   12.9779 C.3       13 UNK         0.0968 
     19 C         -57.5464  -29.5263   14.1561 C.2       13 UNK         0.5732 
     20 N         -57.3802  -28.8444   15.2821 N.am      13 UNK        -0.7310 
     21 O         -58.4946  -30.2994   14.0401 O.2       13 UNK        -0.5035 
     22 N         -55.9339  -28.0053   12.9398 N.am      13 UNK        -0.4233 
     23 C         -56.4972  -26.9339   12.3683 C.2       13 UNK         0.4989 
     24 O         -57.6010  -26.9504   11.8192 O.2       13 UNK        -0.4996 
     25 CA        -55.6664  -25.6360   12.3904 C.3       12 UNK         0.0216 
     26 CB        -56.4276  -24.4125   11.8359 C.3       12 UNK        -0.1964 
     27 N         -55.0925  -25.3442   13.7080 N.am      12 UNK        -0.4276 
     28 C         -55.7474  -25.1058   14.8532 C.2       12 UNK         0.5020 
     29 O         -56.9757  -25.0834   14.9534 O.2       12 UNK        -0.5489 
     30 CA        -54.8676  -24.8558   16.0967 C.3       11 UNK         0.0294 
     31 CB        -55.6803  -24.8271   17.4086 C.3       11 UNK        -0.2019 
     32 N         -53.7410  -25.7910   16.2197 N.am      11 UNK        -0.4493 
     33 C         -53.8020  -27.1315   16.2641 C.2       11 UNK         0.4932 
     34 O         -54.8522  -27.7647   16.1516 O.2       11 UNK        -0.5029 
     35 CA        -52.4868  -27.9163   16.4405 C.3       10 UNK         0.0280 
     36 CB        -52.3691  -29.0270   15.3892 C.3       10 UNK        -0.1976 
     37 N         -51.2904  -27.0771   16.3587 N.am      10 UNK        -0.4242 
     38 C         -50.7135  -26.4574   17.3960 C.2       10 UNK         0.5072 
     39 O         -51.1114  -26.5452   18.5582 O.2       10 UNK        -0.5224 
     40 CA        -49.5039  -25.5598   17.0788 C.3       9 UNK         0.0343 
     41 CB        -48.2140  -26.3931   17.0315 C.3       9 UNK        -0.2003 
     42 N         -49.6482  -24.7987   15.8323 N.am      9 UNK        -0.4272 
     43 C         -50.6202  -23.9031   15.5975 C.2       9 UNK         0.4988 
     44 O         -51.5095  -23.6276   16.4036 O.2       9 UNK        -0.5108 
     45 CA        -50.6299  -23.2269   14.2186 C.3       8 UNK         0.0248 
     46 CB        -49.5536  -22.1326   14.1403 C.3       8 UNK        -0.2001 
     47 N         -50.4565  -24.1802   13.1216 N.am      8 UNK        -0.4140 
     48 C         -51.3199  -25.1632   12.8279 C.2       8 UNK         0.5028 
     49 O         -52.3769  -25.3500   13.4290 O.2       8 UNK        -0.5428 
     50 CA        -50.9192  -26.1367   11.7104 C.3       7 UNK         0.0264 
     51 CB        -51.0915  -25.4954   10.3288 C.3       7 UNK        -0.1988 
     52 N         -49.5538  -26.6380   11.8676 N.am      7 UNK        -0.4454 
     53 C         -49.1355  -27.3480   12.9269 C.2       7 UNK         0.5027 
     54 O         -49.8701  -27.6946   13.8524 O.2       7 UNK        -0.5083 
     55 CA        -47.6343  -27.6712   13.0182 C.3       6 UNK         0.0844 
     56 C56       -47.2867  -29.0768   12.4657 C.3       14 UNK        -0.0967 
     57 S57       -47.1463  -29.1772   10.6498 S.3       14 UNK        -0.2604 
     58 C58       -48.3119  -30.5046   10.2086 C.3       14 UNK         0.0134 
     59 N         -46.8046  -26.5904   12.4749 N.am      6 UNK        -0.4116 
     60 C         -46.6787  -25.3876   13.0558 C.2       5 UNK         0.5034 
     61 O         -47.2249  -25.0765   14.1156 O.2       5 UNK        -0.5045 
     62 CA        -45.8302  -24.3432   12.3133 C.3       5 UNK         0.0224 
     63 CB        -44.3408  -24.7253   12.3287 C.3       5 UNK        -0.1978 
     64 N         -46.2700  -24.1178   10.9337 N.am      5 UNK        -0.4737 
     65 C         -47.4751  -23.6475   10.5807 C.2       4 UNK         0.5027 
     66 O         -48.3594  -23.3653   11.3866 O.2       4 UNK        -0.5211 
     67 CA        -47.7516  -23.4603    9.0783 C.3       4 UNK         0.0297 
     68 CB        -47.4601  -22.0117    8.6577 C.3       4 UNK        -0.1993 
     69 N         -47.0110  -24.3747    8.2062 N.am      4 UNK        -0.4486 
     70 C         -47.1064  -25.7098    8.2244 C.2       3 UNK         0.4961 
     71 O         -47.8032  -26.3309    9.0276 O.2       3 UNK        -0.5105 
     72 CA        -46.2787  -26.4481    7.1562 C.3       3 UNK         0.0299 
     73 CB        -46.2230  -27.9680    7.3803 C.3       3 UNK        -0.1972 
     74 N         -46.8018  -26.1832    5.8153 N.am      3 UNK        -0.4305 
     75 C         -46.5415  -25.0833    5.0919 C.2       2 UNK         0.5006 
     76 O         -45.8252  -24.1650    5.4957 O.2       2 UNK        -0.5106 
     77 CA        -47.1706  -24.9730    3.6895 C.3       2 UNK         0.0296 
     78 CB        -46.1563  -25.3942    2.6137 C.3       2 UNK        -0.2002 
     79 N         -48.3883  -25.7704    3.5385 N.am      2 UNK        -0.4032 
     80 C         -49.5663  -25.4825    4.1096 C.2       1 UNK         0.5000 
     81 O         -49.7785  -24.4247    4.7069 O.2       1 UNK        -0.5238 
     82 H82       -49.9304  -30.3107    2.8502 H         1 UNK         0.0889 
     83 H83       -49.4181  -30.8201    4.4603 H         1 UNK         0.0889 
     84 H84       -48.2200  -30.2702    3.2862 H         1 UNK         0.0889 
     85 H85       -50.8151  -28.2950    2.8388 H         1 UNK         0.3028 
     86 H86       -51.2360  -26.1882    3.0797 H         1 UNK         0.0864 
     87 H87       -52.2206  -25.5054    5.1473 H         1 UNK         0.0720 
     88 H88       -52.5621  -27.1823    4.8947 H         1 UNK         0.0720 
     89 H89       -51.3801  -29.1822    6.3343 H         1 UNK         0.0814 
     90 H90       -52.8466  -28.4901    6.9842 H         1 UNK         0.0814 
     91 H91       -49.3379  -29.4165    7.9279 H         1 UNK         0.1469 
     92 H92       -50.4152  -30.4542   11.9466 H         1 UNK         0.1381 
     93 H93       -53.3313  -28.7200    9.3215 H         1 UNK         0.1206 
     94 H94       -53.2647  -28.6468   12.1801 H         1 UNK         0.0813 
     95 H95       -52.6014  -30.1742   12.7374 H         1 UNK         0.0813 
     96 H96       -54.8086  -30.3769   13.8043 H         1 UNK         0.0638 
     97 H97       -55.9721  -31.4441   13.0688 H         1 UNK         0.0638 
     98 H98       -57.1483  -29.4596   12.0710 H         1 UNK         0.0568 
     99 H99       -58.0407  -28.9699   16.0315 H         1 UNK         0.3450 
    100 H100      -56.5546  -28.2729   15.4330 H         1 UNK         0.3450 
    101 H101      -55.0633  -27.8957   13.4361 H         1 UNK         0.2987 
    102 H102      -54.8170  -25.8145   11.7290 H         1 UNK         0.0766 
    103 H103      -55.7986  -23.5223   11.8339 H         1 UNK         0.0798 
    104 H104      -57.3214  -24.1910   12.4200 H         1 UNK         0.0798 
    105 H105      -56.7469  -24.5846   10.8072 H         1 UNK         0.0798 
    106 H106      -54.0687  -25.3427   13.7362 H         1 UNK         0.3198 
    107 H107      -54.4267  -23.8671   15.9599 H         1 UNK         0.0843 
    108 H108      -56.1815  -25.7780   17.5932 H         1 UNK         0.0831 
    109 H109      -56.4496  -24.0547   17.3760 H         1 UNK         0.0831 
    110 H110      -55.0424  -24.6114   18.2656 H         1 UNK         0.0831 
    111 H111      -52.8273  -25.3552   16.2741 H         1 UNK         0.3133 
    112 H112      -52.5282  -28.3910   17.4228 H         1 UNK         0.0566 
    113 H113      -52.3600  -28.6011   14.3877 H         1 UNK         0.0814 
    114 H114      -51.4516  -29.6018   15.5166 H         1 UNK         0.0814 
    115 H115      -53.2019  -29.7277   15.4534 H         1 UNK         0.0814 
    116 H116      -50.8656  -26.9917   15.4388 H         1 UNK         0.3091 
    117 H117      -49.4103  -24.8361   17.8910 H         1 UNK         0.0702 
    118 H118      -47.3390  -25.7634   16.8687 H         1 UNK         0.0785 
    119 H119      -48.2459  -27.1366   16.2352 H         1 UNK         0.0785 
    120 H120      -48.0596  -26.9269   17.9701 H         1 UNK         0.0785 
    121 H121      -48.9346  -24.9442   15.1232 H         1 UNK         0.2998 
    122 H122      -51.6049  -22.7521   14.0901 H         1 UNK         0.0697 
    123 H123      -48.5476  -22.5489   14.2079 H         1 UNK         0.0825 
    124 H124      -49.6666  -21.4121   14.9514 H         1 UNK         0.0825 
    125 H125      -49.6210  -21.5793   13.2034 H         1 UNK         0.0825 
    126 H126      -49.6241  -24.0632   12.5458 H         1 UNK         0.3029 
    127 H127      -51.5860  -26.9968   11.7671 H         1 UNK         0.0897 
    128 H128      -52.1397  -25.2678   10.1323 H         1 UNK         0.0792 
    129 H129      -50.7502  -26.1707    9.5458 H         1 UNK         0.0792 
    130 H130      -50.5312  -24.5663   10.2361 H         1 UNK         0.0792 
    131 H131      -48.8965  -26.4319   11.1245 H         1 UNK         0.3086 
    132 H132      -47.4126  -27.7155   14.0865 H         1 UNK         0.0583 
    133 H133      -46.3230  -29.3854   12.8736 H         1 UNK         0.1020 
    134 H134      -47.9990  -29.8187   12.8315 H         1 UNK         0.1020 
    135 H135      -47.9508  -30.9857    9.2984 H         1 UNK         0.0694 
    136 H136      -48.3077  -31.2802   10.9758 H         1 UNK         0.0694 
    137 H137      -46.3738  -26.7615   11.5774 H         1 UNK         0.2989 
    138 H138      -45.9423  -23.3987   12.8509 H         1 UNK         0.1055 
    139 H139      -43.9936  -24.8997   13.3483 H         1 UNK         0.0806 
    140 H140      -43.7239  -23.9288   11.9121 H         1 UNK         0.0806 
    141 H141      -44.1448  -25.6337   11.7578 H         1 UNK         0.0806 
    142 H142      -45.6098  -24.3250   10.1985 H         1 UNK         0.3061 
    143 H143      -48.8135  -23.6524    8.9156 H         1 UNK         0.0734 
    144 H144      -48.0226  -21.3068    9.2719 H         1 UNK         0.0832 
    145 H145      -47.7455  -21.8340    7.6205 H         1 UNK         0.0832 
    146 H146      -46.4029  -21.7651    8.7636 H         1 UNK         0.0832 
    147 H147      -46.4467  -23.9612    7.4711 H         1 UNK         0.3156 
    148 H148      -45.2539  -26.0755    7.2153 H         1 UNK         0.0589 
    149 H149      -47.2198  -28.4071    7.4305 H         1 UNK         0.0808 
    150 H150      -45.6763  -28.4702    6.5824 H         1 UNK         0.0808 
    151 H151      -45.7132  -28.1992    8.3151 H         1 UNK         0.0808 
    152 H152      -47.4551  -26.8763    5.4536 H         1 UNK         0.3098 
    153 H153      -47.4253  -23.9236    3.5260 H         1 UNK         0.0720 
    154 H154      -46.5597  -25.2540    1.6106 H         1 UNK         0.0791 
    155 H155      -45.8675  -26.4409    2.7179 H         1 UNK         0.0791 
    156 H156      -45.2459  -24.7968    2.6812 H         1 UNK         0.0791 
    157 H157      -48.2980  -26.6593    3.0684 H         1 UNK         0.3028 
@<TRIPOS>BOND
     1    1    2 1    
     2    1   82 1    
     3    1   83 1    
     4    1   84 1    
     5    2    3 2    
     6    2    4 am   BACKBONE|DICT|INTERRES
     7    4    5 1    
     8    4   85 1    
     9    5    6 1    
    10    5   80 1    
    11    5   86 1    
    12    6    7 1    
    13    6   87 1    
    14    6   88 1    
    15    7    8 1    
    16    8    9 1    
    17    8   89 1    
    18    8   90 1    
    19    9   10 ar   
    20    9   14 ar   
    21   10   11 ar   
    22   10   91 1    
    23   11   12 ar   
    24   11   58 1    
    25   12   13 ar   
    26   12   92 1    
    27   13   14 ar   
    28   13   15 1    
    29   14   93 1    
    30   15   16 1    
    31   15   94 1    
    32   15   95 1    
    33   16   17 1    
    34   17   18 1    
    35   17   96 1    
    36   17   97 1    
    37   18   19 1    
    38   18   22 1    
    39   18   98 1    
    40   19   20 am   BACKBONE|DICT|INTERRES
    41   19   21 2    
    42   20   99 1    
    43   20  100 1    
    44   22   23 am   BACKBONE|DICT|INTERRES
    45   22  101 1    
    46   23   24 2    
    47   23   25 1    
    48   25   26 1    
    49   25   27 1    
    50   25  102 1    
    51   26  103 1    
    52   26  104 1    
    53   26  105 1    
    54   27   28 am   BACKBONE|DICT|INTERRES
    55   27  106 1    
    56   28   29 2    
    57   28   30 1    
    58   30   31 1    
    59   30   32 1    
    60   30  107 1    
    61   31  108 1    
    62   31  109 1    
    63   31  110 1    
    64   32   33 am   BACKBONE|DICT|INTERRES
    65   32  111 1    
    66   33   34 2    
    67   33   35 1    
    68   35   36 1    
    69   35   37 1    
    70   35  112 1    
    71   36  113 1    
    72   36  114 1    
    73   36  115 1    
    74   37   38 am   BACKBONE|DICT|INTERRES
    75   37  116 1    
    76   38   39 2    
    77   38   40 1    
    78   40   41 1    
    79   40   42 1    
    80   40  117 1    
    81   41  118 1    
    82   41  119 1    
    83   41  120 1    
    84   42   43 am   BACKBONE|DICT|INTERRES
    85   42  121 1    
    86   43   44 2    
    87   43   45 1    
    88   45   46 1    
    89   45   47 1    
    90   45  122 1    
    91   46  123 1    
    92   46  124 1    
    93   46  125 1    
    94   47   48 am   BACKBONE|DICT|INTERRES
    95   47  126 1    
    96   48   49 2    
    97   48   50 1    
    98   50   51 1    
    99   50   52 1    
   100   50  127 1    
   101   51  128 1    
   102   51  129 1    
   103   51  130 1    
   104   52   53 am   BACKBONE|DICT|INTERRES
   105   52  131 1    
   106   53   54 2    
   107   53   55 1    
   108   55   56 1    
   109   55   59 1    
   110   55  132 1    
   111   56   57 1    
   112   56  133 1    
   113   56  134 1    
   114   57   58 1    
   115   58  135 1    
   116   58  136 1    
   117   59   60 am   BACKBONE|DICT|INTERRES
   118   59  137 1    
   119   60   61 2    
   120   60   62 1    
   121   62   63 1    
   122   62   64 1    
   123   62  138 1    
   124   63  139 1    
   125   63  140 1    
   126   63  141 1    
   127   64   65 am   BACKBONE|DICT|INTERRES
   128   64  142 1    
   129   65   66 2    
   130   65   67 1    
   131   67   68 1    
   132   67   69 1    
   133   67  143 1    
   134   68  144 1    
   135   68  145 1    
   136   68  146 1    
   137   69   70 am   BACKBONE|DICT|INTERRES
   138   69  147 1    
   139   70   71 2    
   140   70   72 1    
   141   72   73 1    
   142   72   74 1    
   143   72  148 1    
   144   73  149 1    
   145   73  150 1    
   146   73  151 1    
   147   74   75 am   BACKBONE|DICT|INTERRES
   148   74  152 1    
   149   75   76 2    
   150   75   77 1    
   151   77   78 1    
   152   77   79 1    
   153   77  153 1    
   154   78  154 1    
   155   78  155 1    
   156   78  156 1    
   157   79   80 am   BACKBONE|DICT|INTERRES
   158   79  157 1    
   159   80   81 2    
@<TRIPOS>SUBSTRUCTURE
     1 UNK         1 GROUP             0       ****    0 ROOT    
