@<TRIPOS>MOLECULE
3R207
157   159    1
SMALL
USER_CHARGES


@<TRIPOS>ATOM
      1 CA        -49.8131  -30.4703    1.9470 C.3       0 UNK        -0.1975 
      2 C         -49.2619  -29.5861    3.0562 C.2       0 UNK         0.4852 
      3 O         -48.5727  -28.6054    2.7706 O.2       0 UNK        -0.5216 
      4 N         -49.5679  -29.9194    4.3165 N.am      1 UNK        -0.4461 
      5 CA        -49.0850  -29.2163    5.5087 C.3       1 UNK         0.0864 
      6 C6        -49.8805  -29.6223    6.7740 C.3       14 UNK        -0.0898 
      7 S7        -51.5434  -28.8781    6.8089 S.3       14 UNK        -0.2598 
      8 C8        -51.1910  -27.3874    7.7918 C.3       14 UNK         0.0286 
      9 C9        -52.4607  -26.7007    8.2648 C.ar      14 UNK        -0.0844 
     10 C10       -52.9190  -25.5378    7.6417 C.ar      14 UNK        -0.0881 
     11 C11       -54.0170  -24.8437    8.1612 C.ar      14 UNK        -0.0643 
     12 C12       -54.6912  -25.3560    9.2755 C.ar      14 UNK        -0.0930 
     13 C13       -54.2614  -26.5373    9.8909 C.ar      14 UNK        -0.0827 
     14 C14       -53.1377  -27.1954    9.3809 C.ar      14 UNK        -0.1249 
     15 C15       -54.9729  -27.0412   11.1451 C.3       14 UNK         0.0141 
     16 S16       -55.3970  -28.8145   11.1087 S.3       14 UNK        -0.2313 
     17 C17       -53.8715  -29.5962   11.7437 C.3       14 UNK        -0.0915 
     18 CA        -54.1225  -30.4977   12.9820 C.3       13 UNK         0.0968 
     19 C         -52.9006  -31.4103   13.3028 C.2       13 UNK         0.5732 
     20 N         -52.5064  -31.5992   14.5570 N.am      13 UNK        -0.7310 
     21 O         -52.3027  -31.9833   12.3950 O.2       13 UNK        -0.5035 
     22 N         -54.5693  -29.7132   14.1445 N.am      13 UNK        -0.4233 
     23 C         -55.6002  -30.0411   14.9336 C.2       13 UNK         0.4989 
     24 O         -56.3587  -30.9870   14.7105 O.2       13 UNK        -0.4996 
     25 CA        -55.8119  -29.1744   16.1937 C.3       12 UNK         0.0216 
     26 CB        -56.7502  -29.8365   17.2252 C.3       12 UNK        -0.1964 
     27 N         -54.5621  -28.7546   16.8422 N.am      12 UNK        -0.4276 
     28 C         -53.5638  -29.5398   17.2820 C.2       12 UNK         0.5020 
     29 O         -53.5778  -30.7679   17.1891 O.2       12 UNK        -0.5489 
     30 CA        -52.3217  -28.8556   17.8878 C.3       11 UNK         0.0294 
     31 CB        -51.0257  -29.4384   17.2942 C.3       11 UNK        -0.2019 
     32 N         -52.3302  -27.4125   17.6497 N.am      11 UNK        -0.4493 
     33 C         -52.6493  -26.4717   18.5491 C.2       11 UNK         0.4932 
     34 O         -52.8872  -26.7067   19.7336 O.2       11 UNK        -0.5029 
     35 CA        -52.7530  -25.0219   18.0338 C.3       10 UNK         0.0280 
     36 CB        -51.4645  -24.2475   18.3516 C.3       10 UNK        -0.1976 
     37 N         -53.0342  -24.9385   16.5950 N.am      10 UNK        -0.4242 
     38 C         -54.1773  -25.3570   16.0254 C.2       10 UNK         0.5072 
     39 O         -55.1371  -25.7818   16.6683 O.2       10 UNK        -0.5224 
     40 CA        -54.2437  -25.4028   14.4883 C.3       9 UNK         0.0343 
     41 CB        -54.9347  -24.1480   13.9359 C.3       9 UNK        -0.2003 
     42 N         -52.9302  -25.5651   13.8580 N.am      9 UNK        -0.4272 
     43 C         -52.1377  -26.6381   14.0193 C.2       9 UNK         0.4988 
     44 O         -52.5083  -27.6559   14.6056 O.2       9 UNK        -0.5108 
     45 CA        -50.6866  -26.5680   13.4978 C.3       8 UNK         0.0248 
     46 CB        -50.5052  -27.4821   12.2766 C.3       8 UNK        -0.2001 
     47 N         -50.2245  -25.2201   13.1538 N.am      8 UNK        -0.4140 
     48 C         -50.1686  -24.1686   13.9880 C.2       8 UNK         0.5028 
     49 O         -50.4197  -24.2395   15.1913 O.2       8 UNK        -0.5428 
     50 CA        -49.8789  -22.7917   13.3581 C.3       7 UNK         0.0264 
     51 CB        -48.4003  -22.4200   13.5402 C.3       7 UNK        -0.1988 
     52 N         -50.2435  -22.7214   11.9353 N.am      7 UNK        -0.4454 
     53 C         -51.4913  -22.9028   11.4672 C.2       7 UNK         0.5027 
     54 O         -52.4660  -23.0239   12.2095 O.2       7 UNK        -0.5083 
     55 CA        -51.7029  -23.0587    9.9463 C.3       6 UNK         0.0844 
     56 C56       -52.7875  -22.0875    9.4081 C.3       14 UNK        -0.0967 
     57 S57       -53.0952  -22.2699    7.6131 S.3       14 UNK        -0.2604 
     58 C58       -54.4363  -23.5099    7.5558 C.3       14 UNK         0.0134 
     59 N         -50.4669  -23.0308    9.1577 N.am      6 UNK        -0.4116 
     60 C         -49.5545  -24.0105    9.1210 C.2       5 UNK         0.5034 
     61 O         -49.6152  -25.0221    9.8244 O.2       5 UNK        -0.5045 
     62 CA        -48.3715  -23.8364    8.1462 C.3       5 UNK         0.0224 
     63 CB        -48.2722  -22.4338    7.5031 C.3       5 UNK        -0.1978 
     64 N         -47.0931  -24.2046    8.7620 N.am      5 UNK        -0.4737 
     65 C         -46.5587  -23.6956    9.8831 C.2       4 UNK         0.5027 
     66 O         -47.0762  -22.7880   10.5350 O.2       4 UNK        -0.5211 
     67 CA        -45.2304  -24.3043   10.3758 C.3       4 UNK         0.0297 
     68 CB        -45.4954  -25.2809   11.5338 C.3       4 UNK        -0.1993 
     69 N         -44.4786  -25.0013    9.3272 N.am      4 UNK        -0.4486 
     70 C         -43.8556  -24.4008    8.3032 C.2       3 UNK         0.4961 
     71 O         -43.7588  -23.1789    8.1858 O.2       3 UNK        -0.5105 
     72 CA        -43.2492  -25.3076    7.2117 C.3       3 UNK         0.0299 
     73 CB        -41.7326  -25.4503    7.4209 C.3       3 UNK        -0.1972 
     74 N         -43.8462  -26.6470    7.0950 N.am      3 UNK        -0.4305 
     75 C         -45.1382  -26.9094    6.8536 C.2       2 UNK         0.5006 
     76 O         -46.0123  -26.0408    6.7732 O.2       2 UNK        -0.5106 
     77 CA        -45.5284  -28.3874    6.7146 C.3       2 UNK         0.0296 
     78 CB        -45.3243  -29.1525    8.0377 C.3       2 UNK        -0.2002 
     79 N         -46.9332  -28.4349    6.3275 N.am      2 UNK        -0.4032 
     80 C         -47.5769  -29.4453    5.7370 C.2       1 UNK         0.5000 
     81 O         -47.0514  -30.5191    5.4290 O.2       1 UNK        -0.5238 
     82 H82       -50.4150  -31.2897    2.3398 H         1 UNK         0.0889 
     83 H83       -48.9954  -30.8979    1.3674 H         1 UNK         0.0889 
     84 H84       -50.4378  -29.8832    1.2745 H         1 UNK         0.0889 
     85 H85       -50.1270  -30.7418    4.4917 H         1 UNK         0.3028 
     86 H86       -49.2278  -28.1466    5.3369 H         1 UNK         0.0864 
     87 H87       -49.9827  -30.7076    6.8317 H         1 UNK         0.0720 
     88 H88       -49.3562  -29.3334    7.6873 H         1 UNK         0.0720 
     89 H89       -50.5810  -26.7018    7.2017 H         1 UNK         0.0814 
     90 H90       -50.5929  -27.6491    8.6664 H         1 UNK         0.0814 
     91 H91       -52.3880  -25.1367    6.7893 H         1 UNK         0.1469 
     92 H92       -55.5355  -24.8167    9.6825 H         1 UNK         0.1381 
     93 H93       -52.7674  -28.0905    9.8552 H         1 UNK         0.1206 
     94 H94       -55.8963  -26.4827   11.3051 H         1 UNK         0.0813 
     95 H95       -54.3450  -26.8399   12.0074 H         1 UNK         0.0813 
     96 H96       -53.4543  -30.1759   10.9185 H         1 UNK         0.0638 
     97 H97       -53.1311  -28.8351   11.9875 H         1 UNK         0.0638 
     98 H98       -54.9090  -31.1988   12.6985 H         1 UNK         0.0568 
     99 H99       -51.7189  -32.2023   14.7298 H         1 UNK         0.3450 
    100 H100      -53.0093  -31.1980   15.3411 H         1 UNK         0.3450 
    101 H101      -53.9527  -28.9536   14.4182 H         1 UNK         0.2987 
    102 H102      -56.2966  -28.2602   15.8480 H         1 UNK         0.0766 
    103 H103      -56.3477  -30.7835   17.5865 H         1 UNK         0.0798 
    104 H104      -56.9105  -29.1894   18.0876 H         1 UNK         0.0798 
    105 H105      -57.7296  -30.0424   16.7914 H         1 UNK         0.0798 
    106 H106      -54.4646  -27.7526   16.9613 H         1 UNK         0.3198 
    107 H107      -52.3312  -29.0635   18.9597 H         1 UNK         0.0843 
    108 H108      -50.9401  -30.5048   17.5073 H         1 UNK         0.0831 
    109 H109      -50.1441  -28.9555   17.7156 H         1 UNK         0.0831 
    110 H110      -50.9883  -29.3196   16.2104 H         1 UNK         0.0831 
    111 H111      -52.1772  -27.1339   16.6880 H         1 UNK         0.3133 
    112 H112      -53.5783  -24.5416   18.5636 H         1 UNK         0.0566 
    113 H113      -51.5316  -23.2102   18.0230 H         1 UNK         0.0814 
    114 H114      -51.2712  -24.2360   19.4251 H         1 UNK         0.0814 
    115 H115      -50.5949  -24.6960   17.8694 H         1 UNK         0.0814 
    116 H116      -52.2693  -24.6251   16.0035 H         1 UNK         0.3091 
    117 H117      -54.8519  -26.2696   14.2224 H         1 UNK         0.0702 
    118 H118      -55.0366  -24.1953   12.8513 H         1 UNK         0.0785 
    119 H119      -54.3789  -23.2418   14.1802 H         1 UNK         0.0785 
    120 H120      -55.9372  -24.0387   14.3518 H         1 UNK         0.0785 
    121 H121      -52.5793  -24.7622   13.3464 H         1 UNK         0.2998 
    122 H122      -50.0449  -26.9370   14.3001 H         1 UNK         0.0697 
    123 H123      -51.1091  -27.1474   11.4330 H         1 UNK         0.0825 
    124 H124      -50.7934  -28.5088   12.5068 H         1 UNK         0.0825 
    125 H125      -49.4653  -27.5066   11.9501 H         1 UNK         0.0825 
    126 H126      -50.0014  -25.0624   12.1786 H         1 UNK         0.3029 
    127 H127      -50.4855  -22.0558   13.8904 H         1 UNK         0.0897 
    128 H128      -48.1752  -21.4464   13.1046 H         1 UNK         0.0792 
    129 H129      -48.1403  -22.3705   14.5986 H         1 UNK         0.0792 
    130 H130      -47.7410  -23.1555   13.0796 H         1 UNK         0.0792 
    131 H131      -49.4801  -22.6469   11.2746 H         1 UNK         0.3086 
    132 H132      -52.1009  -24.0679    9.8493 H         1 UNK         0.0583 
    133 H133      -53.7299  -22.2315    9.9408 H         1 UNK         0.1020 
    134 H134      -52.4931  -21.0531    9.5948 H         1 UNK         0.1020 
    135 H135      -55.3143  -23.1071    8.0630 H         1 UNK         0.0694 
    136 H136      -54.7263  -23.6687    6.5163 H         1 UNK         0.0694 
    137 H137      -50.3436  -22.2305    8.5553 H         1 UNK         0.2989 
    138 H138      -48.5394  -24.5567    7.3441 H         1 UNK         0.1055 
    139 H139      -47.4164  -22.3762    6.8301 H         1 UNK         0.0806 
    140 H140      -48.1535  -21.6469    8.2492 H         1 UNK         0.0806 
    141 H141      -49.1556  -22.2029    6.9062 H         1 UNK         0.0806 
    142 H142      -46.5839  -24.9374    8.2765 H         1 UNK         0.3061 
    143 H143      -44.6139  -23.4848   10.7513 H         1 UNK         0.0734 
    144 H144      -46.0126  -24.7818   12.3540 H         1 UNK         0.0832 
    145 H145      -46.1186  -26.1197   11.2206 H         1 UNK         0.0832 
    146 H146      -44.5658  -25.6822   11.9377 H         1 UNK         0.0832 
    147 H147      -44.4933  -26.0102    9.3479 H         1 UNK         0.3156 
    148 H148      -43.4124  -24.8027    6.2573 H         1 UNK         0.0589 
    149 H149      -41.5010  -25.9835    8.3439 H         1 UNK         0.0808 
    150 H150      -41.2648  -25.9864    6.5949 H         1 UNK         0.0808 
    151 H151      -41.2520  -24.4726    7.4809 H         1 UNK         0.0808 
    152 H152      -43.2048  -27.4252    7.1576 H         1 UNK         0.3098 
    153 H153      -44.9205  -28.8329    5.9245 H         1 UNK         0.0720 
    154 H154      -45.6235  -30.1965    7.9422 H         1 UNK         0.0791 
    155 H155      -45.9059  -28.7141    8.8498 H         1 UNK         0.0791 
    156 H156      -44.2778  -29.1499    8.3440 H         1 UNK         0.0791 
    157 H157      -47.4116  -27.5560    6.4873 H         1 UNK         0.3028 
@<TRIPOS>BOND
     1    1    2 1    
     2    1   82 1    
     3    1   83 1    
     4    1   84 1    
     5    2    3 2    
     6    2    4 am   BACKBONE|DICT|INTERRES
     7    4    5 1    
     8    4   85 1    
     9    5    6 1    
    10    5   80 1    
    11    5   86 1    
    12    6    7 1    
    13    6   87 1    
    14    6   88 1    
    15    7    8 1    
    16    8    9 1    
    17    8   89 1    
    18    8   90 1    
    19    9   10 ar   
    20    9   14 ar   
    21   10   11 ar   
    22   10   91 1    
    23   11   12 ar   
    24   11   58 1    
    25   12   13 ar   
    26   12   92 1    
    27   13   14 ar   
    28   13   15 1    
    29   14   93 1    
    30   15   16 1    
    31   15   94 1    
    32   15   95 1    
    33   16   17 1    
    34   17   18 1    
    35   17   96 1    
    36   17   97 1    
    37   18   19 1    
    38   18   22 1    
    39   18   98 1    
    40   19   20 am   BACKBONE|DICT|INTERRES
    41   19   21 2    
    42   20   99 1    
    43   20  100 1    
    44   22   23 am   BACKBONE|DICT|INTERRES
    45   22  101 1    
    46   23   24 2    
    47   23   25 1    
    48   25   26 1    
    49   25   27 1    
    50   25  102 1    
    51   26  103 1    
    52   26  104 1    
    53   26  105 1    
    54   27   28 am   BACKBONE|DICT|INTERRES
    55   27  106 1    
    56   28   29 2    
    57   28   30 1    
    58   30   31 1    
    59   30   32 1    
    60   30  107 1    
    61   31  108 1    
    62   31  109 1    
    63   31  110 1    
    64   32   33 am   BACKBONE|DICT|INTERRES
    65   32  111 1    
    66   33   34 2    
    67   33   35 1    
    68   35   36 1    
    69   35   37 1    
    70   35  112 1    
    71   36  113 1    
    72   36  114 1    
    73   36  115 1    
    74   37   38 am   BACKBONE|DICT|INTERRES
    75   37  116 1    
    76   38   39 2    
    77   38   40 1    
    78   40   41 1    
    79   40   42 1    
    80   40  117 1    
    81   41  118 1    
    82   41  119 1    
    83   41  120 1    
    84   42   43 am   BACKBONE|DICT|INTERRES
    85   42  121 1    
    86   43   44 2    
    87   43   45 1    
    88   45   46 1    
    89   45   47 1    
    90   45  122 1    
    91   46  123 1    
    92   46  124 1    
    93   46  125 1    
    94   47   48 am   BACKBONE|DICT|INTERRES
    95   47  126 1    
    96   48   49 2    
    97   48   50 1    
    98   50   51 1    
    99   50   52 1    
   100   50  127 1    
   101   51  128 1    
   102   51  129 1    
   103   51  130 1    
   104   52   53 am   BACKBONE|DICT|INTERRES
   105   52  131 1    
   106   53   54 2    
   107   53   55 1    
   108   55   56 1    
   109   55   59 1    
   110   55  132 1    
   111   56   57 1    
   112   56  133 1    
   113   56  134 1    
   114   57   58 1    
   115   58  135 1    
   116   58  136 1    
   117   59   60 am   BACKBONE|DICT|INTERRES
   118   59  137 1    
   119   60   61 2    
   120   60   62 1    
   121   62   63 1    
   122   62   64 1    
   123   62  138 1    
   124   63  139 1    
   125   63  140 1    
   126   63  141 1    
   127   64   65 am   BACKBONE|DICT|INTERRES
   128   64  142 1    
   129   65   66 2    
   130   65   67 1    
   131   67   68 1    
   132   67   69 1    
   133   67  143 1    
   134   68  144 1    
   135   68  145 1    
   136   68  146 1    
   137   69   70 am   BACKBONE|DICT|INTERRES
   138   69  147 1    
   139   70   71 2    
   140   70   72 1    
   141   72   73 1    
   142   72   74 1    
   143   72  148 1    
   144   73  149 1    
   145   73  150 1    
   146   73  151 1    
   147   74   75 am   BACKBONE|DICT|INTERRES
   148   74  152 1    
   149   75   76 2    
   150   75   77 1    
   151   77   78 1    
   152   77   79 1    
   153   77  153 1    
   154   78  154 1    
   155   78  155 1    
   156   78  156 1    
   157   79   80 am   BACKBONE|DICT|INTERRES
   158   79  157 1    
   159   80   81 2    
@<TRIPOS>SUBSTRUCTURE
     1 UNK         1 GROUP             0       ****    0 ROOT    
