@<TRIPOS>MOLECULE
3R207
157   159    1
SMALL
USER_CHARGES


@<TRIPOS>ATOM
      1 CA        -52.1885  -29.6860    6.6961 C.3       0 UNK        -0.1975 
      2 C         -51.8803  -28.6116    5.6639 C.2       0 UNK         0.4852 
      3 O         -51.7351  -28.9190    4.4805 O.2       0 UNK        -0.5216 
      4 N         -51.7852  -27.3519    6.1075 N.am      1 UNK        -0.4461 
      5 CA        -51.5431  -26.1637    5.2773 C.3       1 UNK         0.0864 
      6 C6        -51.7406  -24.8376    6.0622 C.3       14 UNK        -0.0898 
      7 S7        -53.2184  -24.7883    7.1329 S.3       14 UNK        -0.2598 
      8 C8        -52.4522  -24.7181    8.7861 C.3       14 UNK         0.0286 
      9 C9        -52.0117  -26.0932    9.2710 C.ar      14 UNK        -0.0844 
     10 C10       -50.7492  -26.6062    8.9461 C.ar      14 UNK        -0.0881 
     11 C11       -50.3776  -27.8893    9.3629 C.ar      14 UNK        -0.0643 
     12 C12       -51.2538  -28.6345   10.1564 C.ar      14 UNK        -0.0930 
     13 C13       -52.4989  -28.1166   10.5172 C.ar      14 UNK        -0.0827 
     14 C14       -52.8780  -26.8522   10.0621 C.ar      14 UNK        -0.1249 
     15 C15       -53.4337  -28.9260   11.3972 C.3       14 UNK         0.0141 
     16 S16       -54.4092  -30.1013   10.4129 S.3       14 UNK        -0.2313 
     17 C17       -55.4427  -30.8263   11.7269 C.3       14 UNK        -0.0915 
     18 CA        -56.8247  -30.1162   11.8591 C.3       13 UNK         0.0968 
     19 C         -57.9278  -30.6687   10.9048 C.2       13 UNK         0.5732 
     20 N         -57.5728  -31.0635    9.6898 N.am      13 UNK        -0.7310 
     21 O         -59.1131  -30.6988   11.2339 O.2       13 UNK        -0.5035 
     22 N         -57.2565  -30.0165   13.2596 N.am      13 UNK        -0.4233 
     23 C         -57.5489  -31.0314   14.0799 C.2       13 UNK         0.4989 
     24 O         -57.4431  -32.2202   13.7707 O.2       13 UNK        -0.4996 
     25 CA        -58.0173  -30.6394   15.4965 C.3       12 UNK         0.0216 
     26 CB        -58.4376  -31.8576   16.3412 C.3       12 UNK        -0.1964 
     27 N         -56.9974  -29.8835   16.2313 N.am      12 UNK        -0.4276 
     28 C         -56.6759  -28.5987   16.0295 C.2       12 UNK         0.5020 
     29 O         -57.2233  -27.8915   15.1785 O.2       12 UNK        -0.5489 
     30 CA        -55.5897  -27.9856   16.9362 C.3       11 UNK         0.0294 
     31 CB        -54.7247  -29.0230   17.6904 C.3       11 UNK        -0.2019 
     32 N         -54.7486  -27.0289   16.2084 N.am      11 UNK        -0.4493 
     33 C         -53.9133  -27.2839   15.1904 C.2       11 UNK         0.4932 
     34 O         -53.7007  -28.4078   14.7342 O.2       11 UNK        -0.5029 
     35 CA        -53.1820  -26.0769   14.5709 C.3       10 UNK         0.0280 
     36 CB        -53.9708  -24.7520   14.6630 C.3       10 UNK        -0.1976 
     37 N         -51.8253  -25.9100   15.1012 N.am      10 UNK        -0.4242 
     38 C         -51.4538  -25.7313   16.3795 C.2       10 UNK         0.5072 
     39 O         -52.2325  -25.6766   17.3322 O.2       10 UNK        -0.5224 
     40 CA        -49.9477  -25.5494   16.6387 C.3       9 UNK         0.0343 
     41 CB        -49.1940  -26.8808   16.4864 C.3       9 UNK        -0.2003 
     42 N         -49.3476  -24.5353   15.7691 N.am      9 UNK        -0.4272 
     43 C         -49.6335  -23.2245   15.8139 C.2       9 UNK         0.4988 
     44 O         -50.3837  -22.7105   16.6441 O.2       9 UNK        -0.5108 
     45 CA        -48.9795  -22.3334   14.7459 C.3       8 UNK         0.0248 
     46 CB        -47.5734  -21.8884   15.1815 C.3       8 UNK        -0.2001 
     47 N         -48.9114  -23.0129   13.4517 N.am      8 UNK        -0.4140 
     48 C         -49.9510  -23.1384   12.6142 C.2       8 UNK         0.5028 
     49 O         -51.0456  -22.6040   12.7951 O.2       8 UNK        -0.5428 
     50 CA        -49.7446  -24.0127   11.3671 C.3       7 UNK         0.0264 
     51 CB        -49.2899  -23.1553   10.1747 C.3       7 UNK        -0.1988 
     52 N         -48.7850  -25.0978   11.5741 N.am      7 UNK        -0.4454 
     53 C         -49.0046  -26.1717   12.3507 C.2       7 UNK         0.5027 
     54 O         -50.0495  -26.3607   12.9727 O.2       7 UNK        -0.5083 
     55 CA        -47.8370  -27.1714   12.5260 C.3       6 UNK         0.0844 
     56 C56       -47.8994  -28.3295   11.5012 C.3       14 UNK        -0.0967 
     57 S57       -47.6150  -27.7973    9.7731 S.3       14 UNK        -0.2604 
     58 C58       -49.0566  -28.5000    8.9162 C.3       14 UNK         0.0134 
     59 N         -46.5249  -26.5218   12.5229 N.am      6 UNK        -0.4116 
     60 C         -46.1430  -25.5290   13.3359 C.2       5 UNK         0.5034 
     61 O         -46.8216  -25.1276   14.2819 O.2       5 UNK        -0.5045 
     62 CA        -44.8170  -24.8172   13.0069 C.3       5 UNK         0.0224 
     63 CB        -43.7235  -25.2461   13.9980 C.3       5 UNK        -0.1978 
     64 N         -44.3239  -25.0044   11.6324 N.am      5 UNK        -0.4737 
     65 C         -44.9831  -24.6940   10.5063 C.2       4 UNK         0.5027 
     66 O         -46.1371  -24.2581   10.4858 O.2       4 UNK        -0.5211 
     67 CA        -44.2339  -24.9470    9.1919 C.3       4 UNK         0.0297 
     68 CB        -43.9608  -26.4474    8.9685 C.3       4 UNK        -0.1993 
     69 N         -45.0215  -24.4252    8.0794 N.am      4 UNK        -0.4486 
     70 C         -44.5339  -23.9947    6.9132 C.2       3 UNK         0.4961 
     71 O         -43.3349  -24.0013    6.6270 O.2       3 UNK        -0.5105 
     72 CA        -45.5700  -23.5181    5.8804 C.3       3 UNK         0.0299 
     73 CB        -44.9436  -22.6475    4.7748 C.3       3 UNK        -0.1972 
     74 N         -46.2296  -24.6698    5.2639 N.am      3 UNK        -0.4305 
     75 C         -47.2538  -25.3398    5.8041 C.2       2 UNK         0.5006 
     76 O         -47.7894  -25.0318    6.8729 O.2       2 UNK        -0.5106 
     77 CA        -47.7364  -26.5829    5.0393 C.3       2 UNK         0.0296 
     78 CB        -46.9581  -27.8275    5.4978 C.3       2 UNK        -0.2002 
     79 N         -49.1632  -26.7823    5.2870 N.am      2 UNK        -0.4032 
     80 C         -50.1398  -26.1377    4.6336 C.2       1 UNK         0.5000 
     81 O         -49.9614  -25.4923    3.5984 O.2       1 UNK        -0.5238 
     82 H82       -52.5961  -29.2592    7.6126 H         1 UNK         0.0889 
     83 H83       -51.2838  -30.2386    6.9475 H         1 UNK         0.0889 
     84 H84       -52.9215  -30.3897    6.3027 H         1 UNK         0.0889 
     85 H85       -51.9525  -27.1596    7.0875 H         1 UNK         0.3028 
     86 H86       -52.2722  -26.1889    4.4646 H         1 UNK         0.0864 
     87 H87       -50.8615  -24.6083    6.6674 H         1 UNK         0.0720 
     88 H88       -51.8245  -24.0078    5.3578 H         1 UNK         0.0720 
     89 H89       -51.6123  -24.0242    8.7776 H         1 UNK         0.0814 
     90 H90       -53.1757  -24.2957    9.4852 H         1 UNK         0.0814 
     91 H91       -50.0601  -26.0213    8.3518 H         1 UNK         0.1469 
     92 H92       -50.9750  -29.6259   10.4859 H         1 UNK         0.1381 
     93 H93       -53.8499  -26.4580   10.3258 H         1 UNK         0.1206 
     94 H94       -54.1078  -28.2630   11.9418 H         1 UNK         0.0813 
     95 H95       -52.8581  -29.4652   12.1515 H         1 UNK         0.0813 
     96 H96       -55.5625  -31.8954   11.5424 H         1 UNK         0.0638 
     97 H97       -54.8858  -30.7590   12.6633 H         1 UNK         0.0638 
     98 H98       -56.7021  -29.0744   11.5612 H         1 UNK         0.0568 
     99 H99       -56.6061  -31.0180    9.4040 H         1 UNK         0.3450 
    100 H100      -58.2758  -31.4057    9.0540 H         1 UNK         0.3450 
    101 H101      -57.3516  -29.0773   13.6354 H         1 UNK         0.2987 
    102 H102      -58.8979  -30.0044   15.3761 H         1 UNK         0.0766 
    103 H103      -58.8304  -31.5521   17.3112 H         1 UNK         0.0798 
    104 H104      -57.6029  -32.5378   16.5154 H         1 UNK         0.0798 
    105 H105      -59.2232  -32.4267   15.8419 H         1 UNK         0.0798 
    106 H106      -56.4752  -30.3968   16.9268 H         1 UNK         0.3198 
    107 H107      -56.1252  -27.4013   17.6859 H         1 UNK         0.0843 
    108 H108      -53.9436  -28.5303   18.2700 H         1 UNK         0.0831 
    109 H109      -54.2358  -29.7229   17.0116 H         1 UNK         0.0831 
    110 H110      -55.3204  -29.6023   18.3967 H         1 UNK         0.0831 
    111 H111      -54.8339  -26.0658   16.5011 H         1 UNK         0.3133 
    112 H112      -53.0612  -26.3059   13.5105 H         1 UNK         0.0566 
    113 H113      -53.4887  -23.9746   14.0693 H         1 UNK         0.0814 
    114 H114      -54.9836  -24.8701   14.2750 H         1 UNK         0.0814 
    115 H115      -54.0467  -24.3797   15.6850 H         1 UNK         0.0814 
    116 H116      -51.0906  -25.9936   14.3987 H         1 UNK         0.3091 
    117 H117      -49.8255  -25.2121   17.6703 H         1 UNK         0.0702 
    118 H118      -49.5810  -27.6266   17.1820 H         1 UNK         0.0785 
    119 H119      -48.1305  -26.7617   16.6956 H         1 UNK         0.0785 
    120 H120      -49.2937  -27.2921   15.4823 H         1 UNK         0.0785 
    121 H121      -48.6587  -24.8549   15.0968 H         1 UNK         0.2998 
    122 H122      -49.5936  -21.4366   14.6368 H         1 UNK         0.0697 
    123 H123      -46.9065  -22.7346   15.3470 H         1 UNK         0.0825 
    124 H124      -47.6186  -21.3267   16.1154 H         1 UNK         0.0825 
    125 H125      -47.1137  -21.2392   14.4362 H         1 UNK         0.0825 
    126 H126      -48.0594  -23.5151   13.2436 H         1 UNK         0.3029 
    127 H127      -50.7092  -24.4629   11.1290 H         1 UNK         0.0897 
    128 H128      -49.1566  -23.7588    9.2763 H         1 UNK         0.0792 
    129 H129      -50.0258  -22.3836    9.9455 H         1 UNK         0.0792 
    130 H130      -48.3440  -22.6520   10.3784 H         1 UNK         0.0792 
    131 H131      -47.8849  -25.0006   11.1112 H         1 UNK         0.3086 
    132 H132      -47.9536  -27.6128   13.5173 H         1 UNK         0.0583 
    133 H133      -47.1432  -29.0760   11.7486 H         1 UNK         0.1020 
    134 H134      -48.8522  -28.8527   11.5881 H         1 UNK         0.1020 
    135 H135      -48.9401  -28.3430    7.8449 H         1 UNK         0.0694 
    136 H136      -49.0613  -29.5816    9.0602 H         1 UNK         0.0694 
    137 H137      -45.9161  -26.7634   11.7553 H         1 UNK         0.2989 
    138 H138      -44.9989  -23.7486   13.1407 H         1 UNK         0.1055 
    139 H139      -44.0474  -25.0929   15.0287 H         1 UNK         0.0806 
    140 H140      -42.8110  -24.6657   13.8602 H         1 UNK         0.0806 
    141 H141      -43.4717  -26.3019   13.8896 H         1 UNK         0.0806 
    142 H142      -43.3838  -25.3649   11.5469 H         1 UNK         0.3061 
    143 H143      -43.2856  -24.4080    9.2470 H         1 UNK         0.0734 
    144 H144      -43.3921  -26.6124    8.0533 H         1 UNK         0.0832 
    145 H145      -43.3807  -26.8785    9.7849 H         1 UNK         0.0832 
    146 H146      -44.8870  -27.0162    8.8871 H         1 UNK         0.0832 
    147 H147      -46.0218  -24.3819    8.2497 H         1 UNK         0.3156 
    148 H148      -46.3115  -22.9083    6.4018 H         1 UNK         0.0589 
    149 H149      -44.2080  -23.1993    4.1880 H         1 UNK         0.0808 
    150 H150      -45.7034  -22.2706    4.0900 H         1 UNK         0.0808 
    151 H151      -44.4362  -21.7817    5.2025 H         1 UNK         0.0808 
    152 H152      -45.8206  -25.0139    4.4068 H         1 UNK         0.3098 
    153 H153      -47.5710  -26.4391    3.9692 H         1 UNK         0.0720 
    154 H154      -47.3464  -28.7345    5.0340 H         1 UNK         0.0791 
    155 H155      -46.9965  -27.9577    6.5797 H         1 UNK         0.0791 
    156 H156      -45.9055  -27.7491    5.2232 H         1 UNK         0.0791 
    157 H157      -49.4075  -27.2516    6.1447 H         1 UNK         0.3028 
@<TRIPOS>BOND
     1    1    2 1    
     2    1   82 1    
     3    1   83 1    
     4    1   84 1    
     5    2    3 2    
     6    2    4 am   BACKBONE|DICT|INTERRES
     7    4    5 1    
     8    4   85 1    
     9    5    6 1    
    10    5   80 1    
    11    5   86 1    
    12    6    7 1    
    13    6   87 1    
    14    6   88 1    
    15    7    8 1    
    16    8    9 1    
    17    8   89 1    
    18    8   90 1    
    19    9   10 ar   
    20    9   14 ar   
    21   10   11 ar   
    22   10   91 1    
    23   11   12 ar   
    24   11   58 1    
    25   12   13 ar   
    26   12   92 1    
    27   13   14 ar   
    28   13   15 1    
    29   14   93 1    
    30   15   16 1    
    31   15   94 1    
    32   15   95 1    
    33   16   17 1    
    34   17   18 1    
    35   17   96 1    
    36   17   97 1    
    37   18   19 1    
    38   18   22 1    
    39   18   98 1    
    40   19   20 am   BACKBONE|DICT|INTERRES
    41   19   21 2    
    42   20   99 1    
    43   20  100 1    
    44   22   23 am   BACKBONE|DICT|INTERRES
    45   22  101 1    
    46   23   24 2    
    47   23   25 1    
    48   25   26 1    
    49   25   27 1    
    50   25  102 1    
    51   26  103 1    
    52   26  104 1    
    53   26  105 1    
    54   27   28 am   BACKBONE|DICT|INTERRES
    55   27  106 1    
    56   28   29 2    
    57   28   30 1    
    58   30   31 1    
    59   30   32 1    
    60   30  107 1    
    61   31  108 1    
    62   31  109 1    
    63   31  110 1    
    64   32   33 am   BACKBONE|DICT|INTERRES
    65   32  111 1    
    66   33   34 2    
    67   33   35 1    
    68   35   36 1    
    69   35   37 1    
    70   35  112 1    
    71   36  113 1    
    72   36  114 1    
    73   36  115 1    
    74   37   38 am   BACKBONE|DICT|INTERRES
    75   37  116 1    
    76   38   39 2    
    77   38   40 1    
    78   40   41 1    
    79   40   42 1    
    80   40  117 1    
    81   41  118 1    
    82   41  119 1    
    83   41  120 1    
    84   42   43 am   BACKBONE|DICT|INTERRES
    85   42  121 1    
    86   43   44 2    
    87   43   45 1    
    88   45   46 1    
    89   45   47 1    
    90   45  122 1    
    91   46  123 1    
    92   46  124 1    
    93   46  125 1    
    94   47   48 am   BACKBONE|DICT|INTERRES
    95   47  126 1    
    96   48   49 2    
    97   48   50 1    
    98   50   51 1    
    99   50   52 1    
   100   50  127 1    
   101   51  128 1    
   102   51  129 1    
   103   51  130 1    
   104   52   53 am   BACKBONE|DICT|INTERRES
   105   52  131 1    
   106   53   54 2    
   107   53   55 1    
   108   55   56 1    
   109   55   59 1    
   110   55  132 1    
   111   56   57 1    
   112   56  133 1    
   113   56  134 1    
   114   57   58 1    
   115   58  135 1    
   116   58  136 1    
   117   59   60 am   BACKBONE|DICT|INTERRES
   118   59  137 1    
   119   60   61 2    
   120   60   62 1    
   121   62   63 1    
   122   62   64 1    
   123   62  138 1    
   124   63  139 1    
   125   63  140 1    
   126   63  141 1    
   127   64   65 am   BACKBONE|DICT|INTERRES
   128   64  142 1    
   129   65   66 2    
   130   65   67 1    
   131   67   68 1    
   132   67   69 1    
   133   67  143 1    
   134   68  144 1    
   135   68  145 1    
   136   68  146 1    
   137   69   70 am   BACKBONE|DICT|INTERRES
   138   69  147 1    
   139   70   71 2    
   140   70   72 1    
   141   72   73 1    
   142   72   74 1    
   143   72  148 1    
   144   73  149 1    
   145   73  150 1    
   146   73  151 1    
   147   74   75 am   BACKBONE|DICT|INTERRES
   148   74  152 1    
   149   75   76 2    
   150   75   77 1    
   151   77   78 1    
   152   77   79 1    
   153   77  153 1    
   154   78  154 1    
   155   78  155 1    
   156   78  156 1    
   157   79   80 am   BACKBONE|DICT|INTERRES
   158   79  157 1    
   159   80   81 2    
@<TRIPOS>SUBSTRUCTURE
     1 UNK         1 GROUP             0       ****    0 ROOT    
