@<TRIPOS>MOLECULE
3R207
157   159    1
SMALL
USER_CHARGES


@<TRIPOS>ATOM
      1 CA        -48.9246  -29.8375    1.4293 C.3       0 UNK        -0.1975 
      2 C         -49.4217  -28.5761    2.1196 C.2       0 UNK         0.4852 
      3 O         -49.8057  -27.6202    1.4451 O.2       0 UNK        -0.5216 
      4 N         -49.4080  -28.5623    3.4596 N.am      1 UNK        -0.4461 
      5 CA        -49.8841  -27.4483    4.2954 C.3       1 UNK         0.0864 
      6 C6        -50.3520  -27.9329    5.6923 C.3       14 UNK        -0.0898 
      7 S7        -51.7806  -29.0603    5.5464 S.3       14 UNK        -0.2598 
      8 C8        -51.2104  -30.5449    6.4336 C.3       14 UNK         0.0286 
      9 C9        -51.3643  -30.3969    7.9408 C.ar      14 UNK        -0.0844 
     10 C10       -50.2411  -30.3412    8.7720 C.ar      14 UNK        -0.0881 
     11 C11       -50.3875  -30.2193   10.1591 C.ar      14 UNK        -0.0643 
     12 C12       -51.6723  -30.1563   10.7104 C.ar      14 UNK        -0.0930 
     13 C13       -52.8023  -30.2249    9.8901 C.ar      14 UNK        -0.0827 
     14 C14       -52.6413  -30.3453    8.5077 C.ar      14 UNK        -0.1249 
     15 C15       -54.1970  -30.1922   10.4951 C.3       14 UNK         0.0141 
     16 S16       -54.8210  -28.4900   10.6205 S.3       14 UNK        -0.2313 
     17 C17       -56.4859  -28.7682   11.3261 C.3       14 UNK        -0.0915 
     18 CA        -56.5907  -28.5257   12.8607 C.3       13 UNK         0.0968 
     19 C         -55.9524  -29.6724   13.6792 C.2       13 UNK         0.5732 
     20 N         -56.6739  -30.7657   13.8852 N.am      13 UNK        -0.7310 
     21 O         -54.7995  -29.5981   14.0938 O.2       13 UNK        -0.5035 
     22 N         -56.0491  -27.2247   13.2652 N.am      13 UNK        -0.4233 
     23 C         -56.6487  -26.0489   13.0617 C.2       13 UNK         0.4989 
     24 O         -57.7784  -25.9298   12.5821 O.2       13 UNK        -0.4996 
     25 CA        -55.8301  -24.7998   13.4288 C.3       12 UNK         0.0216 
     26 CB        -56.6236  -23.4816   13.2923 C.3       12 UNK        -0.1964 
     27 N         -55.1833  -24.8979   14.7414 N.am      12 UNK        -0.4276 
     28 C         -55.7677  -24.9366   15.9467 C.2       12 UNK         0.5020 
     29 O         -56.9874  -24.9745   16.1218 O.2       12 UNK        -0.5489 
     30 CA        -54.8176  -24.8703   17.1580 C.3       11 UNK         0.0294 
     31 CB        -55.5299  -25.0871   18.5115 C.3       11 UNK        -0.2019 
     32 N         -53.6390  -25.7342   17.0254 N.am      11 UNK        -0.4493 
     33 C         -53.5996  -27.0761   17.0337 C.2       11 UNK         0.4932 
     34 O         -54.6020  -27.7834   17.1385 O.2       11 UNK        -0.5029 
     35 CA        -52.2175  -27.7604   16.9316 C.3       10 UNK         0.0280 
     36 CB        -52.1941  -28.8190   15.8185 C.3       10 UNK        -0.1976 
     37 N         -51.1073  -26.8308   16.7130 N.am      10 UNK        -0.4242 
     38 C         -50.4994  -26.1079   17.6627 C.2       10 UNK         0.5072 
     39 O         -50.7703  -26.1833   18.8615 O.2       10 UNK        -0.5224 
     40 CA        -49.4381  -25.0971   17.1906 C.3       9 UNK         0.0343 
     41 CB        -48.0551  -25.7629   17.1156 C.3       9 UNK        -0.2003 
     42 N         -49.7582  -24.4757   15.8997 N.am      9 UNK        -0.4272 
     43 C         -50.8376  -23.7115   15.6690 C.2       9 UNK         0.4988 
     44 O         -51.6677  -23.4224   16.5314 O.2       9 UNK        -0.5108 
     45 CA        -51.0681  -23.2406   14.2226 C.3       8 UNK         0.0248 
     46 CB        -50.1165  -22.0906   13.8589 C.3       8 UNK        -0.2001 
     47 N         -50.9384  -24.3270   13.2483 N.am      8 UNK        -0.4140 
     48 C         -51.7006  -25.4307   13.2357 C.2       8 UNK         0.5028 
     49 O         -52.6348  -25.6265   14.0106 O.2       8 UNK        -0.5428 
     50 CA        -51.3259  -26.5267   12.2309 C.3       7 UNK         0.0264 
     51 CB        -51.8718  -26.2115   10.8297 C.3       7 UNK        -0.1988 
     52 N         -49.8805  -26.7304   12.1701 N.am      7 UNK        -0.4454 
     53 C         -49.1328  -27.2185   13.1710 C.2       7 UNK         0.5027 
     54 O         -49.5890  -27.5753   14.2570 O.2       7 UNK        -0.5083 
     55 CA        -47.6097  -27.2719   12.9293 C.3       6 UNK         0.0844 
     56 C56       -47.1526  -28.5673   12.2032 C.3       14 UNK        -0.0967 
     57 S57       -47.9684  -28.9061   10.6006 S.3       14 UNK        -0.2604 
     58 C58       -49.1675  -30.1945   11.0723 C.3       14 UNK         0.0134 
     59 N         -47.1229  -26.0399   12.2954 N.am      6 UNK        -0.4116 
     60 C         -47.1207  -24.8449   12.9139 C.2       5 UNK         0.5034 
     61 O         -47.4922  -24.6794   14.0756 O.2       5 UNK        -0.5045 
     62 CA        -46.6730  -23.6101   12.1094 C.3       5 UNK         0.0224 
     63 CB        -45.1552  -23.4084   12.2378 C.3       5 UNK        -0.1978 
     64 N         -47.0363  -23.6658   10.6941 N.am      5 UNK        -0.4737 
     65 C         -48.2780  -23.8229   10.2175 C.2       4 UNK         0.5027 
     66 O         -49.2833  -23.8080   10.9279 O.2       4 UNK        -0.5211 
     67 CA        -48.4257  -24.0941    8.7080 C.3       4 UNK         0.0297 
     68 CB        -48.9609  -22.8454    7.9908 C.3       4 UNK        -0.1993 
     69 N         -47.2127  -24.5602    8.0181 N.am      4 UNK        -0.4486 
     70 C         -46.4624  -25.6246    8.3390 C.2       3 UNK         0.4961 
     71 O         -46.6287  -26.2866    9.3623 O.2       3 UNK        -0.5105 
     72 CA        -45.3363  -26.0027    7.3572 C.3       3 UNK         0.0299 
     73 CB        -44.6397  -27.3219    7.7416 C.3       3 UNK        -0.1972 
     74 N         -45.8341  -26.1125    5.9840 N.am      3 UNK        -0.4305 
     75 C         -46.0245  -25.0858    5.1449 C.2       2 UNK         0.5006 
     76 O         -45.7868  -23.9133    5.4378 O.2       2 UNK        -0.5106 
     77 CA        -46.6214  -25.4181    3.7687 C.3       2 UNK         0.0296 
     78 CB        -45.5204  -25.8595    2.7907 C.3       2 UNK        -0.2002 
     79 N         -47.6677  -26.4436    3.8262 N.am      2 UNK        -0.4032 
     80 C         -48.8700  -26.2853    4.4032 C.2       1 UNK         0.5000 
     81 O         -49.2040  -25.2557    4.9922 O.2       1 UNK        -0.5238 
     82 H82       -49.7145  -30.2606    0.8092 H         1 UNK         0.0889 
     83 H83       -48.6116  -30.5983    2.1442 H         1 UNK         0.0889 
     84 H84       -48.0753  -29.6049    0.7874 H         1 UNK         0.0889 
     85 H85       -49.0929  -29.3810    3.9603 H         1 UNK         0.3028 
     86 H86       -50.7566  -27.0147    3.8008 H         1 UNK         0.0864 
     87 H87       -49.5358  -28.4174    6.2309 H         1 UNK         0.0720 
     88 H88       -50.6682  -27.0919    6.3127 H         1 UNK         0.0720 
     89 H89       -50.1792  -30.7706    6.1582 H         1 UNK         0.0814 
     90 H90       -51.8051  -31.3976    6.1028 H         1 UNK         0.0814 
     91 H91       -49.2495  -30.3948    8.3439 H         1 UNK         0.1469 
     92 H92       -51.7975  -30.0653   11.7809 H         1 UNK         0.1381 
     93 H93       -53.5124  -30.3963    7.8684 H         1 UNK         0.1206 
     94 H94       -54.1838  -30.6521   11.4840 H         1 UNK         0.0813 
     95 H95       -54.8814  -30.7862    9.8874 H         1 UNK         0.0813 
     96 H96       -56.8348  -29.7692   11.0660 H         1 UNK         0.0638 
     97 H97       -57.1661  -28.0882   10.8117 H         1 UNK         0.0638 
     98 H98       -57.6503  -28.5231   13.1249 H         1 UNK         0.0568 
     99 H99       -56.2657  -31.5258   14.4058 H         1 UNK         0.3450 
    100 H100      -57.6171  -30.8454   13.5386 H         1 UNK         0.3450 
    101 H101      -55.1347  -27.2614   13.6964 H         1 UNK         0.2987 
    102 H102      -55.0172  -24.7588   12.7020 H         1 UNK         0.0766 
    103 H103      -56.0007  -22.6179   13.5246 H         1 UNK         0.0798 
    104 H104      -57.4909  -23.4582   13.9527 H         1 UNK         0.0798 
    105 H105      -56.9897  -23.3509   12.2732 H         1 UNK         0.0798 
    106 H106      -54.1679  -24.9992   14.6980 H         1 UNK         0.3198 
    107 H107      -54.4294  -23.8505   17.1656 H         1 UNK         0.0843 
    108 H108      -56.0139  -26.0625   18.5664 H         1 UNK         0.0831 
    109 H109      -56.3042  -24.3350   18.6676 H         1 UNK         0.0831 
    110 H110      -54.8318  -25.0097   19.3449 H         1 UNK         0.0831 
    111 H111      -52.7638  -25.2387   16.8968 H         1 UNK         0.3133 
    112 H112      -52.0512  -28.2762   17.8794 H         1 UNK         0.0566 
    113 H113      -52.4077  -28.3796   14.8436 H         1 UNK         0.0814 
    114 H114      -51.2251  -29.3145   15.7580 H         1 UNK         0.0814 
    115 H115      -52.9395  -29.5938   16.0004 H         1 UNK         0.0814 
    116 H116      -50.7775  -26.7469   15.7567 H         1 UNK         0.3091 
    117 H117      -49.3914  -24.2998   17.9352 H         1 UNK         0.0702 
    118 H118      -47.2786  -25.0365   16.8748 H         1 UNK         0.0785 
    119 H119      -48.0258  -26.5466   16.3578 H         1 UNK         0.0785 
    120 H120      -47.7876  -26.2191   18.0697 H         1 UNK         0.0785 
    121 H121      -49.0973  -24.6379   15.1440 H         1 UNK         0.2998 
    122 H122      -52.0917  -22.8661   14.1547 H         1 UNK         0.0697 
    123 H123      -49.0719  -22.3909   13.9340 H         1 UNK         0.0825 
    124 H124      -50.2592  -21.2417   14.5287 H         1 UNK         0.0825 
    125 H125      -50.2909  -21.7361   12.8427 H         1 UNK         0.0825 
    126 H126      -50.2272  -24.2216   12.5279 H         1 UNK         0.3029 
    127 H127      -51.7838  -27.4586   12.5700 H         1 UNK         0.0897 
    128 H128      -52.9500  -26.0505   10.8616 H         1 UNK         0.0792 
    129 H129      -51.6900  -27.0374   10.1409 H         1 UNK         0.0792 
    130 H130      -51.4222  -25.3136   10.4057 H         1 UNK         0.0792 
    131 H131      -49.4143  -26.4552   11.3175 H         1 UNK         0.3086 
    132 H132      -47.1478  -27.3049   13.9188 H         1 UNK         0.0583 
    133 H133      -46.0773  -28.5204   12.0246 H         1 UNK         0.1020 
    134 H134      -47.2907  -29.4256   12.8632 H         1 UNK         0.1020 
    135 H135      -48.6758  -31.1676   11.0440 H         1 UNK         0.0694 
    136 H136      -49.4805  -30.0356   12.1053 H         1 UNK         0.0694 
    137 H137      -46.8518  -26.1027   11.3169 H         1 UNK         0.2989 
    138 H138      -47.1718  -22.7400   12.5398 H         1 UNK         0.1055 
    139 H139      -44.8582  -23.3415   13.2856 H         1 UNK         0.0806 
    140 H140      -44.8341  -22.4861   11.7533 H         1 UNK         0.0806 
    141 H141      -44.5983  -24.2344   11.7932 H         1 UNK         0.0806 
    142 H142      -46.2768  -23.7061   10.0305 H         1 UNK         0.3061 
    143 H143      -49.1690  -24.8875    8.6064 H         1 UNK         0.0734 
    144 H144      -49.1912  -23.0568    6.9461 H         1 UNK         0.0832 
    145 H145      -49.8811  -22.4899    8.4571 H         1 UNK         0.0832 
    146 H146      -48.2422  -22.0255    8.0191 H         1 UNK         0.0832 
    147 H147      -46.9681  -24.0758    7.1610 H         1 UNK         0.3156 
    148 H148      -44.5884  -25.2083    7.4033 H         1 UNK         0.0589 
    149 H149      -43.8312  -27.5615    7.0507 H         1 UNK         0.0808 
    150 H150      -44.2016  -27.2565    8.7386 H         1 UNK         0.0808 
    151 H151      -45.3377  -28.1603    7.7486 H         1 UNK         0.0808 
    152 H152      -46.0961  -27.0366    5.6734 H         1 UNK         0.3098 
    153 H153      -47.0738  -24.5037    3.3785 H         1 UNK         0.0720 
    154 H154      -45.9190  -26.0112    1.7873 H         1 UNK         0.0791 
    155 H155      -45.0431  -26.7880    3.1069 H         1 UNK         0.0791 
    156 H156      -44.7395  -25.1012    2.7152 H         1 UNK         0.0791 
    157 H157      -47.4852  -27.3136    3.3483 H         1 UNK         0.3028 
@<TRIPOS>BOND
     1    1    2 1    
     2    1   82 1    
     3    1   83 1    
     4    1   84 1    
     5    2    3 2    
     6    2    4 am   BACKBONE|DICT|INTERRES
     7    4    5 1    
     8    4   85 1    
     9    5    6 1    
    10    5   80 1    
    11    5   86 1    
    12    6    7 1    
    13    6   87 1    
    14    6   88 1    
    15    7    8 1    
    16    8    9 1    
    17    8   89 1    
    18    8   90 1    
    19    9   10 ar   
    20    9   14 ar   
    21   10   11 ar   
    22   10   91 1    
    23   11   12 ar   
    24   11   58 1    
    25   12   13 ar   
    26   12   92 1    
    27   13   14 ar   
    28   13   15 1    
    29   14   93 1    
    30   15   16 1    
    31   15   94 1    
    32   15   95 1    
    33   16   17 1    
    34   17   18 1    
    35   17   96 1    
    36   17   97 1    
    37   18   19 1    
    38   18   22 1    
    39   18   98 1    
    40   19   20 am   BACKBONE|DICT|INTERRES
    41   19   21 2    
    42   20   99 1    
    43   20  100 1    
    44   22   23 am   BACKBONE|DICT|INTERRES
    45   22  101 1    
    46   23   24 2    
    47   23   25 1    
    48   25   26 1    
    49   25   27 1    
    50   25  102 1    
    51   26  103 1    
    52   26  104 1    
    53   26  105 1    
    54   27   28 am   BACKBONE|DICT|INTERRES
    55   27  106 1    
    56   28   29 2    
    57   28   30 1    
    58   30   31 1    
    59   30   32 1    
    60   30  107 1    
    61   31  108 1    
    62   31  109 1    
    63   31  110 1    
    64   32   33 am   BACKBONE|DICT|INTERRES
    65   32  111 1    
    66   33   34 2    
    67   33   35 1    
    68   35   36 1    
    69   35   37 1    
    70   35  112 1    
    71   36  113 1    
    72   36  114 1    
    73   36  115 1    
    74   37   38 am   BACKBONE|DICT|INTERRES
    75   37  116 1    
    76   38   39 2    
    77   38   40 1    
    78   40   41 1    
    79   40   42 1    
    80   40  117 1    
    81   41  118 1    
    82   41  119 1    
    83   41  120 1    
    84   42   43 am   BACKBONE|DICT|INTERRES
    85   42  121 1    
    86   43   44 2    
    87   43   45 1    
    88   45   46 1    
    89   45   47 1    
    90   45  122 1    
    91   46  123 1    
    92   46  124 1    
    93   46  125 1    
    94   47   48 am   BACKBONE|DICT|INTERRES
    95   47  126 1    
    96   48   49 2    
    97   48   50 1    
    98   50   51 1    
    99   50   52 1    
   100   50  127 1    
   101   51  128 1    
   102   51  129 1    
   103   51  130 1    
   104   52   53 am   BACKBONE|DICT|INTERRES
   105   52  131 1    
   106   53   54 2    
   107   53   55 1    
   108   55   56 1    
   109   55   59 1    
   110   55  132 1    
   111   56   57 1    
   112   56  133 1    
   113   56  134 1    
   114   57   58 1    
   115   58  135 1    
   116   58  136 1    
   117   59   60 am   BACKBONE|DICT|INTERRES
   118   59  137 1    
   119   60   61 2    
   120   60   62 1    
   121   62   63 1    
   122   62   64 1    
   123   62  138 1    
   124   63  139 1    
   125   63  140 1    
   126   63  141 1    
   127   64   65 am   BACKBONE|DICT|INTERRES
   128   64  142 1    
   129   65   66 2    
   130   65   67 1    
   131   67   68 1    
   132   67   69 1    
   133   67  143 1    
   134   68  144 1    
   135   68  145 1    
   136   68  146 1    
   137   69   70 am   BACKBONE|DICT|INTERRES
   138   69  147 1    
   139   70   71 2    
   140   70   72 1    
   141   72   73 1    
   142   72   74 1    
   143   72  148 1    
   144   73  149 1    
   145   73  150 1    
   146   73  151 1    
   147   74   75 am   BACKBONE|DICT|INTERRES
   148   74  152 1    
   149   75   76 2    
   150   75   77 1    
   151   77   78 1    
   152   77   79 1    
   153   77  153 1    
   154   78  154 1    
   155   78  155 1    
   156   78  156 1    
   157   79   80 am   BACKBONE|DICT|INTERRES
   158   79  157 1    
   159   80   81 2    
@<TRIPOS>SUBSTRUCTURE
     1 UNK         1 GROUP             0       ****    0 ROOT    
