@<TRIPOS>MOLECULE
3R207
157   159    1
SMALL
USER_CHARGES


@<TRIPOS>ATOM
      1 CA        -50.8680  -25.8744    2.6149 C.3       0 UNK        -0.1975 
      2 C         -50.0526  -26.1291    3.8729 C.2       0 UNK         0.4852 
      3 O         -49.7631  -25.1886    4.6127 O.2       0 UNK        -0.5216 
      4 N         -49.6590  -27.3906    4.1060 N.am      1 UNK        -0.4461 
      5 CA        -48.9745  -27.8941    5.3104 C.3       1 UNK         0.0864 
      6 C6        -48.7834  -29.4317    5.2667 C.3       14 UNK        -0.0898 
      7 S7        -50.3135  -30.3549    4.8767 S.3       14 UNK        -0.2598 
      8 C8        -50.8574  -30.9730    6.5116 C.3       14 UNK         0.0286 
      9 C9        -51.8234  -30.0754    7.2927 C.ar      14 UNK        -0.0844 
     10 C10       -52.1553  -28.7728    6.8958 C.ar      14 UNK        -0.0881 
     11 C11       -53.0336  -27.9905    7.6515 C.ar      14 UNK        -0.0643 
     12 C12       -53.6160  -28.5293    8.8013 C.ar      14 UNK        -0.0930 
     13 C13       -53.3210  -29.8368    9.1984 C.ar      14 UNK        -0.0827 
     14 C14       -52.4169  -30.5953    8.4483 C.ar      14 UNK        -0.1249 
     15 C15       -54.0233  -30.4485   10.4023 C.3       14 UNK         0.0141 
     16 S16       -52.9084  -30.6758   11.8229 S.3       14 UNK        -0.2313 
     17 C17       -54.1194  -31.1233   13.1188 C.3       14 UNK        -0.0915 
     18 CA        -54.2270  -30.0828   14.2771 C.3       13 UNK         0.0968 
     19 C         -53.1226  -30.2438   15.3599 C.2       13 UNK         0.5732 
     20 N         -52.6177  -29.1847   15.9770 N.am      13 UNK        -0.7310 
     21 O         -52.7314  -31.3627   15.6848 O.2       13 UNK        -0.5035 
     22 N         -54.4155  -28.7073   13.7847 N.am      13 UNK        -0.4233 
     23 C         -55.5400  -28.2708   13.2053 C.2       13 UNK         0.4989 
     24 O         -56.5908  -28.9156   13.1839 O.2       13 UNK        -0.4996 
     25 CA        -55.4596  -26.9143   12.4782 C.3       12 UNK         0.0216 
     26 CB        -56.8053  -26.4705   11.8654 C.3       12 UNK        -0.1964 
     27 N         -54.8853  -25.8425   13.2934 N.am      12 UNK        -0.4276 
     28 C         -55.3394  -25.3640   14.4584 C.2       12 UNK         0.5020 
     29 O         -56.3419  -25.7751   15.0481 O.2       12 UNK        -0.5489 
     30 CA        -54.5350  -24.1957   15.0552 C.3       11 UNK         0.0294 
     31 CB        -55.3479  -22.8915   15.0021 C.3       11 UNK        -0.2019 
     32 N         -54.0950  -24.4413   16.4303 N.am      11 UNK        -0.4493 
     33 C         -53.3306  -25.4720   16.8100 C.2       11 UNK         0.4932 
     34 O         -53.0008  -26.4049   16.0715 O.2       11 UNK        -0.5029 
     35 CA        -52.8322  -25.4608   18.2578 C.3       10 UNK         0.0280 
     36 CB        -53.7450  -26.2980   19.1704 C.3       10 UNK        -0.1976 
     37 N         -51.4875  -26.0189   18.2349 N.am      10 UNK        -0.4242 
     38 C         -50.5044  -25.8020   19.1152 C.2       10 UNK         0.5072 
     39 O         -50.6343  -25.1245   20.1358 O.2       10 UNK        -0.5224 
     40 CA        -49.1417  -26.4553   18.8099 C.3       9 UNK         0.0343 
     41 CB        -48.9584  -27.7295   19.6509 C.3       9 UNK        -0.2003 
     42 N         -48.9958  -26.7939   17.3904 N.am      9 UNK        -0.4272 
     43 C         -48.6127  -25.9343   16.4359 C.2       9 UNK         0.4988 
     44 O         -48.1554  -24.8143   16.6754 O.2       9 UNK        -0.5108 
     45 CA        -48.7404  -26.4175   14.9725 C.3       8 UNK         0.0248 
     46 CB        -49.7301  -27.5868   14.7822 C.3       8 UNK        -0.2001 
     47 N         -49.0596  -25.3554   14.0089 N.am      8 UNK        -0.4140 
     48 C         -50.0109  -24.4099   14.0923 C.2       8 UNK         0.5028 
     49 O         -50.7735  -24.2590   15.0463 O.2       8 UNK        -0.5428 
     50 CA        -50.1472  -23.4728   12.8808 C.3       7 UNK         0.0264 
     51 CB        -48.8879  -22.6102   12.6881 C.3       7 UNK        -0.1988 
     52 N         -50.4329  -24.2039   11.6473 N.am      7 UNK        -0.4454 
     53 C         -51.5734  -24.8611   11.3872 C.2       7 UNK         0.5027 
     54 O         -52.5523  -24.8687   12.1342 O.2       7 UNK        -0.5083 
     55 CA        -51.6289  -25.6447   10.0631 C.3       6 UNK         0.0844 
     56 C56       -52.0534  -24.7176    8.8975 C.3       14 UNK        -0.0967 
     57 S57       -51.9294  -25.4777    7.2437 S.3       14 UNK        -0.2604 
     58 C58       -53.3781  -26.5797    7.1925 C.3       14 UNK         0.0134 
     59 N         -50.3635  -26.3389    9.8257 N.am      6 UNK        -0.4116 
     60 C         -49.9791  -27.4414   10.4821 C.2       5 UNK         0.5034 
     61 O         -50.6728  -28.0196   11.3160 O.2       5 UNK        -0.5045 
     62 CA        -48.5751  -27.9843   10.1736 C.3       5 UNK         0.0224 
     63 CB        -48.6555  -29.0757    9.0975 C.3       5 UNK        -0.1978 
     64 N         -47.6337  -26.9348    9.7621 N.am      5 UNK        -0.4737 
     65 C         -47.1393  -26.0239   10.6147 C.2       4 UNK         0.5027 
     66 O         -47.4146  -25.9919   11.8132 O.2       4 UNK        -0.5211 
     67 CA        -46.2072  -24.9439   10.0482 C.3       4 UNK         0.0297 
     68 CB        -44.7801  -25.4927    9.8961 C.3       4 UNK        -0.1993 
     69 N         -46.6442  -24.3781    8.7735 N.am      4 UNK        -0.4486 
     70 C         -47.8256  -23.8125    8.4988 C.2       3 UNK         0.4961 
     71 O         -48.7485  -23.7354    9.3103 O.2       3 UNK        -0.5105 
     72 CA        -48.0220  -23.2480    7.0762 C.3       3 UNK         0.0299 
     73 CB        -47.5205  -21.7948    6.9833 C.3       3 UNK        -0.1972 
     74 N         -47.4623  -24.0885    6.0052 N.am      3 UNK        -0.4305 
     75 C         -46.1814  -24.4277    5.7717 C.2       2 UNK         0.5006 
     76 O         -45.2285  -23.9299    6.3741 O.2       2 UNK        -0.5106 
     77 CA        -45.9221  -25.5679    4.7598 C.3       2 UNK         0.0296 
     78 CB        -44.6108  -26.3275    5.0537 C.3       2 UNK        -0.2002 
     79 N         -47.0418  -26.5128    4.6502 N.am      2 UNK        -0.4032 
     80 C         -47.6403  -27.1902    5.6456 C.2       1 UNK         0.5000 
     81 O         -47.2225  -27.2206    6.8059 O.2       1 UNK        -0.5238 
     82 H82       -51.8382  -25.4546    2.8794 H         1 UNK         0.0889 
     83 H83       -51.0375  -26.7882    2.0457 H         1 UNK         0.0889 
     84 H84       -50.3525  -25.1625    1.9709 H         1 UNK         0.0889 
     85 H85       -49.9257  -28.1110    3.4489 H         1 UNK         0.3028 
     86 H86       -49.6295  -27.6572    6.1490 H         1 UNK         0.0864 
     87 H87       -48.0487  -29.6922    4.5023 H         1 UNK         0.0720 
     88 H88       -48.3694  -29.7987    6.2069 H         1 UNK         0.0720 
     89 H89       -49.9876  -31.1915    7.1320 H         1 UNK         0.0814 
     90 H90       -51.3512  -31.9311    6.3424 H         1 UNK         0.0814 
     91 H91       -51.7441  -28.3485    5.9934 H         1 UNK         0.1469 
     92 H92       -54.3164  -27.9379    9.3738 H         1 UNK         0.1381 
     93 H93       -52.1882  -31.6054    8.7607 H         1 UNK         0.1206 
     94 H94       -54.8664  -29.8247   10.7019 H         1 UNK         0.0813 
     95 H95       -54.4441  -31.4151   10.1217 H         1 UNK         0.0813 
     96 H96       -53.8687  -32.1161   13.4957 H         1 UNK         0.0638 
     97 H97       -55.1012  -31.2455   12.6597 H         1 UNK         0.0638 
     98 H98       -55.1319  -30.3346   14.8329 H         1 UNK         0.0568 
     99 H99       -52.9456  -28.2374   15.8123 H         1 UNK         0.3450 
    100 H100      -51.9283  -29.3506   16.6897 H         1 UNK         0.3450 
    101 H101      -53.5914  -28.1231   13.7842 H         1 UNK         0.2987 
    102 H102      -54.7622  -27.0626   11.6526 H         1 UNK         0.0766 
    103 H103      -57.1831  -27.2186   11.1673 H         1 UNK         0.0798 
    104 H104      -56.7005  -25.5371   11.3124 H         1 UNK         0.0798 
    105 H105      -57.5691  -26.3238   12.6298 H         1 UNK         0.0798 
    106 H106      -54.0240  -25.4367   12.9209 H         1 UNK         0.3198 
    107 H107      -53.6308  -24.0516   14.4596 H         1 UNK         0.0843 
    108 H108      -56.2448  -22.9504   15.6202 H         1 UNK         0.0831 
    109 H109      -55.6693  -22.6755   13.9822 H         1 UNK         0.0831 
    110 H110      -54.7584  -22.0395   15.3413 H         1 UNK         0.0831 
    111 H111      -54.3443  -23.7433   17.1155 H         1 UNK         0.3133 
    112 H112      -52.7893  -24.4305   18.6173 H         1 UNK         0.0566 
    113 H113      -53.8056  -27.3344   18.8351 H         1 UNK         0.0814 
    114 H114      -54.7594  -25.8976   19.1807 H         1 UNK         0.0814 
    115 H115      -53.3855  -26.2992   20.1995 H         1 UNK         0.0814 
    116 H116      -51.2847  -26.5285   17.3848 H         1 UNK         0.3091 
    117 H117      -48.3620  -25.7450   19.0933 H         1 UNK         0.0702 
    118 H118      -47.9790  -28.1779   19.4832 H         1 UNK         0.0785 
    119 H119      -49.7164  -28.4797   19.4217 H         1 UNK         0.0785 
    120 H120      -49.0329  -27.5067   20.7163 H         1 UNK         0.0785 
    121 H121      -49.3030  -27.7138   17.1103 H         1 UNK         0.2998 
    122 H122      -47.7494  -26.7789   14.6949 H         1 UNK         0.0697 
    123 H123      -49.7342  -27.9231   13.7465 H         1 UNK         0.0825 
    124 H124      -50.7487  -27.2915   15.0298 H         1 UNK         0.0825 
    125 H125      -49.4683  -28.4575   15.3835 H         1 UNK         0.0825 
    126 H126      -48.4919  -25.3851   13.1635 H         1 UNK         0.3029 
    127 H127      -50.9879  -22.8029   13.0748 H         1 UNK         0.0897 
    128 H128      -48.0158  -23.2120   12.4300 H         1 UNK         0.0792 
    129 H129      -48.6488  -22.0603   13.5993 H         1 UNK         0.0792 
    130 H130      -49.0302  -21.8771   11.8937 H         1 UNK         0.0792 
    131 H131      -49.7075  -24.2007   10.9348 H         1 UNK         0.3086 
    132 H132      -52.4050  -26.4033   10.1756 H         1 UNK         0.0583 
    133 H133      -53.0750  -24.3635    9.0478 H         1 UNK         0.1020 
    134 H134      -51.4309  -23.8208    8.8765 H         1 UNK         0.1020 
    135 H135      -54.1912  -26.1562    7.7837 H         1 UNK         0.0694 
    136 H136      -53.7409  -26.6263    6.1648 H         1 UNK         0.0694 
    137 H137      -49.7238  -25.9031    9.1773 H         1 UNK         0.2989 
    138 H138      -48.1930  -28.4407   11.0899 H         1 UNK         0.1055 
    139 H139      -47.6689  -29.4545    8.8309 H         1 UNK         0.0806 
    140 H140      -49.1348  -28.7033    8.1939 H         1 UNK         0.0806 
    141 H141      -49.2494  -29.9210    9.4484 H         1 UNK         0.0806 
    142 H142      -47.3682  -26.9049    8.7803 H         1 UNK         0.3061 
    143 H143      -46.1821  -24.1240   10.7686 H         1 UNK         0.0734 
    144 H144      -44.7309  -26.2837    9.1462 H         1 UNK         0.0832 
    145 H145      -44.0822  -24.7087    9.6015 H         1 UNK         0.0832 
    146 H146      -44.4189  -25.9104   10.8370 H         1 UNK         0.0832 
    147 H147      -45.9561  -24.3585    8.0246 H         1 UNK         0.3156 
    148 H148      -49.0986  -23.2355    6.8970 H         1 UNK         0.0589 
    149 H149      -47.7183  -21.3700    5.9993 H         1 UNK         0.0808 
    150 H150      -46.4499  -21.7165    7.1741 H         1 UNK         0.0808 
    151 H151      -48.0254  -21.1643    7.7164 H         1 UNK         0.0808 
    152 H152      -48.1758  -24.5628    5.4536 H         1 UNK         0.3098 
    153 H153      -45.8221  -25.0906    3.7840 H         1 UNK         0.0720 
    154 H154      -43.7498  -25.6596    5.0063 H         1 UNK         0.0791 
    155 H155      -44.4414  -27.1225    4.3276 H         1 UNK         0.0791 
    156 H156      -44.6194  -26.7774    6.0473 H         1 UNK         0.0791 
    157 H157      -47.4878  -26.5529    3.7443 H         1 UNK         0.3028 
@<TRIPOS>BOND
     1    1    2 1    
     2    1   82 1    
     3    1   83 1    
     4    1   84 1    
     5    2    3 2    
     6    2    4 am   BACKBONE|DICT|INTERRES
     7    4    5 1    
     8    4   85 1    
     9    5    6 1    
    10    5   80 1    
    11    5   86 1    
    12    6    7 1    
    13    6   87 1    
    14    6   88 1    
    15    7    8 1    
    16    8    9 1    
    17    8   89 1    
    18    8   90 1    
    19    9   10 ar   
    20    9   14 ar   
    21   10   11 ar   
    22   10   91 1    
    23   11   12 ar   
    24   11   58 1    
    25   12   13 ar   
    26   12   92 1    
    27   13   14 ar   
    28   13   15 1    
    29   14   93 1    
    30   15   16 1    
    31   15   94 1    
    32   15   95 1    
    33   16   17 1    
    34   17   18 1    
    35   17   96 1    
    36   17   97 1    
    37   18   19 1    
    38   18   22 1    
    39   18   98 1    
    40   19   20 am   BACKBONE|DICT|INTERRES
    41   19   21 2    
    42   20   99 1    
    43   20  100 1    
    44   22   23 am   BACKBONE|DICT|INTERRES
    45   22  101 1    
    46   23   24 2    
    47   23   25 1    
    48   25   26 1    
    49   25   27 1    
    50   25  102 1    
    51   26  103 1    
    52   26  104 1    
    53   26  105 1    
    54   27   28 am   BACKBONE|DICT|INTERRES
    55   27  106 1    
    56   28   29 2    
    57   28   30 1    
    58   30   31 1    
    59   30   32 1    
    60   30  107 1    
    61   31  108 1    
    62   31  109 1    
    63   31  110 1    
    64   32   33 am   BACKBONE|DICT|INTERRES
    65   32  111 1    
    66   33   34 2    
    67   33   35 1    
    68   35   36 1    
    69   35   37 1    
    70   35  112 1    
    71   36  113 1    
    72   36  114 1    
    73   36  115 1    
    74   37   38 am   BACKBONE|DICT|INTERRES
    75   37  116 1    
    76   38   39 2    
    77   38   40 1    
    78   40   41 1    
    79   40   42 1    
    80   40  117 1    
    81   41  118 1    
    82   41  119 1    
    83   41  120 1    
    84   42   43 am   BACKBONE|DICT|INTERRES
    85   42  121 1    
    86   43   44 2    
    87   43   45 1    
    88   45   46 1    
    89   45   47 1    
    90   45  122 1    
    91   46  123 1    
    92   46  124 1    
    93   46  125 1    
    94   47   48 am   BACKBONE|DICT|INTERRES
    95   47  126 1    
    96   48   49 2    
    97   48   50 1    
    98   50   51 1    
    99   50   52 1    
   100   50  127 1    
   101   51  128 1    
   102   51  129 1    
   103   51  130 1    
   104   52   53 am   BACKBONE|DICT|INTERRES
   105   52  131 1    
   106   53   54 2    
   107   53   55 1    
   108   55   56 1    
   109   55   59 1    
   110   55  132 1    
   111   56   57 1    
   112   56  133 1    
   113   56  134 1    
   114   57   58 1    
   115   58  135 1    
   116   58  136 1    
   117   59   60 am   BACKBONE|DICT|INTERRES
   118   59  137 1    
   119   60   61 2    
   120   60   62 1    
   121   62   63 1    
   122   62   64 1    
   123   62  138 1    
   124   63  139 1    
   125   63  140 1    
   126   63  141 1    
   127   64   65 am   BACKBONE|DICT|INTERRES
   128   64  142 1    
   129   65   66 2    
   130   65   67 1    
   131   67   68 1    
   132   67   69 1    
   133   67  143 1    
   134   68  144 1    
   135   68  145 1    
   136   68  146 1    
   137   69   70 am   BACKBONE|DICT|INTERRES
   138   69  147 1    
   139   70   71 2    
   140   70   72 1    
   141   72   73 1    
   142   72   74 1    
   143   72  148 1    
   144   73  149 1    
   145   73  150 1    
   146   73  151 1    
   147   74   75 am   BACKBONE|DICT|INTERRES
   148   74  152 1    
   149   75   76 2    
   150   75   77 1    
   151   77   78 1    
   152   77   79 1    
   153   77  153 1    
   154   78  154 1    
   155   78  155 1    
   156   78  156 1    
   157   79   80 am   BACKBONE|DICT|INTERRES
   158   79  157 1    
   159   80   81 2    
@<TRIPOS>SUBSTRUCTURE
     1 UNK         1 GROUP             0       ****    0 ROOT    
