@<TRIPOS>MOLECULE
3R207
157   159    1
SMALL
USER_CHARGES


@<TRIPOS>ATOM
      1 CA        -49.2884  -28.6826    9.8131 C.3       0 UNK        -0.1975 
      2 C         -49.3132  -28.6186    8.2948 C.2       0 UNK         0.4852 
      3 O         -48.2888  -28.8416    7.6480 O.2       0 UNK        -0.5216 
      4 N         -50.4816  -28.3152    7.7185 N.am      1 UNK        -0.4461 
      5 CA        -50.7238  -28.2441    6.2733 C.3       1 UNK         0.0864 
      6 C6        -52.2167  -28.4803    5.9210 C.3       14 UNK        -0.0898 
      7 S7        -52.8131  -30.1334    6.4140 S.3       14 UNK        -0.2598 
      8 C8        -54.1329  -29.7264    7.6005 C.3       14 UNK         0.0286 
      9 C9        -53.5677  -29.3089    8.9487 C.ar      14 UNK        -0.0844 
     10 C10       -53.4049  -27.9568    9.2626 C.ar      14 UNK        -0.0881 
     11 C11       -52.8826  -27.5763   10.5014 C.ar      14 UNK        -0.0643 
     12 C12       -52.5435  -28.5590   11.4375 C.ar      14 UNK        -0.0930 
     13 C13       -52.6986  -29.9148   11.1330 C.ar      14 UNK        -0.0827 
     14 C14       -53.2116  -30.2819    9.8863 C.ar      14 UNK        -0.1249 
     15 C15       -52.2649  -30.9838   12.1276 C.3       14 UNK         0.0141 
     16 S16       -53.5011  -31.2733   13.4312 S.3       14 UNK        -0.2313 
     17 C17       -54.7729  -32.2395   12.5417 C.3       14 UNK        -0.0915 
     18 CA        -56.1596  -31.5467   12.4747 C.3       13 UNK         0.0968 
     19 C         -56.9697  -31.7147   13.7912 C.2       13 UNK         0.5732 
     20 N         -57.1104  -30.6962   14.6278 N.am      13 UNK        -0.7310 
     21 O         -57.4997  -32.7938   14.0471 O.2       13 UNK        -0.5035 
     22 N         -56.0545  -30.1752   11.9599 N.am      13 UNK        -0.4233 
     23 C         -57.0597  -29.4789   11.4182 C.2       13 UNK         0.4989 
     24 O         -58.2184  -29.8914   11.3366 O.2       13 UNK        -0.4996 
     25 CA        -56.6773  -28.1133   10.8208 C.3       12 UNK         0.0216 
     26 CB        -57.8785  -27.3277   10.2488 C.3       12 UNK        -0.1964 
     27 N         -55.8758  -27.2959   11.7418 N.am      12 UNK        -0.4276 
     28 C         -56.2908  -26.7228   12.8794 C.2       12 UNK         0.5020 
     29 O         -57.4387  -26.8149   13.3204 O.2       12 UNK        -0.5489 
     30 CA        -55.2367  -25.8936   13.6469 C.3       11 UNK         0.0294 
     31 CB        -55.8958  -24.9277   14.6525 C.3       11 UNK        -0.2019 
     32 N         -54.2015  -26.6683   14.3512 N.am      11 UNK        -0.4493 
     33 C         -54.3471  -27.7862   15.0766 C.2       11 UNK         0.4932 
     34 O         -55.3423  -28.5078   15.0404 O.2       11 UNK        -0.5029 
     35 CA        -53.2084  -28.1212   16.0651 C.3       10 UNK         0.0280 
     36 CB        -53.4977  -29.3902   16.8908 C.3       10 UNK        -0.1976 
     37 N         -51.8686  -28.2400   15.4808 N.am      10 UNK        -0.4242 
     38 C         -51.0998  -27.2300   15.0556 C.2       10 UNK         0.5072 
     39 O         -51.5096  -26.0807   14.8760 O.2       10 UNK        -0.5224 
     40 CA        -49.6245  -27.5751   14.7834 C.3       9 UNK         0.0343 
     41 CB        -49.4144  -28.0273   13.3301 C.3       9 UNK        -0.2003 
     42 N         -48.7306  -26.4503   15.0701 N.am      9 UNK        -0.4272 
     43 C         -48.4738  -25.9621   16.2931 C.2       9 UNK         0.4988 
     44 O         -48.9671  -26.4171   17.3261 O.2       9 UNK        -0.5108 
     45 CA        -47.4848  -24.7892   16.3981 C.3       8 UNK         0.0248 
     46 CB        -46.0371  -25.3081   16.3781 C.3       8 UNK        -0.2001 
     47 N         -47.6628  -23.8194   15.3153 N.am      8 UNK        -0.4140 
     48 C         -47.9874  -22.5270   15.4768 C.2       8 UNK         0.5028 
     49 O         -48.1457  -21.9907   16.5745 O.2       8 UNK        -0.5428 
     50 CA        -48.1678  -21.6740   14.2025 C.3       7 UNK         0.0264 
     51 CB        -46.8815  -20.8912   13.8943 C.3       7 UNK        -0.1988 
     52 N         -48.5397  -22.4726   13.0319 N.am      7 UNK        -0.4454 
     53 C         -49.7210  -23.0973   12.9016 C.2       7 UNK         0.5027 
     54 O         -50.6819  -22.8662   13.6359 O.2       7 UNK        -0.5083 
     55 CA        -49.8578  -24.1985   11.8255 C.3       6 UNK         0.0844 
     56 C56       -50.9987  -23.8936   10.8268 C.3       14 UNK        -0.0967 
     57 S57       -51.3740  -25.3640    9.8165 S.3       14 UNK        -0.2604 
     58 C58       -52.6914  -26.1040   10.8266 C.3       14 UNK         0.0134 
     59 N         -48.6079  -24.5314   11.1320 N.am      6 UNK        -0.4116 
     60 C         -47.5148  -25.0787   11.6783 C.2       5 UNK         0.5034 
     61 O         -47.4279  -25.3910   12.8651 O.2       5 UNK        -0.5045 
     62 CA        -46.2881  -25.2318   10.7665 C.3       5 UNK         0.0224 
     63 CB        -46.2335  -26.6441   10.1678 C.3       5 UNK        -0.1978 
     64 N         -46.2297  -24.2363    9.6884 N.am      5 UNK        -0.4737 
     65 C         -46.1236  -22.9106    9.8806 C.2       4 UNK         0.5027 
     66 O         -46.1280  -22.3972   11.0004 O.2       4 UNK        -0.5211 
     67 CA        -46.0492  -21.9989    8.6373 C.3       4 UNK         0.0297 
     68 CB        -45.1000  -20.8007    8.8506 C.3       4 UNK        -0.1993 
     69 N         -45.7390  -22.7048    7.3868 N.am      4 UNK        -0.4486 
     70 C         -44.6216  -23.3820    7.0795 C.2       3 UNK         0.4961 
     71 O         -43.6322  -23.4441    7.8107 O.2       3 UNK        -0.5105 
     72 CA        -44.6241  -24.1311    5.7299 C.3       3 UNK         0.0299 
     73 CB        -43.6833  -25.3553    5.7377 C.3       3 UNK        -0.1972 
     74 N         -45.9632  -24.5186    5.2550 N.am      3 UNK        -0.4305 
     75 C         -46.8463  -25.3218    5.8700 C.2       2 UNK         0.5006 
     76 O         -46.6767  -25.7919    6.9968 O.2       2 UNK        -0.5106 
     77 CA        -48.1454  -25.6168    5.1036 C.3       2 UNK         0.0296 
     78 CB        -47.8963  -25.9455    3.6148 C.3       2 UNK        -0.2002 
     79 N         -48.8646  -26.7241    5.7333 N.am      2 UNK        -0.4032 
     80 C         -50.1851  -26.9283    5.6638 C.2       1 UNK         0.5000 
     81 O         -50.9621  -26.1338    5.1276 O.2       1 UNK        -0.5238 
     82 H82       -48.3140  -29.0123   10.1722 H         1 UNK         0.0889 
     83 H83       -50.0355  -29.3862   10.1771 H         1 UNK         0.0889 
     84 H84       -49.4947  -27.7012   10.2375 H         1 UNK         0.0889 
     85 H85       -51.2887  -28.1445    8.3035 H         1 UNK         0.3028 
     86 H86       -50.1571  -29.0484    5.7984 H         1 UNK         0.0864 
     87 H87       -52.3658  -28.4041    4.8422 H         1 UNK         0.0720 
     88 H88       -52.8442  -27.7055    6.3631 H         1 UNK         0.0720 
     89 H89       -54.7687  -30.6035    7.7305 H         1 UNK         0.0814 
     90 H90       -54.7772  -28.9475    7.1895 H         1 UNK         0.0814 
     91 H91       -53.6790  -27.1963    8.5436 H         1 UNK         0.1469 
     92 H92       -52.1476  -28.2721   12.4005 H         1 UNK         0.1381 
     93 H93       -53.3251  -31.3282    9.6372 H         1 UNK         0.1206 
     94 H94       -51.3295  -30.6853   12.5988 H         1 UNK         0.0813 
     95 H95       -52.0483  -31.9228   11.6156 H         1 UNK         0.0813 
     96 H96       -54.8499  -33.2224   13.0102 H         1 UNK         0.0638 
     97 H97       -54.4256  -32.4362   11.5272 H         1 UNK         0.0638 
     98 H98       -56.7328  -32.1014   11.7290 H         1 UNK         0.0568 
     99 H99       -57.6492  -30.8244   15.4681 H         1 UNK         0.3450 
    100 H100      -56.5885  -29.8341   14.4953 H         1 UNK         0.3450 
    101 H101      -55.1340  -29.7639   12.0122 H         1 UNK         0.2987 
    102 H102      -56.0315  -28.3405    9.9741 H         1 UNK         0.0766 
    103 H103      -58.3713  -27.8950    9.4584 H         1 UNK         0.0798 
    104 H104      -57.5626  -26.3786    9.8161 H         1 UNK         0.0798 
    105 H105      -58.6312  -27.1174   11.0089 H         1 UNK         0.0798 
    106 H106      -54.9010  -27.2028   11.4941 H         1 UNK         0.3198 
    107 H107      -54.7205  -25.2792   12.9084 H         1 UNK         0.0843 
    108 H108      -56.3958  -25.4662   15.4588 H         1 UNK         0.0831 
    109 H109      -56.6445  -24.3024   14.1642 H         1 UNK         0.0831 
    110 H110      -55.1611  -24.2596   15.1021 H         1 UNK         0.0831 
    111 H111      -53.2976  -26.2072   14.4499 H         1 UNK         0.3133 
    112 H112      -53.1771  -27.2889   16.7715 H         1 UNK         0.0566 
    113 H113      -52.7364  -29.5522   17.6540 H         1 UNK         0.0814 
    114 H114      -53.5404  -30.2806   16.2632 H         1 UNK         0.0814 
    115 H115      -54.4551  -29.3126   17.4080 H         1 UNK         0.0814 
    116 H116      -51.4559  -29.1602   15.5322 H         1 UNK         0.3091 
    117 H117      -49.3321  -28.3960   15.4419 H         1 UNK         0.0702 
    118 H118      -48.3589  -28.1921   13.1119 H         1 UNK         0.0785 
    119 H119      -49.7917  -27.2963   12.6171 H         1 UNK         0.0785 
    120 H120      -49.9276  -28.9675   13.1378 H         1 UNK         0.0785 
    121 H121      -48.2617  -26.0393   14.2662 H         1 UNK         0.2998 
    122 H122      -47.6570  -24.3123   17.3652 H         1 UNK         0.0697 
    123 H123      -45.7932  -25.7909   15.4307 H         1 UNK         0.0825 
    124 H124      -45.8723  -26.0393   17.1708 H         1 UNK         0.0825 
    125 H125      -45.3253  -24.4971   16.5327 H         1 UNK         0.0825 
    126 H126      -47.5578  -24.1797   14.3724 H         1 UNK         0.3029 
    127 H127      -48.9679  -20.9560   14.3961 H         1 UNK         0.0897 
    128 H128      -46.0407  -21.5581   13.6982 H         1 UNK         0.0792 
    129 H129      -46.6027  -20.2520   14.7332 H         1 UNK         0.0792 
    130 H130      -47.0068  -20.2476   13.0233 H         1 UNK         0.0792 
    131 H131      -47.8008  -22.6620   12.3630 H         1 UNK         0.3086 
    132 H132      -50.1491  -25.0855   12.3888 H         1 UNK         0.0583 
    133 H133      -51.9076  -23.5765   11.3428 H         1 UNK         0.1020 
    134 H134      -50.7250  -23.0690   10.1663 H         1 UNK         0.1020 
    135 H135      -52.4496  -25.9809   11.8838 H         1 UNK         0.0694 
    136 H136      -53.6193  -25.5588   10.6492 H         1 UNK         0.0694 
    137 H137      -48.5771  -24.3103   10.1478 H         1 UNK         0.2989 
    138 H138      -45.4052  -25.0916   11.3940 H         1 UNK         0.1055 
    139 H139      -47.0662  -26.8231    9.4878 H         1 UNK         0.0806 
    140 H140      -46.2747  -27.4055   10.9481 H         1 UNK         0.0806 
    141 H141      -45.3111  -26.8015    9.6084 H         1 UNK         0.0806 
    142 H142      -46.2364  -24.5960    8.7394 H         1 UNK         0.3061 
    143 H143      -47.0553  -21.5968    8.5096 H         1 UNK         0.0734 
    144 H144      -44.0810  -21.1233    9.0661 H         1 UNK         0.0832 
    145 H145      -45.0701  -20.1553    7.9729 H         1 UNK         0.0832 
    146 H146      -45.4272  -20.1864    9.6905 H         1 UNK         0.0832 
    147 H147      -46.4851  -22.7249    6.7056 H         1 UNK         0.3156 
    148 H148      -44.2354  -23.4235    4.9962 H         1 UNK         0.0589 
    149 H149      -43.6824  -25.8620    4.7727 H         1 UNK         0.0808 
    150 H150      -42.6542  -25.0602    5.9461 H         1 UNK         0.0808 
    151 H151      -43.9730  -26.0819    6.4978 H         1 UNK         0.0808 
    152 H152      -46.2134  -24.1627    4.3424 H         1 UNK         0.3098 
    153 H153      -48.7583  -24.7156    5.1712 H         1 UNK         0.0720 
    154 H154      -47.2188  -26.7929    3.5002 H         1 UNK         0.0791 
    155 H155      -47.4633  -25.1007    3.0789 H         1 UNK         0.0791 
    156 H156      -48.8254  -26.1939    3.1014 H         1 UNK         0.0791 
    157 H157      -48.3010  -27.3624    6.2911 H         1 UNK         0.3028 
@<TRIPOS>BOND
     1    1    2 1    
     2    1   82 1    
     3    1   83 1    
     4    1   84 1    
     5    2    3 2    
     6    2    4 am   BACKBONE|DICT|INTERRES
     7    4    5 1    
     8    4   85 1    
     9    5    6 1    
    10    5   80 1    
    11    5   86 1    
    12    6    7 1    
    13    6   87 1    
    14    6   88 1    
    15    7    8 1    
    16    8    9 1    
    17    8   89 1    
    18    8   90 1    
    19    9   10 ar   
    20    9   14 ar   
    21   10   11 ar   
    22   10   91 1    
    23   11   12 ar   
    24   11   58 1    
    25   12   13 ar   
    26   12   92 1    
    27   13   14 ar   
    28   13   15 1    
    29   14   93 1    
    30   15   16 1    
    31   15   94 1    
    32   15   95 1    
    33   16   17 1    
    34   17   18 1    
    35   17   96 1    
    36   17   97 1    
    37   18   19 1    
    38   18   22 1    
    39   18   98 1    
    40   19   20 am   BACKBONE|DICT|INTERRES
    41   19   21 2    
    42   20   99 1    
    43   20  100 1    
    44   22   23 am   BACKBONE|DICT|INTERRES
    45   22  101 1    
    46   23   24 2    
    47   23   25 1    
    48   25   26 1    
    49   25   27 1    
    50   25  102 1    
    51   26  103 1    
    52   26  104 1    
    53   26  105 1    
    54   27   28 am   BACKBONE|DICT|INTERRES
    55   27  106 1    
    56   28   29 2    
    57   28   30 1    
    58   30   31 1    
    59   30   32 1    
    60   30  107 1    
    61   31  108 1    
    62   31  109 1    
    63   31  110 1    
    64   32   33 am   BACKBONE|DICT|INTERRES
    65   32  111 1    
    66   33   34 2    
    67   33   35 1    
    68   35   36 1    
    69   35   37 1    
    70   35  112 1    
    71   36  113 1    
    72   36  114 1    
    73   36  115 1    
    74   37   38 am   BACKBONE|DICT|INTERRES
    75   37  116 1    
    76   38   39 2    
    77   38   40 1    
    78   40   41 1    
    79   40   42 1    
    80   40  117 1    
    81   41  118 1    
    82   41  119 1    
    83   41  120 1    
    84   42   43 am   BACKBONE|DICT|INTERRES
    85   42  121 1    
    86   43   44 2    
    87   43   45 1    
    88   45   46 1    
    89   45   47 1    
    90   45  122 1    
    91   46  123 1    
    92   46  124 1    
    93   46  125 1    
    94   47   48 am   BACKBONE|DICT|INTERRES
    95   47  126 1    
    96   48   49 2    
    97   48   50 1    
    98   50   51 1    
    99   50   52 1    
   100   50  127 1    
   101   51  128 1    
   102   51  129 1    
   103   51  130 1    
   104   52   53 am   BACKBONE|DICT|INTERRES
   105   52  131 1    
   106   53   54 2    
   107   53   55 1    
   108   55   56 1    
   109   55   59 1    
   110   55  132 1    
   111   56   57 1    
   112   56  133 1    
   113   56  134 1    
   114   57   58 1    
   115   58  135 1    
   116   58  136 1    
   117   59   60 am   BACKBONE|DICT|INTERRES
   118   59  137 1    
   119   60   61 2    
   120   60   62 1    
   121   62   63 1    
   122   62   64 1    
   123   62  138 1    
   124   63  139 1    
   125   63  140 1    
   126   63  141 1    
   127   64   65 am   BACKBONE|DICT|INTERRES
   128   64  142 1    
   129   65   66 2    
   130   65   67 1    
   131   67   68 1    
   132   67   69 1    
   133   67  143 1    
   134   68  144 1    
   135   68  145 1    
   136   68  146 1    
   137   69   70 am   BACKBONE|DICT|INTERRES
   138   69  147 1    
   139   70   71 2    
   140   70   72 1    
   141   72   73 1    
   142   72   74 1    
   143   72  148 1    
   144   73  149 1    
   145   73  150 1    
   146   73  151 1    
   147   74   75 am   BACKBONE|DICT|INTERRES
   148   74  152 1    
   149   75   76 2    
   150   75   77 1    
   151   77   78 1    
   152   77   79 1    
   153   77  153 1    
   154   78  154 1    
   155   78  155 1    
   156   78  156 1    
   157   79   80 am   BACKBONE|DICT|INTERRES
   158   79  157 1    
   159   80   81 2    
@<TRIPOS>SUBSTRUCTURE
     1 UNK         1 GROUP             0       ****    0 ROOT    
