@<TRIPOS>MOLECULE
3R207
157   159    1
SMALL
USER_CHARGES


@<TRIPOS>ATOM
      1 CA        -46.9877  -28.4525    7.5287 C.3       0 UNK        -0.1975 
      2 C         -48.3386  -28.4188    6.8295 C.2       0 UNK         0.4852 
      3 O         -48.6756  -29.3565    6.1064 O.2       0 UNK        -0.5216 
      4 N         -49.0969  -27.3301    7.0145 N.am      1 UNK        -0.4461 
      5 CA        -50.3479  -27.0446    6.3010 C.3       1 UNK         0.0864 
      6 C6        -51.1999  -25.9767    7.0446 C.3       14 UNK        -0.0898 
      7 S7        -52.9588  -26.4479    7.1433 S.3       14 UNK        -0.2598 
      8 C8        -53.1611  -26.7802    8.9227 C.3       14 UNK         0.0286 
      9 C9        -52.5081  -28.0883    9.3493 C.ar      14 UNK        -0.0844 
     10 C10       -51.1768  -28.1088    9.7739 C.ar      14 UNK        -0.0881 
     11 C11       -50.5734  -29.2980   10.2050 C.ar      14 UNK        -0.0643 
     12 C12       -51.3299  -30.4738   10.2012 C.ar      14 UNK        -0.0930 
     13 C13       -52.6604  -30.4722    9.7721 C.ar      14 UNK        -0.0827 
     14 C14       -53.2430  -29.2760    9.3440 C.ar      14 UNK        -0.1249 
     15 C15       -53.4586  -31.7684    9.7461 C.3       14 UNK         0.0141 
     16 S16       -54.8766  -31.7396   10.8866 S.3       14 UNK        -0.2313 
     17 C17       -54.0616  -31.7837   12.5195 C.3       14 UNK        -0.0915 
     18 CA        -54.9790  -31.1930   13.6221 C.3       13 UNK         0.0968 
     19 C         -54.4606  -31.5153   15.0543 C.2       13 UNK         0.5732 
     20 N         -54.2215  -30.5424   15.9241 N.am      13 UNK        -0.7310 
     21 O         -54.2917  -32.6844   15.3932 O.2       13 UNK        -0.5035 
     22 N         -55.2838  -29.7757   13.3635 N.am      13 UNK        -0.4233 
     23 C         -56.3778  -29.1436   13.8034 C.2       13 UNK         0.4989 
     24 O         -57.2223  -29.6699   14.5307 O.2       13 UNK        -0.4996 
     25 CA        -56.5763  -27.6952   13.3298 C.3       12 UNK         0.0216 
     26 CB        -57.5338  -26.8961   14.2366 C.3       12 UNK        -0.1964 
     27 N         -55.3036  -26.9800   13.2261 N.am      12 UNK        -0.4276 
     28 C         -55.0136  -26.0664   12.2873 C.2       12 UNK         0.5020 
     29 O         -55.7318  -25.8528   11.3086 O.2       12 UNK        -0.5489 
     30 CA        -53.7254  -25.2314   12.4803 C.3       11 UNK         0.0294 
     31 CB        -53.8037  -23.8543   11.7878 C.3       11 UNK        -0.2019 
     32 N         -53.3318  -25.0762   13.8862 N.am      11 UNK        -0.4493 
     33 C         -54.0808  -24.5949   14.8931 C.2       11 UNK         0.4932 
     34 O         -55.1592  -24.0221   14.7316 O.2       11 UNK        -0.5029 
     35 CA        -53.5653  -24.8391   16.3277 C.3       10 UNK         0.0280 
     36 CB        -54.7191  -25.0657   17.3271 C.3       10 UNK        -0.1976 
     37 N         -52.5839  -25.9281   16.4344 N.am      10 UNK        -0.4242 
     38 C         -52.7310  -27.2149   16.0696 C.2       10 UNK         0.5072 
     39 O         -53.7759  -27.6754   15.6020 O.2       10 UNK        -0.5224 
     40 CA        -51.4944  -28.1308   16.1650 C.3       9 UNK         0.0343 
     41 CB        -51.2503  -28.8505   14.8242 C.3       9 UNK        -0.2003 
     42 N         -50.2880  -27.3758   16.5105 N.am      9 UNK        -0.4272 
     43 C         -49.7516  -27.2783   17.7350 C.2       9 UNK         0.4988 
     44 O         -50.1671  -27.8950   18.7161 O.2       9 UNK        -0.5108 
     45 CA        -48.5602  -26.3133   17.9058 C.3       8 UNK         0.0248 
     46 CB        -47.2338  -27.0893   17.8615 C.3       8 UNK        -0.2001 
     47 N         -48.5204  -25.2343   16.9111 N.am      8 UNK        -0.4140 
     48 C         -49.4376  -24.2625   16.7917 C.2       8 UNK         0.5028 
     49 O         -50.4000  -24.1383   17.5484 O.2       8 UNK        -0.5428 
     50 CA        -49.3067  -23.3222   15.5777 C.3       7 UNK         0.0264 
     51 CB        -48.4433  -22.1006   15.9290 C.3       7 UNK        -0.1988 
     52 N         -48.7683  -23.9783   14.3779 N.am      7 UNK        -0.4454 
     53 C         -49.3298  -25.0364   13.7744 C.2       7 UNK         0.5027 
     54 O         -50.3839  -25.5518   14.1566 O.2       7 UNK        -0.5083 
     55 CA        -48.5703  -25.6209   12.5666 C.3       6 UNK         0.0844 
     56 C56       -49.0635  -27.0533   12.2302 C.3       14 UNK        -0.0967 
     57 S57       -48.2069  -27.8019   10.8097 S.3       14 UNK        -0.2604 
     58 C58       -49.1159  -29.3818   10.6716 C.3       14 UNK         0.0134 
     59 N         -48.5886  -24.6817   11.4379 N.am      6 UNK        -0.4116 
     60 C         -49.6574  -24.3011   10.7234 C.2       5 UNK         0.5034 
     61 O         -50.7892  -24.7509   10.8813 O.2       5 UNK        -0.5045 
     62 CA        -49.4389  -23.2211    9.6497 C.3       5 UNK         0.0224 
     63 CB        -49.9249  -21.8573   10.1675 C.3       5 UNK        -0.1978 
     64 N         -48.0457  -23.0984    9.2054 N.am      5 UNK        -0.4737 
     65 C         -47.4571  -23.9381    8.3466 C.2       4 UNK         0.5027 
     66 O         -48.0147  -24.9202    7.8492 O.2       4 UNK        -0.5211 
     67 CA        -45.9971  -23.6431    7.9913 C.3       4 UNK         0.0297 
     68 CB        -45.0457  -24.2164    9.0559 C.3       4 UNK        -0.1993 
     69 N         -45.7211  -24.2602    6.6997 N.am      4 UNK        -0.4486 
     70 C         -44.8638  -23.8170    5.7752 C.2       3 UNK         0.4961 
     71 O         -44.1277  -22.8423    5.9321 O.2       3 UNK        -0.5105 
     72 CA        -44.8175  -24.5930    4.4458 C.3       3 UNK         0.0299 
     73 CB        -43.7079  -25.6564    4.4885 C.3       3 UNK        -0.1972 
     74 N         -46.0896  -25.2376    4.0968 N.am      3 UNK        -0.4305 
     75 C         -47.1800  -24.5893    3.6587 C.2       2 UNK         0.5006 
     76 O         -47.2466  -23.3685    3.5166 O.2       2 UNK        -0.5106 
     77 CA        -48.4114  -25.4526    3.3640 C.3       2 UNK         0.0296 
     78 CB        -48.1045  -26.5716    2.3455 C.3       2 UNK        -0.2002 
     79 N         -48.9034  -25.9915    4.6279 N.am      2 UNK        -0.4032 
     80 C         -50.0721  -26.6102    4.8437 C.2       1 UNK         0.5000 
     81 O         -50.9077  -26.8343    3.9660 O.2       1 UNK        -0.5238 
     82 H82       -46.8003  -27.5409    8.0963 H         1 UNK         0.0889 
     83 H83       -46.1882  -28.5654    6.7972 H         1 UNK         0.0889 
     84 H84       -46.9410  -29.2960    8.2164 H         1 UNK         0.0889 
     85 H85       -48.7406  -26.5651    7.5860 H         1 UNK         0.3028 
     86 H86       -50.9067  -27.9824    6.2562 H         1 UNK         0.0864 
     87 H87       -50.8253  -25.8090    8.0534 H         1 UNK         0.0720 
     88 H88       -51.1365  -24.9938    6.5726 H         1 UNK         0.0720 
     89 H89       -54.2277  -26.8128    9.1496 H         1 UNK         0.0814 
     90 H90       -52.7597  -25.9464    9.4994 H         1 UNK         0.0814 
     91 H91       -50.6173  -27.1869    9.7687 H         1 UNK         0.1469 
     92 H92       -50.8751  -31.3992   10.5278 H         1 UNK         0.1381 
     93 H93       -54.2726  -29.2704    9.0125 H         1 UNK         0.1206 
     94 H94       -53.8280  -31.9330    8.7330 H         1 UNK         0.0813 
     95 H95       -52.8271  -32.6259    9.9836 H         1 UNK         0.0813 
     96 H96       -53.1173  -31.2383   12.4810 H         1 UNK         0.0638 
     97 H97       -53.8108  -32.8247   12.7311 H         1 UNK         0.0638 
     98 H98       -55.9251  -31.7343   13.5573 H         1 UNK         0.0568 
     99 H99       -53.9086  -30.7860   16.8492 H         1 UNK         0.3450 
    100 H100      -54.3269  -29.5672   15.6676 H         1 UNK         0.3450 
    101 H101      -54.6395  -29.2814   12.7652 H         1 UNK         0.2987 
    102 H102      -57.0320  -27.7726   12.3407 H         1 UNK         0.0766 
    103 H103      -58.5153  -27.3684   14.2919 H         1 UNK         0.0798 
    104 H104      -57.6844  -25.8842   13.8597 H         1 UNK         0.0798 
    105 H105      -57.1463  -26.8179   15.2532 H         1 UNK         0.0798 
    106 H106      -54.6648  -27.1102   14.0093 H         1 UNK         0.3198 
    107 H107      -52.9252  -25.8019   12.0075 H         1 UNK         0.0843 
    108 H108      -54.6388  -23.2609   12.1607 H         1 UNK         0.0831 
    109 H109      -53.9358  -23.9652   10.7111 H         1 UNK         0.0831 
    110 H110      -52.8886  -23.2827   11.9412 H         1 UNK         0.0831 
    111 H111      -52.4176  -25.4536   14.1194 H         1 UNK         0.3133 
    112 H112      -53.0427  -23.9279   16.6209 H         1 UNK         0.0566 
    113 H113      -55.3247  -25.9307   17.0543 H         1 UNK         0.0814 
    114 H114      -55.3841  -24.2021   17.3641 H         1 UNK         0.0814 
    115 H115      -54.3428  -25.2247   18.3376 H         1 UNK         0.0814 
    116 H116      -51.6821  -25.6386   16.7958 H         1 UNK         0.3091 
    117 H117      -51.7002  -28.8840   16.9279 H         1 UNK         0.0702 
    118 H118      -50.3374  -29.4455   14.8504 H         1 UNK         0.0785 
    119 H119      -51.1709  -28.1459   13.9970 H         1 UNK         0.0785 
    120 H120      -52.0666  -29.5297   14.5825 H         1 UNK         0.0785 
    121 H121      -49.9179  -26.7945   15.7683 H         1 UNK         0.2998 
    122 H122      -48.6545  -25.8524   18.8914 H         1 UNK         0.0697 
    123 H123      -47.0717  -27.5596   16.8907 H         1 UNK         0.0825 
    124 H124      -47.2199  -27.8808   18.6123 H         1 UNK         0.0825 
    125 H125      -46.3843  -26.4377   18.0669 H         1 UNK         0.0825 
    126 H126      -47.7580  -25.2539   16.2495 H         1 UNK         0.3029 
    127 H127      -50.3119  -22.9710   15.3334 H         1 UNK         0.0897 
    128 H128      -47.4134  -22.3819   16.1523 H         1 UNK         0.0792 
    129 H129      -48.8373  -21.5842   16.8058 H         1 UNK         0.0792 
    130 H130      -48.4258  -21.3785   15.1124 H         1 UNK         0.0792 
    131 H131      -47.9108  -23.6006   14.0004 H         1 UNK         0.3086 
    132 H132      -47.5252  -25.7058   12.8686 H         1 UNK         0.0583 
    133 H133      -48.9119  -27.7093   13.0891 H         1 UNK         0.1020 
    134 H134      -50.1372  -27.0523   12.0412 H         1 UNK         0.1020 
    135 H135      -48.5731  -30.0204    9.9739 H         1 UNK         0.0694 
    136 H136      -49.0792  -29.8850   11.6391 H         1 UNK         0.0694 
    137 H137      -47.7040  -24.2556   11.2076 H         1 UNK         0.2989 
    138 H138      -50.0547  -23.4956    8.7900 H         1 UNK         0.1055 
    139 H139      -49.8554  -21.0914    9.3949 H         1 UNK         0.0806 
    140 H140      -49.3473  -21.5208   11.0294 H         1 UNK         0.0806 
    141 H141      -50.9703  -21.9077   10.4765 H         1 UNK         0.0806 
    142 H142      -47.5206  -22.3109    9.5600 H         1 UNK         0.3061 
    143 H143      -45.8662  -22.5612    7.9173 H         1 UNK         0.0734 
    144 H144      -45.1752  -25.2933    9.1738 H         1 UNK         0.0832 
    145 H145      -44.0032  -24.0322    8.7953 H         1 UNK         0.0832 
    146 H146      -45.2201  -23.7566   10.0292 H         1 UNK         0.0832 
    147 H147      -46.3228  -25.0417    6.4844 H         1 UNK         0.3156 
    148 H148      -44.5710  -23.8785    3.6572 H         1 UNK         0.0589 
    149 H149      -43.9000  -26.4133    5.2501 H         1 UNK         0.0808 
    150 H150      -42.7424  -25.2028    4.7176 H         1 UNK         0.0808 
    151 H151      -43.6049  -26.1625    3.5284 H         1 UNK         0.0808 
    152 H152      -46.1169  -26.2454    4.1567 H         1 UNK         0.3098 
    153 H153      -49.1815  -24.8016    2.9449 H         1 UNK         0.0720 
    154 H154      -47.6162  -26.1691    1.4568 H         1 UNK         0.0791 
    155 H155      -49.0178  -27.0632    2.0103 H         1 UNK         0.0791 
    156 H156      -47.4522  -27.3401    2.7610 H         1 UNK         0.0791 
    157 H157      -48.3302  -25.8052    5.4384 H         1 UNK         0.3028 
@<TRIPOS>BOND
     1    1    2 1    
     2    1   82 1    
     3    1   83 1    
     4    1   84 1    
     5    2    3 2    
     6    2    4 am   BACKBONE|DICT|INTERRES
     7    4    5 1    
     8    4   85 1    
     9    5    6 1    
    10    5   80 1    
    11    5   86 1    
    12    6    7 1    
    13    6   87 1    
    14    6   88 1    
    15    7    8 1    
    16    8    9 1    
    17    8   89 1    
    18    8   90 1    
    19    9   10 ar   
    20    9   14 ar   
    21   10   11 ar   
    22   10   91 1    
    23   11   12 ar   
    24   11   58 1    
    25   12   13 ar   
    26   12   92 1    
    27   13   14 ar   
    28   13   15 1    
    29   14   93 1    
    30   15   16 1    
    31   15   94 1    
    32   15   95 1    
    33   16   17 1    
    34   17   18 1    
    35   17   96 1    
    36   17   97 1    
    37   18   19 1    
    38   18   22 1    
    39   18   98 1    
    40   19   20 am   BACKBONE|DICT|INTERRES
    41   19   21 2    
    42   20   99 1    
    43   20  100 1    
    44   22   23 am   BACKBONE|DICT|INTERRES
    45   22  101 1    
    46   23   24 2    
    47   23   25 1    
    48   25   26 1    
    49   25   27 1    
    50   25  102 1    
    51   26  103 1    
    52   26  104 1    
    53   26  105 1    
    54   27   28 am   BACKBONE|DICT|INTERRES
    55   27  106 1    
    56   28   29 2    
    57   28   30 1    
    58   30   31 1    
    59   30   32 1    
    60   30  107 1    
    61   31  108 1    
    62   31  109 1    
    63   31  110 1    
    64   32   33 am   BACKBONE|DICT|INTERRES
    65   32  111 1    
    66   33   34 2    
    67   33   35 1    
    68   35   36 1    
    69   35   37 1    
    70   35  112 1    
    71   36  113 1    
    72   36  114 1    
    73   36  115 1    
    74   37   38 am   BACKBONE|DICT|INTERRES
    75   37  116 1    
    76   38   39 2    
    77   38   40 1    
    78   40   41 1    
    79   40   42 1    
    80   40  117 1    
    81   41  118 1    
    82   41  119 1    
    83   41  120 1    
    84   42   43 am   BACKBONE|DICT|INTERRES
    85   42  121 1    
    86   43   44 2    
    87   43   45 1    
    88   45   46 1    
    89   45   47 1    
    90   45  122 1    
    91   46  123 1    
    92   46  124 1    
    93   46  125 1    
    94   47   48 am   BACKBONE|DICT|INTERRES
    95   47  126 1    
    96   48   49 2    
    97   48   50 1    
    98   50   51 1    
    99   50   52 1    
   100   50  127 1    
   101   51  128 1    
   102   51  129 1    
   103   51  130 1    
   104   52   53 am   BACKBONE|DICT|INTERRES
   105   52  131 1    
   106   53   54 2    
   107   53   55 1    
   108   55   56 1    
   109   55   59 1    
   110   55  132 1    
   111   56   57 1    
   112   56  133 1    
   113   56  134 1    
   114   57   58 1    
   115   58  135 1    
   116   58  136 1    
   117   59   60 am   BACKBONE|DICT|INTERRES
   118   59  137 1    
   119   60   61 2    
   120   60   62 1    
   121   62   63 1    
   122   62   64 1    
   123   62  138 1    
   124   63  139 1    
   125   63  140 1    
   126   63  141 1    
   127   64   65 am   BACKBONE|DICT|INTERRES
   128   64  142 1    
   129   65   66 2    
   130   65   67 1    
   131   67   68 1    
   132   67   69 1    
   133   67  143 1    
   134   68  144 1    
   135   68  145 1    
   136   68  146 1    
   137   69   70 am   BACKBONE|DICT|INTERRES
   138   69  147 1    
   139   70   71 2    
   140   70   72 1    
   141   72   73 1    
   142   72   74 1    
   143   72  148 1    
   144   73  149 1    
   145   73  150 1    
   146   73  151 1    
   147   74   75 am   BACKBONE|DICT|INTERRES
   148   74  152 1    
   149   75   76 2    
   150   75   77 1    
   151   77   78 1    
   152   77   79 1    
   153   77  153 1    
   154   78  154 1    
   155   78  155 1    
   156   78  156 1    
   157   79   80 am   BACKBONE|DICT|INTERRES
   158   79  157 1    
   159   80   81 2    
@<TRIPOS>SUBSTRUCTURE
     1 UNK         1 GROUP             0       ****    0 ROOT    
