@<TRIPOS>MOLECULE
3R207
157   159    1
SMALL
USER_CHARGES


@<TRIPOS>ATOM
      1 CA        -46.3440  -31.7956    5.7981 C.3       0 UNK        -0.1975 
      2 C         -47.4697  -30.9027    5.2981 C.2       0 UNK         0.4852 
      3 O         -47.5183  -30.5861    4.1090 O.2       0 UNK        -0.5216 
      4 N         -48.3731  -30.4917    6.1979 N.am      1 UNK        -0.4461 
      5 CA        -49.5159  -29.6139    5.9111 C.3       1 UNK         0.0864 
      6 C6        -50.6147  -29.7225    6.9980 C.3       14 UNK        -0.0898 
      7 S7        -50.0111  -29.5219    8.7116 S.3       14 UNK        -0.2598 
      8 C8        -51.4697  -30.0859    9.6469 C.3       14 UNK         0.0286 
      9 C9        -52.6001  -29.0722    9.5624 C.ar      14 UNK        -0.0844 
     10 C10       -52.6093  -27.9712   10.4170 C.ar      14 UNK        -0.0881 
     11 C11       -53.5941  -26.9863   10.3050 C.ar      14 UNK        -0.0643 
     12 C12       -54.6190  -27.1455    9.3633 C.ar      14 UNK        -0.0930 
     13 C13       -54.6466  -28.2714    8.5301 C.ar      14 UNK        -0.0827 
     14 C14       -53.6213  -29.2182    8.6227 C.ar      14 UNK        -0.1249 
     15 C15       -55.7586  -28.4621    7.5038 C.3       14 UNK         0.0141 
     16 S16       -57.2727  -29.2044    8.2090 S.3       14 UNK        -0.2313 
     17 C17       -56.6603  -30.7694    8.9419 C.3       14 UNK        -0.0915 
     18 CA        -56.7249  -30.8167   10.4983 C.3       13 UNK         0.0968 
     19 C         -55.9010  -32.0099   11.0614 C.2       13 UNK         0.5732 
     20 N         -54.8713  -31.7850   11.8688 N.am      13 UNK        -0.7310 
     21 O         -56.2076  -33.1617   10.7624 O.2       13 UNK        -0.5035 
     22 N         -56.4279  -29.5117   11.1060 N.am      13 UNK        -0.4233 
     23 C         -56.8280  -29.1128   12.3166 C.2       13 UNK         0.4989 
     24 O         -57.3609  -29.8419   13.1561 O.2       13 UNK        -0.4996 
     25 CA        -56.6958  -27.6093   12.5819 C.3       12 UNK         0.0216 
     26 CB        -57.9874  -26.8788   12.1788 C.3       12 UNK        -0.1964 
     27 N         -56.3902  -27.3117   13.9789 N.am      12 UNK        -0.4276 
     28 C         -55.1604  -27.3630   14.4986 C.2       12 UNK         0.5020 
     29 O         -54.1581  -27.7252   13.8767 O.2       12 UNK        -0.5489 
     30 CA        -55.0088  -26.8992   15.9484 C.3       11 UNK         0.0294 
     31 CB        -54.9196  -28.0932   16.9135 C.3       11 UNK        -0.2019 
     32 N         -53.7843  -26.1121   16.0121 N.am      11 UNK        -0.4493 
     33 C         -53.5551  -25.0654   16.8119 C.2       11 UNK         0.4932 
     34 O         -54.3650  -24.6582   17.6467 O.2       11 UNK        -0.5029 
     35 CA        -52.2024  -24.3422   16.6337 C.3       10 UNK         0.0280 
     36 CB        -51.7524  -23.5874   17.9023 C.3       10 UNK        -0.1976 
     37 N         -51.1289  -25.2124   16.1371 N.am      10 UNK        -0.4242 
     38 C         -50.6346  -26.3103   16.7317 C.2       10 UNK         0.5072 
     39 O         -51.0163  -26.7473   17.8183 O.2       10 UNK        -0.5224 
     40 CA        -49.5247  -27.0551   15.9750 C.3       9 UNK         0.0343 
     41 CB        -50.1274  -27.9187   14.8534 C.3       9 UNK        -0.2003 
     42 N         -48.5137  -26.1528   15.4193 N.am      9 UNK        -0.4272 
     43 C         -47.6660  -25.4127   16.1493 C.2       9 UNK         0.4988 
     44 O         -47.6109  -25.4436   17.3794 O.2       9 UNK        -0.5108 
     45 CA        -46.7131  -24.4802   15.3820 C.3       8 UNK         0.0248 
     46 CB        -45.5065  -25.2629   14.8393 C.3       8 UNK        -0.2001 
     47 N         -47.3733  -23.7603   14.2900 N.am      8 UNK        -0.4140 
     48 C         -48.3105  -22.8161   14.4630 C.2       8 UNK         0.5028 
     49 O         -48.6786  -22.4086   15.5653 O.2       8 UNK        -0.5428 
     50 CA        -48.9642  -22.2339   13.1967 C.3       7 UNK         0.0264 
     51 CB        -48.0853  -21.1296   12.5884 C.3       7 UNK        -0.1988 
     52 N         -49.2645  -23.2441   12.1782 N.am      7 UNK        -0.4454 
     53 C         -50.1074  -24.2726   12.3550 C.2       7 UNK         0.5027 
     54 O         -50.7412  -24.4652   13.3950 O.2       7 UNK        -0.5083 
     55 CA        -50.2078  -25.3059   11.2129 C.3       6 UNK         0.0844 
     56 C56       -51.0965  -24.8568   10.0235 C.3       14 UNK        -0.0967 
     57 S57       -52.7959  -24.3102   10.4179 S.3       14 UNK        -0.2604 
     58 C58       -53.5456  -25.7651   11.2160 C.3       14 UNK         0.0134 
     59 N         -48.8887  -25.7300   10.7415 N.am      6 UNK        -0.4116 
     60 C         -47.9504  -26.3260   11.4889 C.2       5 UNK         0.5034 
     61 O         -48.1079  -26.6513   12.6635 O.2       5 UNK        -0.5045 
     62 CA        -46.5785  -26.5350   10.8322 C.3       5 UNK         0.0224 
     63 CB        -46.5747  -27.7877    9.9402 C.3       5 UNK        -0.1978 
     64 N         -46.1611  -25.3590   10.0634 N.am      5 UNK        -0.4737 
     65 C         -45.8514  -24.1747   10.6120 C.2       4 UNK         0.5027 
     66 O         -45.8360  -23.9671   11.8240 O.2       4 UNK        -0.5211 
     67 CA        -45.5491  -23.0172    9.6464 C.3       4 UNK         0.0297 
     68 CB        -44.0836  -23.0661    9.1866 C.3       4 UNK        -0.1993 
     69 N         -46.4326  -23.0114    8.4783 N.am      4 UNK        -0.4486 
     70 C         -47.7555  -22.7963    8.5266 C.2       3 UNK         0.4961 
     71 O         -48.3705  -22.5278    9.5576 O.2       3 UNK        -0.5105 
     72 CA        -48.5300  -22.9703    7.2083 C.3       3 UNK         0.0299 
     73 CB        -48.4832  -21.6784    6.3776 C.3       3 UNK        -0.1972 
     74 N         -48.0420  -24.0972    6.4046 N.am      3 UNK        -0.4305 
     75 C         -48.0519  -25.3745    6.8100 C.2       2 UNK         0.5006 
     76 O         -48.4918  -25.7416    7.9017 O.2       2 UNK        -0.5106 
     77 CA        -47.3772  -26.3900    5.8756 C.3       2 UNK         0.0296 
     78 CB        -45.8610  -26.4253    6.1339 C.3       2 UNK        -0.2002 
     79 N         -47.9152  -27.7385    6.0532 N.am      2 UNK        -0.4032 
     80 C         -49.1212  -28.1449    5.6326 C.2       1 UNK         0.5000 
     81 O         -49.9053  -27.4200    5.0156 O.2       1 UNK        -0.5238 
     82 H82       -46.4237  -31.9929    6.8670 H         1 UNK         0.0889 
     83 H83       -45.3796  -31.3239    5.6112 H         1 UNK         0.0889 
     84 H84       -46.3632  -32.7513    5.2749 H         1 UNK         0.0889 
     85 H85       -48.2928  -30.7841    7.1624 H         1 UNK         0.3028 
     86 H86       -49.9624  -29.9709    4.9801 H         1 UNK         0.0864 
     87 H87       -51.0871  -30.7031    6.9226 H         1 UNK         0.0720 
     88 H88       -51.4112  -28.9984    6.8156 H         1 UNK         0.0720 
     89 H89       -51.1859  -30.2343   10.6899 H         1 UNK         0.0814 
     90 H90       -51.7950  -31.0603    9.2793 H         1 UNK         0.0814 
     91 H91       -51.8299  -27.8817   11.1571 H         1 UNK         0.1469 
     92 H92       -55.3913  -26.3929    9.2783 H         1 UNK         0.1381 
     93 H93       -53.6127  -30.0709    7.9580 H         1 UNK         0.1206 
     94 H94       -56.0143  -27.4984    7.0610 H         1 UNK         0.0813 
     95 H95       -55.4100  -29.0867    6.6797 H         1 UNK         0.0813 
     96 H96       -55.6497  -30.9628    8.5858 H         1 UNK         0.0638 
     97 H97       -57.2626  -31.5813    8.5310 H         1 UNK         0.0638 
     98 H98       -57.7622  -31.0379   10.7570 H         1 UNK         0.0568 
     99 H99       -54.3475  -32.5650   12.2319 H         1 UNK         0.3450 
    100 H100      -54.6213  -30.8423   12.1214 H         1 UNK         0.3450 
    101 H101      -55.9825  -28.8492   10.4861 H         1 UNK         0.2987 
    102 H102      -55.8873  -27.2274   11.9622 H         1 UNK         0.0766 
    103 H103      -58.2261  -27.0574   11.1291 H         1 UNK         0.0798 
    104 H104      -57.8905  -25.8005   12.3072 H         1 UNK         0.0798 
    105 H105      -58.8423  -27.2132   12.7681 H         1 UNK         0.0798 
    106 H106      -57.1688  -27.0591   14.5706 H         1 UNK         0.3198 
    107 H107      -55.8629  -26.2734   16.2172 H         1 UNK         0.0843 
    108 H108      -54.8023  -27.7605   17.9450 H         1 UNK         0.0831 
    109 H109      -54.0753  -28.7411   16.6736 H         1 UNK         0.0831 
    110 H110      -55.8237  -28.7015   16.8673 H         1 UNK         0.0831 
    111 H111      -53.0958  -26.3639   15.3135 H         1 UNK         0.3133 
    112 H112      -52.3625  -23.5989   15.8514 H         1 UNK         0.0566 
    113 H113      -50.8035  -23.0754   17.7404 H         1 UNK         0.0814 
    114 H114      -51.6306  -24.2599   18.7518 H         1 UNK         0.0814 
    115 H115      -52.4832  -22.8302   18.1888 H         1 UNK         0.0814 
    116 H116      -50.7748  -24.9676   15.2137 H         1 UNK         0.3091 
    117 H117      -49.0258  -27.7192   16.6838 H         1 UNK         0.0702 
    118 H118      -49.3641  -28.5306   14.3726 H         1 UNK         0.0785 
    119 H119      -50.6000  -27.3095   14.0816 H         1 UNK         0.0785 
    120 H120      -50.8875  -28.5963   15.2450 H         1 UNK         0.0785 
    121 H121      -48.4403  -26.1248   14.4043 H         1 UNK         0.2998 
    122 H122      -46.3392  -23.7367   16.0892 H         1 UNK         0.0697 
    123 H123      -45.8057  -26.0063   14.1002 H         1 UNK         0.0825 
    124 H124      -44.9892  -25.7898   15.6422 H         1 UNK         0.0825 
    125 H125      -44.7822  -24.5977   14.3689 H         1 UNK         0.0825 
    126 H126      -47.0676  -23.9812   13.3460 H         1 UNK         0.3029 
    127 H127      -49.9131  -21.7846   13.4975 H         1 UNK         0.0897 
    128 H128      -47.1291  -21.5209   12.2401 H         1 UNK         0.0792 
    129 H129      -47.8725  -20.3510   13.3222 H         1 UNK         0.0792 
    130 H130      -48.5786  -20.6517   11.7418 H         1 UNK         0.0792 
    131 H131      -48.8162  -23.1250   11.2716 H         1 UNK         0.3086 
    132 H132      -50.6593  -26.1881   11.6600 H         1 UNK         0.0583 
    133 H133      -50.6134  -24.0338    9.4964 H         1 UNK         0.1020 
    134 H134      -51.1643  -25.6649    9.2926 H         1 UNK         0.1020 
    135 H135      -53.0058  -25.9911   12.1365 H         1 UNK         0.0694 
    136 H136      -54.5544  -25.4896   11.5222 H         1 UNK         0.0694 
    137 H137      -48.6803  -25.5594    9.7604 H         1 UNK         0.2989 
    138 H138      -45.8511  -26.6881   11.6325 H         1 UNK         0.1055 
    139 H139      -46.8391  -28.6739   10.5188 H         1 UNK         0.0806 
    140 H140      -47.2931  -27.7138    9.1242 H         1 UNK         0.0806 
    141 H141      -45.5897  -27.9661    9.5089 H         1 UNK         0.0806 
    142 H142      -46.2018  -25.4298    9.0582 H         1 UNK         0.3061 
    143 H143      -45.7053  -22.0828   10.1898 H         1 UNK         0.0734 
    144 H144      -43.8660  -23.9687    8.6142 H         1 UNK         0.0832 
    145 H145      -43.8327  -22.2053    8.5666 H         1 UNK         0.0832 
    146 H146      -43.4076  -23.0535   10.0430 H         1 UNK         0.0832 
    147 H147      -46.0127  -23.2149    7.5834 H         1 UNK         0.3156 
    148 H148      -49.5727  -23.1725    7.4606 H         1 UNK         0.0589 
    149 H149      -49.1021  -21.7585    5.4837 H         1 UNK         0.0808 
    150 H150      -48.8595  -20.8319    6.9541 H         1 UNK         0.0808 
    151 H151      -47.4681  -21.4325    6.0633 H         1 UNK         0.0808 
    152 H152      -47.6584  -23.8760    5.4964 H         1 UNK         0.3098 
    153 H153      -47.5513  -26.0840    4.8417 H         1 UNK         0.0720 
    154 H154      -45.6287  -26.7392    7.1520 H         1 UNK         0.0791 
    155 H155      -45.4106  -25.4434    5.9833 H         1 UNK         0.0791 
    156 H156      -45.3610  -27.1133    5.4516 H         1 UNK         0.0791 
    157 H157      -47.3528  -28.3923    6.5756 H         1 UNK         0.3028 
@<TRIPOS>BOND
     1    1    2 1    
     2    1   82 1    
     3    1   83 1    
     4    1   84 1    
     5    2    3 2    
     6    2    4 am   BACKBONE|DICT|INTERRES
     7    4    5 1    
     8    4   85 1    
     9    5    6 1    
    10    5   80 1    
    11    5   86 1    
    12    6    7 1    
    13    6   87 1    
    14    6   88 1    
    15    7    8 1    
    16    8    9 1    
    17    8   89 1    
    18    8   90 1    
    19    9   10 ar   
    20    9   14 ar   
    21   10   11 ar   
    22   10   91 1    
    23   11   12 ar   
    24   11   58 1    
    25   12   13 ar   
    26   12   92 1    
    27   13   14 ar   
    28   13   15 1    
    29   14   93 1    
    30   15   16 1    
    31   15   94 1    
    32   15   95 1    
    33   16   17 1    
    34   17   18 1    
    35   17   96 1    
    36   17   97 1    
    37   18   19 1    
    38   18   22 1    
    39   18   98 1    
    40   19   20 am   BACKBONE|DICT|INTERRES
    41   19   21 2    
    42   20   99 1    
    43   20  100 1    
    44   22   23 am   BACKBONE|DICT|INTERRES
    45   22  101 1    
    46   23   24 2    
    47   23   25 1    
    48   25   26 1    
    49   25   27 1    
    50   25  102 1    
    51   26  103 1    
    52   26  104 1    
    53   26  105 1    
    54   27   28 am   BACKBONE|DICT|INTERRES
    55   27  106 1    
    56   28   29 2    
    57   28   30 1    
    58   30   31 1    
    59   30   32 1    
    60   30  107 1    
    61   31  108 1    
    62   31  109 1    
    63   31  110 1    
    64   32   33 am   BACKBONE|DICT|INTERRES
    65   32  111 1    
    66   33   34 2    
    67   33   35 1    
    68   35   36 1    
    69   35   37 1    
    70   35  112 1    
    71   36  113 1    
    72   36  114 1    
    73   36  115 1    
    74   37   38 am   BACKBONE|DICT|INTERRES
    75   37  116 1    
    76   38   39 2    
    77   38   40 1    
    78   40   41 1    
    79   40   42 1    
    80   40  117 1    
    81   41  118 1    
    82   41  119 1    
    83   41  120 1    
    84   42   43 am   BACKBONE|DICT|INTERRES
    85   42  121 1    
    86   43   44 2    
    87   43   45 1    
    88   45   46 1    
    89   45   47 1    
    90   45  122 1    
    91   46  123 1    
    92   46  124 1    
    93   46  125 1    
    94   47   48 am   BACKBONE|DICT|INTERRES
    95   47  126 1    
    96   48   49 2    
    97   48   50 1    
    98   50   51 1    
    99   50   52 1    
   100   50  127 1    
   101   51  128 1    
   102   51  129 1    
   103   51  130 1    
   104   52   53 am   BACKBONE|DICT|INTERRES
   105   52  131 1    
   106   53   54 2    
   107   53   55 1    
   108   55   56 1    
   109   55   59 1    
   110   55  132 1    
   111   56   57 1    
   112   56  133 1    
   113   56  134 1    
   114   57   58 1    
   115   58  135 1    
   116   58  136 1    
   117   59   60 am   BACKBONE|DICT|INTERRES
   118   59  137 1    
   119   60   61 2    
   120   60   62 1    
   121   62   63 1    
   122   62   64 1    
   123   62  138 1    
   124   63  139 1    
   125   63  140 1    
   126   63  141 1    
   127   64   65 am   BACKBONE|DICT|INTERRES
   128   64  142 1    
   129   65   66 2    
   130   65   67 1    
   131   67   68 1    
   132   67   69 1    
   133   67  143 1    
   134   68  144 1    
   135   68  145 1    
   136   68  146 1    
   137   69   70 am   BACKBONE|DICT|INTERRES
   138   69  147 1    
   139   70   71 2    
   140   70   72 1    
   141   72   73 1    
   142   72   74 1    
   143   72  148 1    
   144   73  149 1    
   145   73  150 1    
   146   73  151 1    
   147   74   75 am   BACKBONE|DICT|INTERRES
   148   74  152 1    
   149   75   76 2    
   150   75   77 1    
   151   77   78 1    
   152   77   79 1    
   153   77  153 1    
   154   78  154 1    
   155   78  155 1    
   156   78  156 1    
   157   79   80 am   BACKBONE|DICT|INTERRES
   158   79  157 1    
   159   80   81 2    
@<TRIPOS>SUBSTRUCTURE
     1 UNK         1 GROUP             0       ****    0 ROOT    
