@<TRIPOS>MOLECULE
3R207
157   159    1
SMALL
USER_CHARGES


@<TRIPOS>ATOM
      1 CA        -48.8031  -32.4716    4.9425 C.3       0 UNK        -0.1975 
      2 C         -49.3812  -31.1420    5.4037 C.2       0 UNK         0.4852 
      3 O         -50.5226  -30.8239    5.0689 O.2       0 UNK        -0.5216 
      4 N         -48.6002  -30.3666    6.1687 N.am      1 UNK        -0.4461 
      5 CA        -48.9855  -29.0622    6.7263 C.3       1 UNK         0.0864 
      6 C6        -47.9675  -28.5675    7.7866 C.3       14 UNK        -0.0898 
      7 S7        -47.7801  -29.7422    9.1717 S.3       14 UNK        -0.2598 
      8 C8        -48.7275  -28.9406   10.5049 C.3       14 UNK         0.0286 
      9 C9        -50.2029  -28.8034   10.1629 C.ar      14 UNK        -0.0844 
     10 C10       -50.7037  -27.5942    9.6738 C.ar      14 UNK        -0.0881 
     11 C11       -52.0658  -27.4438    9.3839 C.ar      14 UNK        -0.0643 
     12 C12       -52.9166  -28.5402    9.5626 C.ar      14 UNK        -0.0930 
     13 C13       -52.4264  -29.7612   10.0377 C.ar      14 UNK        -0.0827 
     14 C14       -51.0688  -29.8832   10.3433 C.ar      14 UNK        -0.1249 
     15 C15       -53.3499  -30.9576   10.2126 C.3       14 UNK         0.0141 
     16 S16       -53.8972  -31.1110   11.9408 S.3       14 UNK        -0.2313 
     17 C17       -55.7028  -30.8767   11.7983 C.3       14 UNK        -0.0915 
     18 CA        -56.1484  -29.4431   11.3983 C.3       13 UNK         0.0968 
     19 C         -57.6998  -29.3190   11.4554 C.2       13 UNK         0.5732 
     20 N         -58.2790  -28.5448   12.3674 N.am      13 UNK        -0.7310 
     21 O         -58.3912  -29.9392   10.6509 O.2       13 UNK        -0.5035 
     22 N         -55.4266  -28.4137   12.1555 N.am      13 UNK        -0.4233 
     23 C         -55.3842  -27.1119   11.8492 C.2       13 UNK         0.4989 
     24 O         -55.8665  -26.6367   10.8201 O.2       13 UNK        -0.4996 
     25 CA        -54.6841  -26.1907   12.8700 C.3       12 UNK         0.0216 
     26 CB        -55.2198  -24.7441   12.8277 C.3       12 UNK        -0.1964 
     27 N         -54.7033  -26.6970   14.2502 N.am      12 UNK        -0.4276 
     28 C         -55.7751  -27.0491   14.9805 C.2       12 UNK         0.5020 
     29 O         -56.9339  -27.0156   14.5629 O.2       12 UNK        -0.5489 
     30 CA        -55.5097  -27.5813   16.3997 C.3       11 UNK         0.0294 
     31 CB        -55.6560  -29.1119   16.4269 C.3       11 UNK        -0.2019 
     32 N         -54.1845  -27.2225   16.9096 N.am      11 UNK        -0.4493 
     33 C         -53.8251  -26.0062   17.3343 C.2       11 UNK         0.4932 
     34 O         -54.5982  -25.0506   17.3998 O.2       11 UNK        -0.5029 
     35 CA        -52.3537  -25.8118   17.7346 C.3       10 UNK         0.0280 
     36 CB        -52.0901  -26.3254   19.1630 C.3       10 UNK        -0.1976 
     37 N         -51.3799  -26.3557   16.7768 N.am      10 UNK        -0.4242 
     38 C         -51.1117  -27.6307   16.4518 C.2       10 UNK         0.5072 
     39 O         -51.7443  -28.5950   16.8848 O.2       10 UNK        -0.5224 
     40 CA        -49.9510  -27.8814   15.4669 C.3       9 UNK         0.0343 
     41 CB        -50.4940  -28.2303   14.0705 C.3       9 UNK        -0.2003 
     42 N         -49.0224  -26.7512   15.3581 N.am      9 UNK        -0.4272 
     43 C         -48.2076  -26.3264   16.3365 C.2       9 UNK         0.4988 
     44 O         -48.0572  -26.9134   17.4082 O.2       9 UNK        -0.5108 
     45 CA        -47.4770  -24.9940   16.0994 C.3       8 UNK         0.0248 
     46 CB        -46.1215  -25.2221   15.4098 C.3       8 UNK        -0.2001 
     47 N         -48.2879  -24.0538   15.3181 N.am      8 UNK        -0.4140 
     48 C         -49.3552  -23.3953   15.7958 C.2       8 UNK         0.5028 
     49 O         -49.7345  -23.4680   16.9641 O.2       8 UNK        -0.5428 
     50 CA        -50.1572  -22.5360   14.8023 C.3       7 UNK         0.0264 
     51 CB        -49.5630  -21.1216   14.7090 C.3       7 UNK        -0.1988 
     52 N         -50.2265  -23.1251   13.4633 N.am      7 UNK        -0.4454 
     53 C         -50.9180  -24.2328   13.1533 C.2       7 UNK         0.5027 
     54 O         -51.6254  -24.8424   13.9560 O.2       7 UNK        -0.5083 
     55 CA        -50.7513  -24.7775   11.7176 C.3       6 UNK         0.0844 
     56 C56       -51.8456  -24.2064   10.7793 C.3       14 UNK        -0.0967 
     57 S57       -51.6176  -24.6467    9.0195 S.3       14 UNK        -0.2604 
     58 C58       -52.6559  -26.1415    8.8348 C.3       14 UNK         0.0134 
     59 N         -49.4008  -24.5686   11.1824 N.am      6 UNK        -0.4116 
     60 C         -48.2582  -25.0288   11.7092 C.2       5 UNK         0.5034 
     61 O         -48.2147  -25.6806   12.7517 O.2       5 UNK        -0.5045 
     62 CA        -46.9482  -24.7025   10.9673 C.3       5 UNK         0.0224 
     63 CB        -46.1176  -25.9694   10.6987 C.3       5 UNK        -0.1978 
     64 N         -47.1746  -24.0154    9.6943 N.am      5 UNK        -0.4737 
     65 C         -47.3048  -22.6976    9.5149 C.2       4 UNK         0.5027 
     66 O         -47.2137  -21.8840   10.4346 O.2       4 UNK        -0.5211 
     67 CA        -47.6166  -22.2204    8.0764 C.3       4 UNK         0.0297 
     68 CB        -47.4232  -20.7015    7.9094 C.3       4 UNK        -0.1993 
     69 N         -46.8546  -22.9138    7.0263 N.am      4 UNK        -0.4486 
     70 C         -47.0309  -24.1800    6.6266 C.2       3 UNK         0.4961 
     71 O         -47.8292  -24.9566    7.1559 O.2       3 UNK        -0.5105 
     72 CA        -46.1133  -24.6810    5.5002 C.3       3 UNK         0.0299 
     73 CB        -44.7538  -25.1125    6.0752 C.3       3 UNK        -0.1972 
     74 N         -46.7190  -25.8227    4.8152 N.am      3 UNK        -0.4305 
     75 C         -47.7072  -25.7411    3.9133 C.2       2 UNK         0.5006 
     76 O         -48.1157  -24.6824    3.4337 O.2       2 UNK        -0.5106 
     77 CA        -48.3564  -27.0686    3.4794 C.3       2 UNK         0.0296 
     78 CB        -47.6248  -27.6593    2.2630 C.3       2 UNK        -0.2002 
     79 N         -48.3880  -28.0600    4.5596 N.am      2 UNK        -0.4032 
     80 C         -49.1839  -27.9846    5.6389 C.2       1 UNK         0.5000 
     81 O         -50.0470  -27.1194    5.7922 O.2       1 UNK        -0.5238 
     82 H82       -47.7901  -32.6274    5.3134 H         1 UNK         0.0889 
     83 H83       -48.7756  -32.5114    3.8539 H         1 UNK         0.0889 
     84 H84       -49.4239  -33.2935    5.2982 H         1 UNK         0.0889 
     85 H85       -47.6868  -30.7009    6.4422 H         1 UNK         0.3028 
     86 H86       -49.9518  -29.1923    7.2194 H         1 UNK         0.0864 
     87 H87       -46.9839  -28.4250    7.3353 H         1 UNK         0.0720 
     88 H88       -48.2552  -27.5904    8.1779 H         1 UNK         0.0720 
     89 H89       -48.2971  -27.9670   10.7354 H         1 UNK         0.0814 
     90 H90       -48.6194  -29.5361   11.4124 H         1 UNK         0.0814 
     91 H91       -50.0216  -26.7722    9.5177 H         1 UNK         0.1469 
     92 H92       -53.9656  -28.4417    9.3215 H         1 UNK         0.1381 
     93 H93       -50.6842  -30.8226   10.7167 H         1 UNK         0.1206 
     94 H94       -54.2051  -30.8834    9.5398 H         1 UNK         0.0813 
     95 H95       -52.8247  -31.8709    9.9287 H         1 UNK         0.0813 
     96 H96       -56.1316  -31.1441   12.7661 H         1 UNK         0.0638 
     97 H97       -56.0894  -31.6083   11.0863 H         1 UNK         0.0638 
     98 H98       -55.8863  -29.3013   10.3494 H         1 UNK         0.0568 
     99 H99       -57.7283  -28.0258   13.0445 H         1 UNK         0.3450 
    100 H100      -59.2836  -28.4766   12.3851 H         1 UNK         0.3450 
    101 H101      -54.9903  -28.7240   13.0095 H         1 UNK         0.2987 
    102 H102      -53.6352  -26.1720   12.5736 H         1 UNK         0.0766 
    103 H103      -54.6571  -24.0973   13.5012 H         1 UNK         0.0798 
    104 H104      -56.2703  -24.6967   13.1161 H         1 UNK         0.0798 
    105 H105      -55.1396  -24.3164   11.8278 H         1 UNK         0.0798 
    106 H106      -53.8010  -26.7618   14.7002 H         1 UNK         0.3198 
    107 H107      -56.2655  -27.1488   17.0589 H         1 UNK         0.0843 
    108 H108      -56.6406  -29.4176   16.0693 H         1 UNK         0.0831 
    109 H109      -55.5458  -29.5023   17.4387 H         1 UNK         0.0831 
    110 H110      -54.9130  -29.6017   15.7959 H         1 UNK         0.0831 
    111 H111      -53.4637  -27.9430   16.9066 H         1 UNK         0.3133 
    112 H112      -52.1749  -24.7353   17.7411 H         1 UNK         0.0566 
    113 H113      -51.0667  -26.1155   19.4745 H         1 UNK         0.0814 
    114 H114      -52.7535  -25.8389   19.8792 H         1 UNK         0.0814 
    115 H115      -52.2530  -27.4001   19.2499 H         1 UNK         0.0814 
    116 H116      -50.8316  -25.6505   16.3025 H         1 UNK         0.3091 
    117 H117      -49.3882  -28.7401   15.8385 H         1 UNK         0.0702 
    118 H118      -49.6844  -28.4153   13.3651 H         1 UNK         0.0785 
    119 H119      -51.1146  -27.4332   13.6631 H         1 UNK         0.0785 
    120 H120      -51.1073  -29.1320   14.1028 H         1 UNK         0.0785 
    121 H121      -49.0006  -26.2574   14.4710 H         1 UNK         0.2998 
    122 H122      -47.2841  -24.5446   17.0761 H         1 UNK         0.0697 
    123 H123      -46.2299  -25.7018   14.4371 H         1 UNK         0.0825 
    124 H124      -45.4837  -25.8663   16.0165 H         1 UNK         0.0825 
    125 H125      -45.5865  -24.2836   15.2643 H         1 UNK         0.0825 
    126 H126      -48.0752  -23.9863   14.3333 H         1 UNK         0.3029 
    127 H127      -51.1761  -22.4533   15.1882 H         1 UNK         0.0897 
    128 H128      -50.1706  -20.4772   14.0733 H         1 UNK         0.0792 
    129 H129      -49.5179  -20.6525   15.6931 H         1 UNK         0.0792 
    130 H130      -48.5492  -21.1320   14.3063 H         1 UNK         0.0792 
    131 H131      -49.6779  -22.6819   12.7400 H         1 UNK         0.3086 
    132 H132      -50.8975  -25.8563   11.7834 H         1 UNK         0.0583 
    133 H133      -51.8606  -23.1159   10.8342 H         1 UNK         0.1020 
    134 H134      -52.8348  -24.5300   11.1007 H         1 UNK         0.1020 
    135 H135      -53.6288  -25.9524    9.2904 H         1 UNK         0.0694 
    136 H136      -52.8405  -26.2861    7.7696 H         1 UNK         0.0694 
    137 H137      -49.3482  -24.0666   10.3084 H         1 UNK         0.2989 
    138 H138      -46.3701  -24.0538   11.6291 H         1 UNK         0.1055 
    139 H139      -45.9746  -26.5556   11.6078 H         1 UNK         0.0806 
    140 H140      -45.1263  -25.7132   10.3246 H         1 UNK         0.0806 
    141 H141      -46.5894  -26.6153    9.9586 H         1 UNK         0.0806 
    142 H142      -47.3248  -24.5998    8.8731 H         1 UNK         0.3061 
    143 H143      -48.6746  -22.4344    7.9089 H         1 UNK         0.0734 
    144 H144      -48.0438  -20.1458    8.6139 H         1 UNK         0.0832 
    145 H145      -46.3879  -20.4060    8.0838 H         1 UNK         0.0832 
    146 H146      -47.7047  -20.3712    6.9093 H         1 UNK         0.0832 
    147 H147      -46.1364  -22.3684    6.5708 H         1 UNK         0.3156 
    148 H148      -45.9568  -23.8738    4.7814 H         1 UNK         0.0589 
    149 H149      -44.8609  -25.9055    6.8169 H         1 UNK         0.0808 
    150 H150      -44.0880  -25.4739    5.2912 H         1 UNK         0.0808 
    151 H151      -44.2504  -24.2773    6.5642 H         1 UNK         0.0808 
    152 H152      -46.4773  -26.7349    5.1700 H         1 UNK         0.3098 
    153 H153      -49.3859  -26.8525    3.1855 H         1 UNK         0.0720 
    154 H154      -48.1184  -28.5626    1.9035 H         1 UNK         0.0791 
    155 H155      -46.5889  -27.9108    2.4943 H         1 UNK         0.0791 
    156 H156      -47.6103  -26.9488    1.4352 H         1 UNK         0.0791 
    157 H157      -47.7377  -28.8299    4.4975 H         1 UNK         0.3028 
@<TRIPOS>BOND
     1    1    2 1    
     2    1   82 1    
     3    1   83 1    
     4    1   84 1    
     5    2    3 2    
     6    2    4 am   BACKBONE|DICT|INTERRES
     7    4    5 1    
     8    4   85 1    
     9    5    6 1    
    10    5   80 1    
    11    5   86 1    
    12    6    7 1    
    13    6   87 1    
    14    6   88 1    
    15    7    8 1    
    16    8    9 1    
    17    8   89 1    
    18    8   90 1    
    19    9   10 ar   
    20    9   14 ar   
    21   10   11 ar   
    22   10   91 1    
    23   11   12 ar   
    24   11   58 1    
    25   12   13 ar   
    26   12   92 1    
    27   13   14 ar   
    28   13   15 1    
    29   14   93 1    
    30   15   16 1    
    31   15   94 1    
    32   15   95 1    
    33   16   17 1    
    34   17   18 1    
    35   17   96 1    
    36   17   97 1    
    37   18   19 1    
    38   18   22 1    
    39   18   98 1    
    40   19   20 am   BACKBONE|DICT|INTERRES
    41   19   21 2    
    42   20   99 1    
    43   20  100 1    
    44   22   23 am   BACKBONE|DICT|INTERRES
    45   22  101 1    
    46   23   24 2    
    47   23   25 1    
    48   25   26 1    
    49   25   27 1    
    50   25  102 1    
    51   26  103 1    
    52   26  104 1    
    53   26  105 1    
    54   27   28 am   BACKBONE|DICT|INTERRES
    55   27  106 1    
    56   28   29 2    
    57   28   30 1    
    58   30   31 1    
    59   30   32 1    
    60   30  107 1    
    61   31  108 1    
    62   31  109 1    
    63   31  110 1    
    64   32   33 am   BACKBONE|DICT|INTERRES
    65   32  111 1    
    66   33   34 2    
    67   33   35 1    
    68   35   36 1    
    69   35   37 1    
    70   35  112 1    
    71   36  113 1    
    72   36  114 1    
    73   36  115 1    
    74   37   38 am   BACKBONE|DICT|INTERRES
    75   37  116 1    
    76   38   39 2    
    77   38   40 1    
    78   40   41 1    
    79   40   42 1    
    80   40  117 1    
    81   41  118 1    
    82   41  119 1    
    83   41  120 1    
    84   42   43 am   BACKBONE|DICT|INTERRES
    85   42  121 1    
    86   43   44 2    
    87   43   45 1    
    88   45   46 1    
    89   45   47 1    
    90   45  122 1    
    91   46  123 1    
    92   46  124 1    
    93   46  125 1    
    94   47   48 am   BACKBONE|DICT|INTERRES
    95   47  126 1    
    96   48   49 2    
    97   48   50 1    
    98   50   51 1    
    99   50   52 1    
   100   50  127 1    
   101   51  128 1    
   102   51  129 1    
   103   51  130 1    
   104   52   53 am   BACKBONE|DICT|INTERRES
   105   52  131 1    
   106   53   54 2    
   107   53   55 1    
   108   55   56 1    
   109   55   59 1    
   110   55  132 1    
   111   56   57 1    
   112   56  133 1    
   113   56  134 1    
   114   57   58 1    
   115   58  135 1    
   116   58  136 1    
   117   59   60 am   BACKBONE|DICT|INTERRES
   118   59  137 1    
   119   60   61 2    
   120   60   62 1    
   121   62   63 1    
   122   62   64 1    
   123   62  138 1    
   124   63  139 1    
   125   63  140 1    
   126   63  141 1    
   127   64   65 am   BACKBONE|DICT|INTERRES
   128   64  142 1    
   129   65   66 2    
   130   65   67 1    
   131   67   68 1    
   132   67   69 1    
   133   67  143 1    
   134   68  144 1    
   135   68  145 1    
   136   68  146 1    
   137   69   70 am   BACKBONE|DICT|INTERRES
   138   69  147 1    
   139   70   71 2    
   140   70   72 1    
   141   72   73 1    
   142   72   74 1    
   143   72  148 1    
   144   73  149 1    
   145   73  150 1    
   146   73  151 1    
   147   74   75 am   BACKBONE|DICT|INTERRES
   148   74  152 1    
   149   75   76 2    
   150   75   77 1    
   151   77   78 1    
   152   77   79 1    
   153   77  153 1    
   154   78  154 1    
   155   78  155 1    
   156   78  156 1    
   157   79   80 am   BACKBONE|DICT|INTERRES
   158   79  157 1    
   159   80   81 2    
@<TRIPOS>SUBSTRUCTURE
     1 UNK         1 GROUP             0       ****    0 ROOT    
