@<TRIPOS>MOLECULE
3R207
157   159    1
SMALL
USER_CHARGES


@<TRIPOS>ATOM
      1 CA        -51.6252  -23.8218    9.3988 C.3       0 UNK        -0.1975 
      2 C         -51.7197  -24.3004    7.9573 C.2       0 UNK         0.4852 
      3 O         -51.6944  -23.4808    7.0389 O.2       0 UNK        -0.5216 
      4 N         -51.8054  -25.6239    7.7559 N.am      1 UNK        -0.4461 
      5 CA        -51.9268  -26.3653    6.4884 C.3       1 UNK         0.0864 
      6 C6        -53.1637  -25.9939    5.6217 C.3       14 UNK        -0.0898 
      7 S7        -54.8449  -26.4256    6.2166 S.3       14 UNK        -0.2598 
      8 C8        -54.7824  -26.7661    8.0107 C.3       14 UNK         0.0286 
      9 C9        -54.1035  -28.0828    8.3772 C.ar      14 UNK        -0.0844 
     10 C10       -53.1203  -28.1045    9.3712 C.ar      14 UNK        -0.0881 
     11 C11       -52.4747  -29.2956    9.7158 C.ar      14 UNK        -0.0643 
     12 C12       -52.8324  -30.4775    9.0624 C.ar      14 UNK        -0.0930 
     13 C13       -53.8464  -30.4824    8.0987 C.ar      14 UNK        -0.0827 
     14 C14       -54.4759  -29.2812    7.7589 C.ar      14 UNK        -0.1249 
     15 C15       -54.2358  -31.7787    7.4000 C.3       14 UNK         0.0141 
     16 S16       -54.6939  -33.1025    8.5678 S.3       14 UNK        -0.2313 
     17 C17       -56.3913  -32.6462    9.0740 C.3       14 UNK        -0.0915 
     18 CA        -56.5378  -32.2107   10.5590 C.3       13 UNK         0.0968 
     19 C         -56.0818  -33.3132   11.5624 C.2       13 UNK         0.5732 
     20 N         -55.0547  -33.0923   12.3746 N.am      13 UNK        -0.7310 
     21 O         -56.6828  -34.3841   11.6106 O.2       13 UNK        -0.5035 
     22 N         -55.9840  -30.8663   10.7786 N.am      13 UNK        -0.4233 
     23 C         -56.2594  -30.0835   11.8296 C.2       13 UNK         0.4989 
     24 O         -56.9764  -30.4077   12.7791 O.2       13 UNK        -0.4996 
     25 CA        -55.6658  -28.6764   11.7843 C.3       12 UNK         0.0216 
     26 CB        -56.6112  -27.7041   11.0577 C.3       12 UNK        -0.1964 
     27 N         -55.3929  -28.1892   13.1316 N.am      12 UNK        -0.4276 
     28 C         -54.3876  -27.3656   13.4467 C.2       12 UNK         0.5020 
     29 O         -53.5713  -26.9258   12.6308 O.2       12 UNK        -0.5489 
     30 CA        -54.2634  -26.9831   14.9253 C.3       11 UNK         0.0294 
     31 CB        -53.6593  -28.1385   15.7432 C.3       11 UNK        -0.2019 
     32 N         -53.3898  -25.8197   15.0434 N.am      11 UNK        -0.4493 
     33 C         -53.6135  -24.7431   15.8039 C.2       11 UNK         0.4932 
     34 O         -54.6203  -24.5845   16.4972 O.2       11 UNK        -0.5029 
     35 CA        -52.4895  -23.6897   15.8029 C.3       10 UNK         0.0280 
     36 CB        -52.7362  -22.5215   16.7809 C.3       10 UNK        -0.1976 
     37 N         -51.1817  -24.3125   16.0362 N.am      10 UNK        -0.4242 
     38 C         -50.7914  -25.0099   17.1155 C.2       10 UNK         0.5072 
     39 O         -51.4623  -25.1454   18.1396 O.2       10 UNK        -0.5224 
     40 CA        -49.4183  -25.6976   17.0332 C.3       9 UNK         0.0343 
     41 CB        -49.5722  -27.1113   16.4482 C.3       9 UNK        -0.2003 
     42 N         -48.4367  -24.9443   16.2480 N.am      9 UNK        -0.4272 
     43 C         -47.9105  -23.7687   16.6237 C.2       9 UNK         0.4988 
     44 O         -48.1591  -23.2171   17.6966 O.2       9 UNK        -0.5108 
     45 CA        -46.9469  -23.0873   15.6386 C.3       8 UNK         0.0248 
     46 CB        -45.5428  -23.7049   15.7409 C.3       8 UNK        -0.2001 
     47 N         -47.4147  -23.1451   14.2519 N.am      8 UNK        -0.4140 
     48 C         -48.4997  -22.5107   13.7835 C.2       8 UNK         0.5028 
     49 O         -49.1999  -21.7566   14.4593 O.2       8 UNK        -0.5428 
     50 CA        -48.8926  -22.7870   12.3208 C.3       7 UNK         0.0264 
     51 CB        -48.0546  -21.9371   11.3530 C.3       7 UNK        -0.1988 
     52 N         -48.7828  -24.2019   11.9571 N.am      7 UNK        -0.4454 
     53 C         -49.5108  -25.1826   12.5133 C.2       7 UNK         0.5027 
     54 O         -50.3775  -24.9961   13.3683 O.2       7 UNK        -0.5083 
     55 CA        -49.2016  -26.6197   12.0577 C.3       6 UNK         0.0844 
     56 C56       -49.9336  -26.9315   10.7325 C.3       14 UNK        -0.0967 
     57 S57       -49.8140  -28.6904   10.2685 S.3       14 UNK        -0.2604 
     58 C58       -51.4289  -29.3244   10.8238 C.3       14 UNK         0.0134 
     59 N         -47.7580  -26.8564   11.9814 N.am      6 UNK        -0.4116 
     60 C         -46.9306  -26.8541   13.0364 C.2       5 UNK         0.5034 
     61 O         -47.2951  -26.6813   14.1987 O.2       5 UNK        -0.5045 
     62 CA        -45.4326  -27.0140   12.7346 C.3       5 UNK         0.0224 
     63 CB        -45.0818  -28.4877   12.4746 C.3       5 UNK        -0.1978 
     64 N         -44.9999  -26.1938   11.6002 N.am      5 UNK        -0.4737 
     65 C         -45.0463  -24.8539   11.5725 C.2       4 UNK         0.5027 
     66 O         -45.4183  -24.1627   12.5181 O.2       4 UNK        -0.5211 
     67 CA        -44.6569  -24.1703   10.2537 C.3       4 UNK         0.0297 
     68 CB        -43.1476  -23.8840   10.2218 C.3       4 UNK        -0.1993 
     69 N         -45.0386  -24.9441    9.0696 N.am      4 UNK        -0.4486 
     70 C         -46.2982  -25.2322    8.7181 C.2       3 UNK         0.4961 
     71 O         -47.2975  -24.9001    9.3639 O.2       3 UNK        -0.5105 
     72 CA        -46.4638  -26.0660    7.4476 C.3       3 UNK         0.0299 
     73 CB        -46.7739  -27.5330    7.7898 C.3       3 UNK        -0.1972 
     74 N         -47.5537  -25.4986    6.6645 N.am      3 UNK        -0.4305 
     75 C         -47.6081  -25.4627    5.3273 C.2       2 UNK         0.5006 
     76 O         -46.7314  -25.9269    4.5950 O.2       2 UNK        -0.5106 
     77 CA        -48.8528  -24.7916    4.7114 C.3       2 UNK         0.0296 
     78 CB        -49.0126  -25.0805    3.2030 C.3       2 UNK        -0.2002 
     79 N         -50.0893  -25.1096    5.4354 N.am      2 UNK        -0.4032 
     80 C         -50.6349  -26.3173    5.6435 C.2       1 UNK         0.5000 
     81 O         -50.1628  -27.3701    5.2117 O.2       1 UNK        -0.5238 
     82 H82       -50.5877  -23.6113    9.6564 H         1 UNK         0.0889 
     83 H83       -52.0161  -24.5580   10.1004 H         1 UNK         0.0889 
     84 H84       -52.1992  -22.9046    9.5282 H         1 UNK         0.0889 
     85 H85       -51.7692  -26.2302    8.5604 H         1 UNK         0.3028 
     86 H86       -52.0356  -27.4136    6.7680 H         1 UNK         0.0864 
     87 H87       -53.0818  -26.4802    4.6474 H         1 UNK         0.0720 
     88 H88       -53.1615  -24.9257    5.4010 H         1 UNK         0.0720 
     89 H89       -55.8120  -26.8118    8.3641 H         1 UNK         0.0814 
     90 H90       -54.3359  -25.9181    8.5294 H         1 UNK         0.0814 
     91 H91       -52.8877  -27.1974    9.9071 H         1 UNK         0.1469 
     92 H92       -52.3370  -31.4040    9.3197 H         1 UNK         0.1381 
     93 H93       -55.2503  -29.2732    7.0039 H         1 UNK         0.1206 
     94 H94       -55.0521  -31.6199    6.6936 H         1 UNK         0.0813 
     95 H95       -53.3846  -32.1185    6.8087 H         1 UNK         0.0813 
     96 H96       -57.0296  -33.5106    8.8832 H         1 UNK         0.0638 
     97 H97       -56.7686  -31.8607    8.4173 H         1 UNK         0.0638 
     98 H98       -57.6106  -32.1117   10.7359 H         1 UNK         0.0568 
     99 H99       -54.7742  -33.8117   13.0217 H         1 UNK         0.3450 
    100 H100      -54.5563  -32.2187   12.3406 H         1 UNK         0.3450 
    101 H101      -55.3678  -30.5256   10.0533 H         1 UNK         0.2987 
    102 H102      -54.7263  -28.7475   11.2455 H         1 UNK         0.0766 
    103 H103      -56.1454  -26.7278   10.9231 H         1 UNK         0.0798 
    104 H104      -57.5400  -27.5592   11.6107 H         1 UNK         0.0798 
    105 H105      -56.8772  -28.0802   10.0692 H         1 UNK         0.0798 
    106 H106      -55.9949  -28.5654   13.8536 H         1 UNK         0.3198 
    107 H107      -55.2618  -26.7492   15.3015 H         1 UNK         0.0843 
    108 H108      -52.6738  -28.4225   15.3712 H         1 UNK         0.0831 
    109 H109      -54.2924  -29.0257   15.7042 H         1 UNK         0.0831 
    110 H110      -53.5519  -27.8642   16.7929 H         1 UNK         0.0831 
    111 H111      -52.5900  -25.8248   14.4204 H         1 UNK         0.3133 
    112 H112      -52.4534  -23.2741   14.7948 H         1 UNK         0.0566 
    113 H113      -51.9235  -21.7960   16.7408 H         1 UNK         0.0814 
    114 H114      -53.6567  -21.9931   16.5305 H         1 UNK         0.0814 
    115 H115      -52.8296  -22.8643   17.8118 H         1 UNK         0.0814 
    116 H116      -50.5764  -24.3409   15.2208 H         1 UNK         0.3091 
    117 H117      -49.0336  -25.7909   18.0510 H         1 UNK         0.0702 
    118 H118      -48.6263  -27.6527   16.4663 H         1 UNK         0.0785 
    119 H119      -49.9229  -27.0841   15.4157 H         1 UNK         0.0785 
    120 H120      -50.2920  -27.6967   17.0222 H         1 UNK         0.0785 
    121 H121      -48.1229  -25.3721   15.3811 H         1 UNK         0.2998 
    122 H122      -46.8744  -22.0348   15.9205 H         1 UNK         0.0697 
    123 H123      -45.5381  -24.7509   15.4321 H         1 UNK         0.0825 
    124 H124      -45.1702  -23.6635   16.7653 H         1 UNK         0.0825 
    125 H125      -44.8289  -23.1698   15.1144 H         1 UNK         0.0825 
    126 H126      -46.8442  -23.6841   13.6029 H         1 UNK         0.3029 
    127 H127      -49.9399  -22.4997   12.2032 H         1 UNK         0.0897 
    128 H128      -48.3510  -22.1037   10.3171 H         1 UNK         0.0792 
    129 H129      -48.1812  -20.8738   11.5608 H         1 UNK         0.0792 
    130 H130      -46.9911  -22.1596   11.4369 H         1 UNK         0.0792 
    131 H131      -48.1086  -24.4404   11.2364 H         1 UNK         0.3086 
    132 H132      -49.6005  -27.2876   12.8247 H         1 UNK         0.0583 
    133 H133      -50.9836  -26.6579   10.8245 H         1 UNK         0.1020 
    134 H134      -49.5302  -26.3317    9.9146 H         1 UNK         0.1020 
    135 H135      -51.2887  -30.3472   11.1768 H         1 UNK         0.0694 
    136 H136      -51.7808  -28.7601   11.6884 H         1 UNK         0.0694 
    137 H137      -47.3695  -26.9781   11.0585 H         1 UNK         0.2989 
    138 H138      -44.8834  -26.6801   13.6180 H         1 UNK         0.1055 
    139 H139      -45.3861  -29.1139   13.3147 H         1 UNK         0.0806 
    140 H140      -44.0076  -28.6226   12.3461 H         1 UNK         0.0806 
    141 H141      -45.5781  -28.8746   11.5837 H         1 UNK         0.0806 
    142 H142      -44.6711  -26.6781   10.7777 H         1 UNK         0.3061 
    143 H143      -45.1850  -23.2158   10.2091 H         1 UNK         0.0734 
    144 H144      -42.8683  -23.3200    9.3316 H         1 UNK         0.0832 
    145 H145      -42.8465  -23.2897   11.0860 H         1 UNK         0.0832 
    146 H146      -42.5591  -24.8022   10.2380 H         1 UNK         0.0832 
    147 H147      -44.2851  -25.2647    8.4776 H         1 UNK         0.3156 
    148 H148      -45.5346  -26.0210    6.8751 H         1 UNK         0.0589 
    149 H149      -47.7064  -27.6275    8.3468 H         1 UNK         0.0808 
    150 H150      -46.8660  -28.1370    6.8870 H         1 UNK         0.0808 
    151 H151      -45.9815  -27.9737    8.3959 H         1 UNK         0.0808 
    152 H152      -48.2806  -25.0523    7.2076 H         1 UNK         0.3098 
    153 H153      -48.7023  -23.7170    4.8250 H         1 UNK         0.0720 
    154 H154      -49.1144  -26.1477    3.0034 H         1 UNK         0.0791 
    155 H155      -48.1463  -24.7265    2.6427 H         1 UNK         0.0791 
    156 H156      -49.8887  -24.5776    2.7937 H         1 UNK         0.0791 
    157 H157      -50.5751  -24.3223    5.8636 H         1 UNK         0.3028 
@<TRIPOS>BOND
     1    1    2 1    
     2    1   82 1    
     3    1   83 1    
     4    1   84 1    
     5    2    3 2    
     6    2    4 am   BACKBONE|DICT|INTERRES
     7    4    5 1    
     8    4   85 1    
     9    5    6 1    
    10    5   80 1    
    11    5   86 1    
    12    6    7 1    
    13    6   87 1    
    14    6   88 1    
    15    7    8 1    
    16    8    9 1    
    17    8   89 1    
    18    8   90 1    
    19    9   10 ar   
    20    9   14 ar   
    21   10   11 ar   
    22   10   91 1    
    23   11   12 ar   
    24   11   58 1    
    25   12   13 ar   
    26   12   92 1    
    27   13   14 ar   
    28   13   15 1    
    29   14   93 1    
    30   15   16 1    
    31   15   94 1    
    32   15   95 1    
    33   16   17 1    
    34   17   18 1    
    35   17   96 1    
    36   17   97 1    
    37   18   19 1    
    38   18   22 1    
    39   18   98 1    
    40   19   20 am   BACKBONE|DICT|INTERRES
    41   19   21 2    
    42   20   99 1    
    43   20  100 1    
    44   22   23 am   BACKBONE|DICT|INTERRES
    45   22  101 1    
    46   23   24 2    
    47   23   25 1    
    48   25   26 1    
    49   25   27 1    
    50   25  102 1    
    51   26  103 1    
    52   26  104 1    
    53   26  105 1    
    54   27   28 am   BACKBONE|DICT|INTERRES
    55   27  106 1    
    56   28   29 2    
    57   28   30 1    
    58   30   31 1    
    59   30   32 1    
    60   30  107 1    
    61   31  108 1    
    62   31  109 1    
    63   31  110 1    
    64   32   33 am   BACKBONE|DICT|INTERRES
    65   32  111 1    
    66   33   34 2    
    67   33   35 1    
    68   35   36 1    
    69   35   37 1    
    70   35  112 1    
    71   36  113 1    
    72   36  114 1    
    73   36  115 1    
    74   37   38 am   BACKBONE|DICT|INTERRES
    75   37  116 1    
    76   38   39 2    
    77   38   40 1    
    78   40   41 1    
    79   40   42 1    
    80   40  117 1    
    81   41  118 1    
    82   41  119 1    
    83   41  120 1    
    84   42   43 am   BACKBONE|DICT|INTERRES
    85   42  121 1    
    86   43   44 2    
    87   43   45 1    
    88   45   46 1    
    89   45   47 1    
    90   45  122 1    
    91   46  123 1    
    92   46  124 1    
    93   46  125 1    
    94   47   48 am   BACKBONE|DICT|INTERRES
    95   47  126 1    
    96   48   49 2    
    97   48   50 1    
    98   50   51 1    
    99   50   52 1    
   100   50  127 1    
   101   51  128 1    
   102   51  129 1    
   103   51  130 1    
   104   52   53 am   BACKBONE|DICT|INTERRES
   105   52  131 1    
   106   53   54 2    
   107   53   55 1    
   108   55   56 1    
   109   55   59 1    
   110   55  132 1    
   111   56   57 1    
   112   56  133 1    
   113   56  134 1    
   114   57   58 1    
   115   58  135 1    
   116   58  136 1    
   117   59   60 am   BACKBONE|DICT|INTERRES
   118   59  137 1    
   119   60   61 2    
   120   60   62 1    
   121   62   63 1    
   122   62   64 1    
   123   62  138 1    
   124   63  139 1    
   125   63  140 1    
   126   63  141 1    
   127   64   65 am   BACKBONE|DICT|INTERRES
   128   64  142 1    
   129   65   66 2    
   130   65   67 1    
   131   67   68 1    
   132   67   69 1    
   133   67  143 1    
   134   68  144 1    
   135   68  145 1    
   136   68  146 1    
   137   69   70 am   BACKBONE|DICT|INTERRES
   138   69  147 1    
   139   70   71 2    
   140   70   72 1    
   141   72   73 1    
   142   72   74 1    
   143   72  148 1    
   144   73  149 1    
   145   73  150 1    
   146   73  151 1    
   147   74   75 am   BACKBONE|DICT|INTERRES
   148   74  152 1    
   149   75   76 2    
   150   75   77 1    
   151   77   78 1    
   152   77   79 1    
   153   77  153 1    
   154   78  154 1    
   155   78  155 1    
   156   78  156 1    
   157   79   80 am   BACKBONE|DICT|INTERRES
   158   79  157 1    
   159   80   81 2    
@<TRIPOS>SUBSTRUCTURE
     1 UNK         1 GROUP             0       ****    0 ROOT    
