@<TRIPOS>MOLECULE
3R207
157   159    1
SMALL
USER_CHARGES


@<TRIPOS>ATOM
      1 CA        -46.9554  -31.3872    2.0210 C.3       0 UNK        -0.1975 
      2 C         -47.7554  -30.6435    3.0798 C.2       0 UNK         0.4852 
      3 O         -47.6194  -30.9412    4.2676 O.2       0 UNK        -0.5216 
      4 N         -48.5789  -29.6716    2.6597 N.am      1 UNK        -0.4461 
      5 CA        -49.4540  -28.8169    3.4771 C.3       1 UNK         0.0864 
      6 C6        -50.4713  -29.6227    4.3291 C.3       14 UNK        -0.0898 
      7 S7        -51.9428  -28.6507    4.7890 S.3       14 UNK        -0.2598 
      8 C8        -51.5908  -28.3630    6.5474 C.3       14 UNK         0.0286 
      9 C9        -52.6712  -27.5224    7.2037 C.ar      14 UNK        -0.0844 
     10 C10       -52.5282  -26.1363    7.2979 C.ar      14 UNK        -0.0881 
     11 C11       -53.5057  -25.3651    7.9344 C.ar      14 UNK        -0.0643 
     12 C12       -54.6267  -25.9943    8.4856 C.ar      14 UNK        -0.0930 
     13 C13       -54.7818  -27.3825    8.4002 C.ar      14 UNK        -0.0827 
     14 C14       -53.8053  -28.1362    7.7381 C.ar      14 UNK        -0.1249 
     15 C15       -56.0142  -28.0423    9.0197 C.3       14 UNK         0.0141 
     16 S16       -55.6988  -29.6785    9.7719 S.3       14 UNK        -0.2313 
     17 C17       -54.3317  -29.2855   10.9117 C.3       14 UNK        -0.0915 
     18 CA        -54.1707  -30.3084   12.0668 C.3       13 UNK         0.0968 
     19 C         -53.3907  -31.5858   11.6322 C.2       13 UNK         0.5732 
     20 N         -52.2130  -31.8644   12.1801 N.am      13 UNK        -0.7310 
     21 O         -53.8683  -32.3509   10.7985 O.2       13 UNK        -0.5035 
     22 N         -53.6217  -29.6352   13.2493 N.am      13 UNK        -0.4233 
     23 C         -53.7683  -30.0477   14.5139 C.2       13 UNK         0.4989 
     24 O         -54.3508  -31.0827   14.8398 O.2       13 UNK        -0.4996 
     25 CA        -53.1819  -29.1349   15.6053 C.3       12 UNK         0.0216 
     26 CB        -51.7271  -29.5284   15.9073 C.3       12 UNK        -0.1964 
     27 N         -53.2395  -27.7113   15.2573 N.am      12 UNK        -0.4276 
     28 C         -54.3664  -27.0098   15.0677 C.2       12 UNK         0.5020 
     29 O         -55.4992  -27.4648   15.2391 O.2       12 UNK        -0.5489 
     30 CA        -54.1734  -25.5572   14.6013 C.3       11 UNK         0.0294 
     31 CB        -55.4970  -24.7956   14.3764 C.3       11 UNK        -0.2019 
     32 N         -53.2683  -24.8139   15.4853 N.am      11 UNK        -0.4493 
     33 C         -53.4598  -24.5075   16.7785 C.2       11 UNK         0.4932 
     34 O         -54.4831  -24.7801   17.4080 O.2       11 UNK        -0.5029 
     35 CA        -52.3095  -23.7546   17.4802 C.3       10 UNK         0.0280 
     36 CB        -52.4233  -23.7788   19.0197 C.3       10 UNK        -0.1976 
     37 N         -50.9749  -24.1919   17.0510 N.am      10 UNK        -0.4242 
     38 C         -50.4540  -25.4267   17.1513 C.2       10 UNK         0.5072 
     39 O         -51.0521  -26.3774   17.6556 O.2       10 UNK        -0.5224 
     40 CA        -49.0385  -25.6455   16.5845 C.3       9 UNK         0.0343 
     41 CB        -48.8735  -27.0501   15.9786 C.3       9 UNK        -0.2003 
     42 N         -48.7190  -24.6464   15.5634 N.am      9 UNK        -0.4272 
     43 C         -47.7434  -23.7312   15.6467 C.2       9 UNK         0.4988 
     44 O         -46.9213  -23.6849   16.5623 O.2       9 UNK        -0.5108 
     45 CA        -47.6856  -22.6577   14.5396 C.3       8 UNK         0.0248 
     46 CB        -46.6755  -23.0649   13.4568 C.3       8 UNK        -0.2001 
     47 N         -48.9794  -22.3792   13.9058 N.am      8 UNK        -0.4140 
     48 C         -50.0744  -21.9380   14.5429 C.2       8 UNK         0.5028 
     49 O         -50.0971  -21.6505   15.7396 O.2       8 UNK        -0.5428 
     50 CA        -51.3885  -21.8794   13.7420 C.3       7 UNK         0.0264 
     51 CB        -51.6309  -20.4555   13.2178 C.3       7 UNK        -0.1988 
     52 N         -51.4813  -22.8254   12.6227 N.am      7 UNK        -0.4454 
     53 C         -51.2996  -24.1535   12.6733 C.2       7 UNK         0.5027 
     54 O         -50.9999  -24.7480   13.7135 O.2       7 UNK        -0.5083 
     55 CA        -51.5023  -24.9388   11.3580 C.3       6 UNK         0.0844 
     56 C56       -51.4198  -24.0603   10.0772 C.3       14 UNK        -0.0967 
     57 S57       -53.0127  -23.2543    9.6966 S.3       14 UNK        -0.2604 
     58 C58       -53.3577  -23.8506    8.0089 C.3       14 UNK         0.0134 
     59 N         -50.5562  -26.0465   11.2794 N.am      6 UNK        -0.4116 
     60 C         -50.7544  -27.2939   11.7221 C.2       5 UNK         0.5034 
     61 O         -51.7584  -27.6575   12.3387 O.2       5 UNK        -0.5045 
     62 CA        -49.6631  -28.3293   11.3881 C.3       5 UNK         0.0224 
     63 CB        -50.1532  -29.2667   10.2727 C.3       5 UNK        -0.1978 
     64 N         -48.4018  -27.7161   10.9563 N.am      5 UNK        -0.4737 
     65 C         -47.4628  -27.2556   11.7955 C.2       4 UNK         0.5027 
     66 O         -47.5229  -27.3807   13.0159 O.2       4 UNK        -0.5211 
     67 CA        -46.2592  -26.5143   11.1820 C.3       4 UNK         0.0297 
     68 CB        -45.0855  -27.4856   10.9778 C.3       4 UNK        -0.1993 
     69 N         -46.5514  -25.8449    9.9118 N.am      4 UNK        -0.4486 
     70 C         -47.4959  -24.9160    9.7043 C.2       3 UNK         0.4961 
     71 O         -48.2013  -24.4467   10.5967 O.2       3 UNK        -0.5105 
     72 CA        -47.7364  -24.4665    8.2510 C.3       3 UNK         0.0299 
     73 CB        -47.1717  -23.0547    8.0293 C.3       3 UNK        -0.1972 
     74 N         -47.1911  -25.3748    7.2333 N.am      3 UNK        -0.4305 
     75 C         -47.5716  -26.6463    7.0418 C.2       2 UNK         0.5006 
     76 O         -48.4070  -27.2275    7.7386 O.2       2 UNK        -0.5106 
     77 CA        -46.8237  -27.4161    5.9417 C.3       2 UNK         0.0296 
     78 CB        -45.7467  -28.3193    6.5651 C.3       2 UNK        -0.2002 
     79 N         -47.7150  -28.2348    5.1206 N.am      2 UNK        -0.4032 
     80 C         -48.6684  -27.7718    4.3020 C.2       1 UNK         0.5000 
     81 O         -48.9093  -26.5729    4.1463 O.2       1 UNK        -0.5238 
     82 H82       -47.1700  -31.0239    1.0160 H         1 UNK         0.0889 
     83 H83       -47.1892  -32.4510    2.0540 H         1 UNK         0.0889 
     84 H84       -45.8880  -31.2669    2.2048 H         1 UNK         0.0889 
     85 H85       -48.6102  -29.4693    1.6694 H         1 UNK         0.3028 
     86 H86       -50.0290  -28.2492    2.7431 H         1 UNK         0.0864 
     87 H87       -50.8333  -30.4763    3.7538 H         1 UNK         0.0720 
     88 H88       -50.0013  -30.0482    5.2176 H         1 UNK         0.0720 
     89 H89       -50.6258  -27.8674    6.6439 H         1 UNK         0.0814 
     90 H90       -51.4996  -29.3198    7.0641 H         1 UNK         0.0814 
     91 H91       -51.6541  -25.6603    6.8743 H         1 UNK         0.1469 
     92 H92       -55.3782  -25.3963    8.9830 H         1 UNK         0.1381 
     93 H93       -53.9147  -29.2085    7.6525 H         1 UNK         0.1206 
     94 H94       -56.7755  -28.1539    8.2468 H         1 UNK         0.0813 
     95 H95       -56.4438  -27.3947    9.7856 H         1 UNK         0.0813 
     96 H96       -54.5397  -28.2939   11.3185 H         1 UNK         0.0638 
     97 H97       -53.4040  -29.1804   10.3475 H         1 UNK         0.0638 
     98 H98       -55.1685  -30.6513   12.3470 H         1 UNK         0.0568 
     99 H99       -51.8191  -31.2578   12.8795 H         1 UNK         0.3450 
    100 H100      -51.7249  -32.6997   11.8992 H         1 UNK         0.3450 
    101 H101      -53.0635  -28.8060   13.0616 H         1 UNK         0.2987 
    102 H102      -53.7744  -29.2805   16.5109 H         1 UNK         0.0766 
    103 H103      -51.3363  -28.9680   16.7565 H         1 UNK         0.0798 
    104 H104      -51.0721  -29.3482   15.0538 H         1 UNK         0.0798 
    105 H105      -51.6521  -30.5870   16.1605 H         1 UNK         0.0798 
    106 H106      -52.3563  -27.2469   15.1002 H         1 UNK         0.3198 
    107 H107      -53.6780  -25.6250   13.6325 H         1 UNK         0.0843 
    108 H108      -55.3156  -23.7846   14.0121 H         1 UNK         0.0831 
    109 H109      -56.0882  -24.7239   15.2896 H         1 UNK         0.0831 
    110 H110      -56.1133  -25.3025   13.6329 H         1 UNK         0.0831 
    111 H111      -52.3631  -24.5999   15.0764 H         1 UNK         0.3133 
    112 H112      -52.3988  -22.7143   17.1645 H         1 UNK         0.0566 
    113 H113      -51.6118  -23.2207   19.4864 H         1 UNK         0.0814 
    114 H114      -53.3582  -23.3250   19.3507 H         1 UNK         0.0814 
    115 H115      -52.4002  -24.7963   19.4114 H         1 UNK         0.0814 
    116 H116      -50.4041  -23.4640   16.6319 H         1 UNK         0.3091 
    117 H117      -48.3548  -25.5607   17.4311 H         1 UNK         0.0702 
    118 H118      -49.0895  -27.8294   16.7101 H         1 UNK         0.0785 
    119 H119      -47.8500  -27.2094   15.6403 H         1 UNK         0.0785 
    120 H120      -49.5359  -27.2006   15.1250 H         1 UNK         0.0785 
    121 H121      -49.3594  -24.6132   14.7745 H         1 UNK         0.2998 
    122 H122      -47.3407  -21.7305   15.0018 H         1 UNK         0.0697 
    123 H123      -46.9890  -23.9777   12.9514 H         1 UNK         0.0825 
    124 H124      -45.6905  -23.2508   13.8875 H         1 UNK         0.0825 
    125 H125      -46.5589  -22.2861   12.7029 H         1 UNK         0.0825 
    126 H126      -49.0580  -22.6055   12.9245 H         1 UNK         0.3029 
    127 H127      -52.1947  -22.1258   14.4358 H         1 UNK         0.0897 
    128 H128      -52.6116  -20.3653   12.7499 H         1 UNK         0.0792 
    129 H129      -51.5950  -19.7280   14.0303 H         1 UNK         0.0792 
    130 H130      -50.8793  -20.1619   12.4838 H         1 UNK         0.0792 
    131 H131      -51.7682  -22.4349   11.7343 H         1 UNK         0.3086 
    132 H132      -52.5052  -25.3684   11.4075 H         1 UNK         0.0583 
    133 H133      -50.6271  -23.3116   10.1351 H         1 UNK         0.1020 
    134 H134      -51.1403  -24.6809    9.2259 H         1 UNK         0.1020 
    135 H135      -54.2784  -23.3850    7.6545 H         1 UNK         0.0694 
    136 H136      -52.5667  -23.5043    7.3416 H         1 UNK         0.0694 
    137 H137      -49.6484  -25.8120   10.8961 H         1 UNK         0.2989 
    138 H138      -49.4887  -28.9226   12.2886 H         1 UNK         0.1055 
    139 H139      -51.0720  -29.7755   10.5628 H         1 UNK         0.0806 
    140 H140      -49.4158  -30.0374   10.0482 H         1 UNK         0.0806 
    141 H141      -50.3598  -28.7209    9.3511 H         1 UNK         0.0806 
    142 H142      -48.2780  -27.5804    9.9587 H         1 UNK         0.3061 
    143 H143      -45.9461  -25.7494   11.8938 H         1 UNK         0.0734 
    144 H144      -44.1918  -26.9648   10.6338 H         1 UNK         0.0832 
    145 H145      -44.8262  -27.9847   11.9128 H         1 UNK         0.0832 
    146 H146      -45.3252  -28.2624   10.2504 H         1 UNK         0.0832 
    147 H147      -46.0265  -26.1581    9.1093 H         1 UNK         0.3156 
    148 H148      -48.8177  -24.4266    8.1051 H         1 UNK         0.0589 
    149 H149      -46.0865  -23.0316    8.1370 H         1 UNK         0.0808 
    150 H150      -47.4206  -22.6777    7.0371 H         1 UNK         0.0808 
    151 H151      -47.5854  -22.3504    8.7528 H         1 UNK         0.0808 
    152 H152      -46.4839  -24.9877    6.6241 H         1 UNK         0.3098 
    153 H153      -46.3332  -26.7004    5.2787 H         1 UNK         0.0720 
    154 H154      -45.1774  -28.8451    5.7982 H         1 UNK         0.0791 
    155 H155      -46.1838  -29.0674    7.2283 H         1 UNK         0.0791 
    156 H156      -45.0352  -27.7373    7.1524 H         1 UNK         0.0791 
    157 H157      -47.5821  -29.2422    5.1492 H         1 UNK         0.3028 
@<TRIPOS>BOND
     1    1    2 1    
     2    1   82 1    
     3    1   83 1    
     4    1   84 1    
     5    2    3 2    
     6    2    4 am   BACKBONE|DICT|INTERRES
     7    4    5 1    
     8    4   85 1    
     9    5    6 1    
    10    5   80 1    
    11    5   86 1    
    12    6    7 1    
    13    6   87 1    
    14    6   88 1    
    15    7    8 1    
    16    8    9 1    
    17    8   89 1    
    18    8   90 1    
    19    9   10 ar   
    20    9   14 ar   
    21   10   11 ar   
    22   10   91 1    
    23   11   12 ar   
    24   11   58 1    
    25   12   13 ar   
    26   12   92 1    
    27   13   14 ar   
    28   13   15 1    
    29   14   93 1    
    30   15   16 1    
    31   15   94 1    
    32   15   95 1    
    33   16   17 1    
    34   17   18 1    
    35   17   96 1    
    36   17   97 1    
    37   18   19 1    
    38   18   22 1    
    39   18   98 1    
    40   19   20 am   BACKBONE|DICT|INTERRES
    41   19   21 2    
    42   20   99 1    
    43   20  100 1    
    44   22   23 am   BACKBONE|DICT|INTERRES
    45   22  101 1    
    46   23   24 2    
    47   23   25 1    
    48   25   26 1    
    49   25   27 1    
    50   25  102 1    
    51   26  103 1    
    52   26  104 1    
    53   26  105 1    
    54   27   28 am   BACKBONE|DICT|INTERRES
    55   27  106 1    
    56   28   29 2    
    57   28   30 1    
    58   30   31 1    
    59   30   32 1    
    60   30  107 1    
    61   31  108 1    
    62   31  109 1    
    63   31  110 1    
    64   32   33 am   BACKBONE|DICT|INTERRES
    65   32  111 1    
    66   33   34 2    
    67   33   35 1    
    68   35   36 1    
    69   35   37 1    
    70   35  112 1    
    71   36  113 1    
    72   36  114 1    
    73   36  115 1    
    74   37   38 am   BACKBONE|DICT|INTERRES
    75   37  116 1    
    76   38   39 2    
    77   38   40 1    
    78   40   41 1    
    79   40   42 1    
    80   40  117 1    
    81   41  118 1    
    82   41  119 1    
    83   41  120 1    
    84   42   43 am   BACKBONE|DICT|INTERRES
    85   42  121 1    
    86   43   44 2    
    87   43   45 1    
    88   45   46 1    
    89   45   47 1    
    90   45  122 1    
    91   46  123 1    
    92   46  124 1    
    93   46  125 1    
    94   47   48 am   BACKBONE|DICT|INTERRES
    95   47  126 1    
    96   48   49 2    
    97   48   50 1    
    98   50   51 1    
    99   50   52 1    
   100   50  127 1    
   101   51  128 1    
   102   51  129 1    
   103   51  130 1    
   104   52   53 am   BACKBONE|DICT|INTERRES
   105   52  131 1    
   106   53   54 2    
   107   53   55 1    
   108   55   56 1    
   109   55   59 1    
   110   55  132 1    
   111   56   57 1    
   112   56  133 1    
   113   56  134 1    
   114   57   58 1    
   115   58  135 1    
   116   58  136 1    
   117   59   60 am   BACKBONE|DICT|INTERRES
   118   59  137 1    
   119   60   61 2    
   120   60   62 1    
   121   62   63 1    
   122   62   64 1    
   123   62  138 1    
   124   63  139 1    
   125   63  140 1    
   126   63  141 1    
   127   64   65 am   BACKBONE|DICT|INTERRES
   128   64  142 1    
   129   65   66 2    
   130   65   67 1    
   131   67   68 1    
   132   67   69 1    
   133   67  143 1    
   134   68  144 1    
   135   68  145 1    
   136   68  146 1    
   137   69   70 am   BACKBONE|DICT|INTERRES
   138   69  147 1    
   139   70   71 2    
   140   70   72 1    
   141   72   73 1    
   142   72   74 1    
   143   72  148 1    
   144   73  149 1    
   145   73  150 1    
   146   73  151 1    
   147   74   75 am   BACKBONE|DICT|INTERRES
   148   74  152 1    
   149   75   76 2    
   150   75   77 1    
   151   77   78 1    
   152   77   79 1    
   153   77  153 1    
   154   78  154 1    
   155   78  155 1    
   156   78  156 1    
   157   79   80 am   BACKBONE|DICT|INTERRES
   158   79  157 1    
   159   80   81 2    
@<TRIPOS>SUBSTRUCTURE
     1 UNK         1 GROUP             0       ****    0 ROOT    
