@<TRIPOS>MOLECULE
3R207
157   159    1
SMALL
USER_CHARGES


@<TRIPOS>ATOM
      1 CA        -52.2257  -23.8520    5.0458 C.3       0 UNK        -0.1975 
      2 C         -51.7045  -25.2754    5.1716 C.2       0 UNK         0.4852 
      3 O         -51.2016  -25.8327    4.1958 O.2       0 UNK        -0.5216 
      4 N         -51.7924  -25.8539    6.3757 N.am      1 UNK        -0.4461 
      5 CA        -51.4308  -27.2300    6.7635 C.3       1 UNK         0.0864 
      6 C6        -52.2652  -28.3369    6.0623 C.3       14 UNK        -0.0898 
      7 S7        -54.0694  -28.0677    6.2148 S.3       14 UNK        -0.2598 
      8 C8        -54.4942  -28.9963    7.7287 C.3       14 UNK         0.0286 
      9 C9        -53.6968  -28.5207    8.9357 C.ar      14 UNK        -0.0844 
     10 C10       -53.8414  -27.2117    9.4109 C.ar      14 UNK        -0.0881 
     11 C11       -53.0278  -26.7392   10.4457 C.ar      14 UNK        -0.0643 
     12 C12       -52.1131  -27.6093   11.0483 C.ar      14 UNK        -0.0930 
     13 C13       -51.9544  -28.9152   10.5804 C.ar      14 UNK        -0.0827 
     14 C14       -52.7534  -29.3671    9.5268 C.ar      14 UNK        -0.1249 
     15 C15       -50.8514  -29.7996   11.1482 C.3       14 UNK         0.0141 
     16 S16       -51.4728  -31.3176   11.9373 S.3       14 UNK        -0.2313 
     17 C17       -52.1734  -30.6852   13.4982 C.3       14 UNK        -0.0915 
     18 CA        -53.6520  -31.1117   13.6825 C.3       13 UNK         0.0968 
     19 C         -54.1632  -30.8469   15.1301 C.2       13 UNK         0.5732 
     20 N         -55.2792  -30.1588   15.3447 N.am      13 UNK        -0.7310 
     21 O         -53.5440  -31.3028   16.0887 O.2       13 UNK        -0.5035 
     22 N         -54.5006  -30.5309   12.6362 N.am      13 UNK        -0.4233 
     23 C         -55.6055  -31.0965   12.1375 C.2       13 UNK         0.4989 
     24 O         -55.9930  -32.2264   12.4413 O.2       13 UNK        -0.4996 
     25 CA        -56.4163  -30.2495   11.1334 C.3       12 UNK         0.0216 
     26 CB        -57.8925  -30.6894   11.0346 C.3       12 UNK        -0.1964 
     27 N         -56.3232  -28.8039   11.3824 N.am      12 UNK        -0.4276 
     28 C         -56.6499  -28.1572   12.5111 C.2       12 UNK         0.5020 
     29 O         -57.1329  -28.6950   13.5107 O.2       12 UNK        -0.5489 
     30 CA        -56.3609  -26.6478   12.5262 C.3       11 UNK         0.0294 
     31 CB        -57.6614  -25.8479   12.3517 C.3       11 UNK        -0.2019 
     32 N         -55.6777  -26.2054   13.7466 N.am      11 UNK        -0.4493 
     33 C         -54.5325  -26.7062   14.2335 C.2       11 UNK         0.4932 
     34 O         -53.8898  -27.6073   13.6922 O.2       11 UNK        -0.5029 
     35 CA        -54.0563  -26.1040   15.5693 C.3       10 UNK         0.0280 
     36 CB        -55.0082  -26.4981   16.7131 C.3       10 UNK        -0.1976 
     37 N         -52.7028  -26.5304   15.9309 N.am      10 UNK        -0.4242 
     38 C         -51.5710  -26.1147   15.3486 C.2       10 UNK         0.5072 
     39 O         -51.5220  -25.2660   14.4564 O.2       10 UNK        -0.5224 
     40 CA        -50.2875  -26.7814   15.8654 C.3       9 UNK         0.0343 
     41 CB        -50.1746  -28.2182   15.3266 C.3       9 UNK        -0.2003 
     42 N         -49.0964  -26.0398   15.4503 N.am      9 UNK        -0.4272 
     43 C         -48.2914  -25.3504   16.2672 C.2       9 UNK         0.4988 
     44 O         -48.4993  -25.2009   17.4725 O.2       9 UNK        -0.5108 
     45 CA        -47.0100  -24.7608   15.6525 C.3       8 UNK         0.0248 
     46 CB        -45.9763  -25.8697   15.3926 C.3       8 UNK        -0.2001 
     47 N         -47.2362  -24.0088   14.4176 N.am      8 UNK        -0.4140 
     48 C         -47.8269  -22.8063   14.3539 C.2       8 UNK         0.5028 
     49 O         -48.2667  -22.2032   15.3337 O.2       8 UNK        -0.5428 
     50 CA        -47.9323  -22.1575   12.9631 C.3       7 UNK         0.0264 
     51 CB        -46.6012  -21.5035   12.5585 C.3       7 UNK        -0.1988 
     52 N         -48.3440  -23.1351   11.9540 N.am      7 UNK        -0.4454 
     53 C         -49.6152  -23.5308   11.7888 C.2       7 UNK         0.5027 
     54 O         -50.5663  -22.9514   12.3144 O.2       7 UNK        -0.5083 
     55 CA        -49.8791  -24.7964   10.9435 C.3       6 UNK         0.0844 
     56 C56       -50.6017  -24.5169    9.6021 C.3       14 UNK        -0.0967 
     57 S57       -52.3894  -24.1263    9.6766 S.3       14 UNK        -0.2604 
     58 C58       -53.1181  -25.2836   10.8912 C.3       14 UNK         0.0134 
     59 N         -48.6763  -25.6025   10.7239 N.am      6 UNK        -0.4116 
     60 C         -48.1397  -26.4278   11.6302 C.2       5 UNK         0.5034 
     61 O         -48.5935  -26.5957   12.7589 O.2       5 UNK        -0.5045 
     62 CA        -46.8516  -27.1593   11.2303 C.3       5 UNK         0.0224 
     63 CB        -47.1665  -28.4085   10.3958 C.3       5 UNK        -0.1978 
     64 N         -45.9169  -26.2986   10.5034 N.am      5 UNK        -0.4737 
     65 C         -45.2855  -25.2498   11.0464 C.2       4 UNK         0.5027 
     66 O         -45.4594  -24.8742   12.2057 O.2       4 UNK        -0.5211 
     67 CA        -44.3237  -24.4784   10.1302 C.3       4 UNK         0.0297 
     68 CB        -42.9930  -25.2326    9.9780 C.3       4 UNK        -0.1993 
     69 N         -44.9015  -24.2182    8.8092 N.am      4 UNK        -0.4486 
     70 C         -45.9041  -23.3563    8.5934 C.2       3 UNK         0.4961 
     71 O         -46.4376  -22.6888    9.4779 O.2       3 UNK        -0.5105 
     72 CA        -46.4162  -23.2301    7.1495 C.3       3 UNK         0.0299 
     73 CB        -45.4797  -22.3368    6.3195 C.3       3 UNK        -0.1972 
     74 N         -46.6317  -24.5038    6.4514 N.am      3 UNK        -0.4305 
     75 C         -47.4109  -25.5031    6.8881 C.2       2 UNK         0.5006 
     76 O         -47.8967  -25.5473    8.0197 O.2       2 UNK        -0.5106 
     77 CA        -47.7179  -26.6197    5.8758 C.3       2 UNK         0.0296 
     78 CB        -46.8587  -27.8755    6.1231 C.3       2 UNK        -0.2002 
     79 N         -49.1615  -26.8919    5.8555 N.am      2 UNK        -0.4032 
     80 C         -49.9172  -27.5385    6.7554 C.2       1 UNK         0.5000 
     81 O         -49.4755  -28.3151    7.6020 O.2       1 UNK        -0.5238 
     82 H82       -51.4286  -23.1881    4.7123 H         1 UNK         0.0889 
     83 H83       -52.6089  -23.4727    5.9932 H         1 UNK         0.0889 
     84 H84       -53.0318  -23.8126    4.3138 H         1 UNK         0.0889 
     85 H85       -52.1974  -25.3147    7.1288 H         1 UNK         0.3028 
     86 H86       -51.6760  -27.2644    7.8214 H         1 UNK         0.0864 
     87 H87       -52.0177  -28.3817    5.0006 H         1 UNK         0.0720 
     88 H88       -52.0220  -29.3190    6.4724 H         1 UNK         0.0720 
     89 H89       -54.3336  -30.0606    7.5495 H         1 UNK         0.0814 
     90 H90       -55.5594  -28.8766    7.9303 H         1 UNK         0.0814 
     91 H91       -54.5413  -26.5408    8.9310 H         1 UNK         0.1469 
     92 H92       -51.5030  -27.2684   11.8719 H         1 UNK         0.1381 
     93 H93       -52.6109  -30.3691    9.1459 H         1 UNK         0.1206 
     94 H94       -50.2357  -29.2507   11.8625 H         1 UNK         0.0813 
     95 H95       -50.1855  -30.0813   10.3312 H         1 UNK         0.0813 
     96 H96       -52.0886  -29.5986   13.5301 H         1 UNK         0.0638 
     97 H97       -51.5508  -31.0677   14.3088 H         1 UNK         0.0638 
     98 H98       -53.6829  -32.1974   13.5745 H         1 UNK         0.0568 
     99 H99       -55.8082  -29.7566   14.5779 H         1 UNK         0.3450 
    100 H100      -55.5947  -30.0267   16.2910 H         1 UNK         0.3450 
    101 H101      -54.2676  -29.5822   12.3737 H         1 UNK         0.2987 
    102 H102      -55.9547  -30.4226   10.1602 H         1 UNK         0.0766 
    103 H103      -57.9721  -31.7302   10.7183 H         1 UNK         0.0798 
    104 H104      -58.4376  -30.0893   10.3061 H         1 UNK         0.0798 
    105 H105      -58.4051  -30.6008   11.9931 H         1 UNK         0.0798 
    106 H106      -55.8994  -28.2683   10.6376 H         1 UNK         0.3198 
    107 H107      -55.7081  -26.4204   11.6859 H         1 UNK         0.0843 
    108 H108      -58.3480  -26.0105   13.1838 H         1 UNK         0.0831 
    109 H109      -58.1820  -26.1422   11.4393 H         1 UNK         0.0831 
    110 H110      -57.4655  -24.7779   12.2795 H         1 UNK         0.0831 
    111 H111      -56.1479  -25.4904   14.2817 H         1 UNK         0.3133 
    112 H112      -54.0570  -25.0166   15.4695 H         1 UNK         0.0566 
    113 H113      -55.0531  -27.5801   16.8433 H         1 UNK         0.0814 
    114 H114      -56.0253  -26.1526   16.5249 H         1 UNK         0.0814 
    115 H115      -54.6937  -26.0594   17.6604 H         1 UNK         0.0814 
    116 H116      -52.6415  -27.2623   16.6228 H         1 UNK         0.3091 
    117 H117      -50.3446  -26.8260   16.9549 H         1 UNK         0.0702 
    118 H118      -49.2581  -28.6992   15.6685 H         1 UNK         0.0785 
    119 H119      -50.1744  -28.2380   14.2363 H         1 UNK         0.0785 
    120 H120      -51.0079  -28.8344   15.6661 H         1 UNK         0.0785 
    121 H121      -48.8800  -26.0889   14.4555 H         1 UNK         0.2998 
    122 H122      -46.5810  -24.0735   16.3849 H         1 UNK         0.0697 
    123 H123      -45.0276  -25.4545   15.0517 H         1 UNK         0.0825 
    124 H124      -46.3216  -26.5748   14.6355 H         1 UNK         0.0825 
    125 H125      -45.7742  -26.4379   16.3015 H         1 UNK         0.0825 
    126 H126      -46.8412  -24.4039   13.5696 H         1 UNK         0.3029 
    127 H127      -48.6833  -21.3662   13.0212 H         1 UNK         0.0897 
    128 H128      -45.8012  -22.2355   12.4483 H         1 UNK         0.0792 
    129 H129      -46.2796  -20.7789   13.3077 H         1 UNK         0.0792 
    130 H130      -46.6965  -20.9695   11.6130 H         1 UNK         0.0792 
    131 H131      -47.6087  -23.6101   11.4471 H         1 UNK         0.3086 
    132 H132      -50.5303  -25.4005   11.5648 H         1 UNK         0.0583 
    133 H133      -50.0907  -23.7234    9.0533 H         1 UNK         0.1020 
    134 H134      -50.5183  -25.4004    8.9691 H         1 UNK         0.1020 
    135 H135      -52.6770  -25.1384   11.8778 H         1 UNK         0.0694 
    136 H136      -54.1646  -25.0054   11.0039 H         1 UNK         0.0694 
    137 H137      -48.2568  -25.5492    9.7961 H         1 UNK         0.2989 
    138 H138      -46.3604  -27.4824   12.1511 H         1 UNK         0.1055 
    139 H139      -46.2614  -28.9637   10.1499 H         1 UNK         0.0806 
    140 H140      -47.6672  -28.1500    9.4634 H         1 UNK         0.0806 
    141 H141      -47.8234  -29.0863   10.9417 H         1 UNK         0.0806 
    142 H142      -45.7633  -26.5061    9.5276 H         1 UNK         0.3061 
    143 H143      -44.1141  -23.5175   10.6059 H         1 UNK         0.0734 
    144 H144      -43.1234  -26.1962    9.4841 H         1 UNK         0.0832 
    145 H145      -42.2730  -24.6533    9.3997 H         1 UNK         0.0832 
    146 H146      -42.5423  -25.4251   10.9527 H         1 UNK         0.0832 
    147 H147      -44.5258  -24.7302    8.0242 H         1 UNK         0.3156 
    148 H148      -47.3879  -22.7342    7.2010 H         1 UNK         0.0589 
    149 H149      -45.9018  -22.1218    5.3377 H         1 UNK         0.0808 
    150 H150      -44.5029  -22.7990    6.1717 H         1 UNK         0.0808 
    151 H151      -45.3147  -21.3783    6.8140 H         1 UNK         0.0808 
    152 H152      -46.2560  -24.5647    5.5157 H         1 UNK         0.3098 
    153 H153      -47.4816  -26.2510    4.8764 H         1 UNK         0.0720 
    154 H154      -45.8042  -27.6628    5.9445 H         1 UNK         0.0791 
    155 H155      -47.1442  -28.6895    5.4568 H         1 UNK         0.0791 
    156 H156      -46.9411  -28.2360    7.1482 H         1 UNK         0.0791 
    157 H157      -49.6888  -26.3490    5.1756 H         1 UNK         0.3028 
@<TRIPOS>BOND
     1    1    2 1    
     2    1   82 1    
     3    1   83 1    
     4    1   84 1    
     5    2    3 2    
     6    2    4 am   BACKBONE|DICT|INTERRES
     7    4    5 1    
     8    4   85 1    
     9    5    6 1    
    10    5   80 1    
    11    5   86 1    
    12    6    7 1    
    13    6   87 1    
    14    6   88 1    
    15    7    8 1    
    16    8    9 1    
    17    8   89 1    
    18    8   90 1    
    19    9   10 ar   
    20    9   14 ar   
    21   10   11 ar   
    22   10   91 1    
    23   11   12 ar   
    24   11   58 1    
    25   12   13 ar   
    26   12   92 1    
    27   13   14 ar   
    28   13   15 1    
    29   14   93 1    
    30   15   16 1    
    31   15   94 1    
    32   15   95 1    
    33   16   17 1    
    34   17   18 1    
    35   17   96 1    
    36   17   97 1    
    37   18   19 1    
    38   18   22 1    
    39   18   98 1    
    40   19   20 am   BACKBONE|DICT|INTERRES
    41   19   21 2    
    42   20   99 1    
    43   20  100 1    
    44   22   23 am   BACKBONE|DICT|INTERRES
    45   22  101 1    
    46   23   24 2    
    47   23   25 1    
    48   25   26 1    
    49   25   27 1    
    50   25  102 1    
    51   26  103 1    
    52   26  104 1    
    53   26  105 1    
    54   27   28 am   BACKBONE|DICT|INTERRES
    55   27  106 1    
    56   28   29 2    
    57   28   30 1    
    58   30   31 1    
    59   30   32 1    
    60   30  107 1    
    61   31  108 1    
    62   31  109 1    
    63   31  110 1    
    64   32   33 am   BACKBONE|DICT|INTERRES
    65   32  111 1    
    66   33   34 2    
    67   33   35 1    
    68   35   36 1    
    69   35   37 1    
    70   35  112 1    
    71   36  113 1    
    72   36  114 1    
    73   36  115 1    
    74   37   38 am   BACKBONE|DICT|INTERRES
    75   37  116 1    
    76   38   39 2    
    77   38   40 1    
    78   40   41 1    
    79   40   42 1    
    80   40  117 1    
    81   41  118 1    
    82   41  119 1    
    83   41  120 1    
    84   42   43 am   BACKBONE|DICT|INTERRES
    85   42  121 1    
    86   43   44 2    
    87   43   45 1    
    88   45   46 1    
    89   45   47 1    
    90   45  122 1    
    91   46  123 1    
    92   46  124 1    
    93   46  125 1    
    94   47   48 am   BACKBONE|DICT|INTERRES
    95   47  126 1    
    96   48   49 2    
    97   48   50 1    
    98   50   51 1    
    99   50   52 1    
   100   50  127 1    
   101   51  128 1    
   102   51  129 1    
   103   51  130 1    
   104   52   53 am   BACKBONE|DICT|INTERRES
   105   52  131 1    
   106   53   54 2    
   107   53   55 1    
   108   55   56 1    
   109   55   59 1    
   110   55  132 1    
   111   56   57 1    
   112   56  133 1    
   113   56  134 1    
   114   57   58 1    
   115   58  135 1    
   116   58  136 1    
   117   59   60 am   BACKBONE|DICT|INTERRES
   118   59  137 1    
   119   60   61 2    
   120   60   62 1    
   121   62   63 1    
   122   62   64 1    
   123   62  138 1    
   124   63  139 1    
   125   63  140 1    
   126   63  141 1    
   127   64   65 am   BACKBONE|DICT|INTERRES
   128   64  142 1    
   129   65   66 2    
   130   65   67 1    
   131   67   68 1    
   132   67   69 1    
   133   67  143 1    
   134   68  144 1    
   135   68  145 1    
   136   68  146 1    
   137   69   70 am   BACKBONE|DICT|INTERRES
   138   69  147 1    
   139   70   71 2    
   140   70   72 1    
   141   72   73 1    
   142   72   74 1    
   143   72  148 1    
   144   73  149 1    
   145   73  150 1    
   146   73  151 1    
   147   74   75 am   BACKBONE|DICT|INTERRES
   148   74  152 1    
   149   75   76 2    
   150   75   77 1    
   151   77   78 1    
   152   77   79 1    
   153   77  153 1    
   154   78  154 1    
   155   78  155 1    
   156   78  156 1    
   157   79   80 am   BACKBONE|DICT|INTERRES
   158   79  157 1    
   159   80   81 2    
@<TRIPOS>SUBSTRUCTURE
     1 UNK         1 GROUP             0       ****    0 ROOT    
