@<TRIPOS>MOLECULE
3R207
157   159    1
SMALL
USER_CHARGES


@<TRIPOS>ATOM
      1 CA        -47.4471  -28.7081    5.3827 C.3       0 UNK        -0.1975 
      2 C         -47.7406  -28.0554    6.7246 C.2       0 UNK         0.4852 
      3 O         -48.2739  -26.9481    6.7550 O.2       0 UNK        -0.5216 
      4 N         -47.3963  -28.7338    7.8260 N.am      1 UNK        -0.4461 
      5 CA        -47.6294  -28.2843    9.2071 C.3       1 UNK         0.0864 
      6 C6        -48.3250  -29.3914   10.0443 C.3       14 UNK        -0.0898 
      7 S7        -49.9811  -29.8047    9.4066 S.3       14 UNK        -0.2598 
      8 C8        -50.9701  -28.5227   10.2417 C.3       14 UNK         0.0286 
      9 C9        -52.3258  -28.2890    9.5876 C.ar      14 UNK        -0.0844 
     10 C10       -52.4409  -28.1297    8.2029 C.ar      14 UNK        -0.0881 
     11 C11       -53.6601  -27.7670    7.6224 C.ar      14 UNK        -0.0643 
     12 C12       -54.7936  -27.6509    8.4351 C.ar      14 UNK        -0.0930 
     13 C13       -54.7065  -27.8525    9.8168 C.ar      14 UNK        -0.0827 
     14 C14       -53.4626  -28.1468   10.3845 C.ar      14 UNK        -0.1249 
     15 C15       -55.9444  -27.7006   10.6964 C.3       14 UNK         0.0141 
     16 S16       -56.1510  -29.0918   11.8544 S.3       14 UNK        -0.2313 
     17 C17       -57.6387  -28.5758   12.7712 C.3       14 UNK        -0.0915 
     18 CA        -57.3360  -27.7847   14.0731 C.3       13 UNK         0.0968 
     19 C         -58.6693  -27.3180   14.7276 C.2       13 UNK         0.5732 
     20 N         -59.1060  -27.9020   15.8374 N.am      13 UNK        -0.7310 
     21 O         -59.3178  -26.4087   14.2153 O.2       13 UNK        -0.5035 
     22 N         -56.4162  -28.5099   14.9670 N.am      13 UNK        -0.4233 
     23 C         -55.8423  -28.0066   16.0674 C.2       13 UNK         0.4989 
     24 O         -56.0412  -26.8653   16.4855 O.2       13 UNK        -0.4996 
     25 CA        -54.8683  -28.9172   16.8376 C.3       12 UNK         0.0216 
     26 CB        -55.6157  -30.0152   17.6203 C.3       12 UNK        -0.1964 
     27 N         -53.7828  -29.4663   16.0133 N.am      12 UNK        -0.4276 
     28 C         -53.8534  -30.3455   15.0009 C.2       12 UNK         0.5020 
     29 O         -54.8963  -30.9017   14.6521 O.2       12 UNK        -0.5489 
     30 CA        -52.5425  -30.6401   14.2491 C.3       11 UNK         0.0294 
     31 CB        -52.7729  -31.0930   12.7957 C.3       11 UNK        -0.2019 
     32 N         -51.6670  -29.4655   14.2714 N.am      11 UNK        -0.4493 
     33 C         -50.3776  -29.4819   14.6386 C.2       11 UNK         0.4932 
     34 O         -49.7455  -30.5147   14.8619 O.2       11 UNK        -0.5029 
     35 CA        -49.6697  -28.1268   14.8359 C.3       10 UNK         0.0280 
     36 CB        -48.6965  -27.8380   13.6833 C.3       10 UNK        -0.1976 
     37 N         -50.5871  -26.9947   15.0018 N.am      10 UNK        -0.4242 
     38 C         -51.3884  -26.8203   16.0656 C.2       10 UNK         0.5072 
     39 O         -51.4430  -27.6100   17.0095 O.2       10 UNK        -0.5224 
     40 CA        -52.3249  -25.5978   16.0760 C.3       9 UNK         0.0343 
     41 CB        -51.7012  -24.4546   16.8919 C.3       9 UNK        -0.2003 
     42 N         -52.6930  -25.0964   14.7507 N.am      9 UNK        -0.4272 
     43 C         -53.3096  -25.8058   13.7958 C.2       9 UNK         0.4988 
     44 O         -53.6118  -26.9941   13.9018 O.2       9 UNK        -0.5108 
     45 CA        -53.5681  -25.0739   12.4704 C.3       8 UNK         0.0248 
     46 CB        -54.8256  -24.1957   12.5709 C.3       8 UNK        -0.2001 
     47 N         -52.4433  -24.2772   11.9630 N.am      8 UNK        -0.4140 
     48 C         -51.1733  -24.6921   11.8435 C.2       8 UNK         0.5028 
     49 O         -50.7480  -25.7547   12.2972 O.2       8 UNK        -0.5428 
     50 CA        -50.2268  -23.7938   11.0271 C.3       7 UNK         0.0264 
     51 CB        -48.7903  -23.8642   11.5768 C.3       7 UNK        -0.1988 
     52 N         -50.2216  -24.2204    9.6261 N.am      7 UNK        -0.4454 
     53 C         -51.2759  -24.1618    8.7973 C.2       7 UNK         0.5027 
     54 O         -52.3014  -23.5218    9.0400 O.2       7 UNK        -0.5083 
     55 CA        -51.1588  -24.9938    7.5055 C.3       6 UNK         0.0844 
     56 C56       -52.4335  -24.9867    6.6170 C.3       14 UNK        -0.0967 
     57 S57       -52.4315  -26.4066    5.4649 S.3       14 UNK        -0.2604 
     58 C58       -53.7630  -27.4801    6.1246 C.3       14 UNK         0.0134 
     59 N         -49.9213  -24.7180    6.7797 N.am      6 UNK        -0.4116 
     60 C         -49.5172  -23.5480    6.2767 C.2       5 UNK         0.5034 
     61 O         -50.1895  -22.5147    6.2744 O.2       5 UNK        -0.5045 
     62 CA        -48.0806  -23.5254    5.7262 C.3       5 UNK         0.0224 
     63 CB        -48.0031  -22.7862    4.3788 C.3       5 UNK        -0.1978 
     64 N         -47.1536  -22.9016    6.6749 N.am      5 UNK        -0.4737 
     65 C         -46.8880  -23.3521    7.9079 C.2       4 UNK         0.5027 
     66 O         -47.3783  -24.3753    8.3984 O.2       4 UNK        -0.5211 
     67 CA        -45.9106  -22.5157    8.7411 C.3       4 UNK         0.0297 
     68 CB        -46.5699  -21.2140    9.2405 C.3       4 UNK        -0.1993 
     69 N         -45.4862  -23.3584    9.8513 N.am      4 UNK        -0.4486 
     70 C         -44.4700  -23.1551   10.6927 C.2       3 UNK         0.4961 
     71 O         -43.7737  -22.1396   10.7088 O.2       3 UNK        -0.5105 
     72 CA        -44.1623  -24.3077   11.6638 C.3       3 UNK         0.0299 
     73 CB        -45.0580  -24.2264   12.9104 C.3       3 UNK        -0.1972 
     74 N         -44.3084  -25.6292   11.0434 N.am      3 UNK        -0.4305 
     75 C         -43.5223  -26.1204   10.0769 C.2       2 UNK         0.5006 
     76 O         -42.5735  -25.5039    9.5904 O.2       2 UNK        -0.5106 
     77 CA        -43.8173  -27.5457    9.5727 C.3       2 UNK         0.0296 
     78 CB        -43.3351  -28.5995   10.5898 C.3       2 UNK        -0.2002 
     79 N         -45.2041  -27.8050    9.1550 N.am      2 UNK        -0.4032 
     80 C         -46.3258  -27.8168    9.8933 C.2       1 UNK         0.5000 
     81 O         -46.3586  -27.4917   11.0819 O.2       1 UNK        -0.5238 
     82 H82       -48.3720  -28.8357    4.8208 H         1 UNK         0.0889 
     83 H83       -46.9813  -29.6867    5.4963 H         1 UNK         0.0889 
     84 H84       -46.7776  -28.0777    4.7981 H         1 UNK         0.0889 
     85 H85       -46.9865  -29.6530    7.7320 H         1 UNK         0.3028 
     86 H86       -48.2787  -27.4065    9.2048 H         1 UNK         0.0864 
     87 H87       -48.4259  -29.1014   11.0895 H         1 UNK         0.0720 
     88 H88       -47.7238  -30.3023   10.0466 H         1 UNK         0.0720 
     89 H89       -50.4291  -27.5760   10.2333 H         1 UNK         0.0814 
     90 H90       -51.0877  -28.8000   11.2905 H         1 UNK         0.0814 
     91 H91       -51.5640  -28.2314    7.5780 H         1 UNK         0.1469 
     92 H92       -55.7443  -27.3872    7.9922 H         1 UNK         0.1381 
     93 H93       -53.3798  -28.2451   11.4579 H         1 UNK         0.1206 
     94 H94       -55.8726  -26.7716   11.2611 H         1 UNK         0.0813 
     95 H95       -56.8425  -27.6235   10.0818 H         1 UNK         0.0813 
     96 H96       -58.2048  -29.4786   13.0076 H         1 UNK         0.0638 
     97 H97       -58.2725  -27.9909   12.1017 H         1 UNK         0.0638 
     98 H98       -56.8130  -26.8719   13.7830 H         1 UNK         0.0568 
     99 H99       -59.9691  -27.5899   16.2534 H         1 UNK         0.3450 
    100 H100      -58.5804  -28.6490   16.2613 H         1 UNK         0.3450 
    101 H101      -56.1360  -29.4426   14.6753 H         1 UNK         0.2987 
    102 H102      -54.3709  -28.2829   17.5734 H         1 UNK         0.0766 
    103 H103      -56.3458  -29.5763   18.3015 H         1 UNK         0.0798 
    104 H104      -54.9278  -30.6086   18.2225 H         1 UNK         0.0798 
    105 H105      -56.1569  -30.6963   16.9632 H         1 UNK         0.0798 
    106 H106      -52.8721  -29.0670   16.2112 H         1 UNK         0.3198 
    107 H107      -52.0734  -31.4664   14.7872 H         1 UNK         0.0843 
    108 H108      -53.3593  -30.3663   12.2365 H         1 UNK         0.0831 
    109 H109      -53.3184  -32.0368   12.7646 H         1 UNK         0.0831 
    110 H110      -51.8308  -31.2449   12.2687 H         1 UNK         0.0831 
    111 H111      -52.1221  -28.5725   14.1045 H         1 UNK         0.3133 
    112 H112      -49.0810  -28.2065   15.7522 H         1 UNK         0.0566 
    113 H113      -48.1443  -26.9124   13.8463 H         1 UNK         0.0814 
    114 H114      -49.2194  -27.7479   12.7329 H         1 UNK         0.0814 
    115 H115      -47.9624  -28.6378   13.5772 H         1 UNK         0.0814 
    116 H116      -50.6544  -26.3530   14.2156 H         1 UNK         0.3091 
    117 H117      -53.2487  -25.9057   16.5702 H         1 UNK         0.0702 
    118 H118      -52.3939  -23.6198   17.0010 H         1 UNK         0.0785 
    119 H119      -50.7891  -24.0781   16.4269 H         1 UNK         0.0785 
    120 H120      -51.4406  -24.7892   17.8972 H         1 UNK         0.0785 
    121 H121      -52.4571  -24.1360   14.5479 H         1 UNK         0.2998 
    122 H122      -53.7560  -25.8361   11.7178 H         1 UNK         0.0697 
    123 H123      -54.6773  -23.3517   13.2454 H         1 UNK         0.0825 
    124 H124      -55.6747  -24.7678   12.9477 H         1 UNK         0.0825 
    125 H125      -55.1119  -23.8009   11.5958 H         1 UNK         0.0825 
    126 H126      -52.6915  -23.4144   11.4985 H         1 UNK         0.3029 
    127 H127      -50.5732  -22.7599   11.0848 H         1 UNK         0.0897 
    128 H128      -48.7619  -23.5920   12.6326 H         1 UNK         0.0792 
    129 H129      -48.1286  -23.1810   11.0501 H         1 UNK         0.0792 
    130 H130      -48.3696  -24.8674   11.4876 H         1 UNK         0.0792 
    131 H131      -49.3841  -24.6915    9.3039 H         1 UNK         0.3086 
    132 H132      -51.0156  -26.0060    7.8734 H         1 UNK         0.0583 
    133 H133      -53.3391  -25.0340    7.2244 H         1 UNK         0.1020 
    134 H134      -52.5042  -24.0581    6.0489 H         1 UNK         0.1020 
    135 H135      -54.7203  -27.0104    5.8930 H         1 UNK         0.0694 
    136 H136      -53.7477  -28.4279    5.5853 H         1 UNK         0.0694 
    137 H137      -49.2618  -25.4978    6.7580 H         1 UNK         0.2989 
    138 H138      -47.7517  -24.5543    5.5627 H         1 UNK         0.1055 
    139 H139      -48.2690  -21.7329    4.4769 H         1 UNK         0.0806 
    140 H140      -48.6878  -23.2283    3.6536 H         1 UNK         0.0806 
    141 H141      -47.0015  -22.8417    3.9520 H         1 UNK         0.0806 
    142 H142      -46.7213  -22.0399    6.3742 H         1 UNK         0.3061 
    143 H143      -45.0372  -22.2803    8.1295 H         1 UNK         0.0734 
    144 H144      -47.4826  -21.4062    9.8031 H         1 UNK         0.0832 
    145 H145      -45.8986  -20.6402    9.8790 H         1 UNK         0.0832 
    146 H146      -46.8400  -20.5690    8.4038 H         1 UNK         0.0832 
    147 H147      -45.9936  -24.2357    9.8874 H         1 UNK         0.3156 
    148 H148      -43.1238  -24.2016   11.9846 H         1 UNK         0.0589 
    149 H149      -46.1088  -24.3814   12.6651 H         1 UNK         0.0808 
    150 H150      -44.9741  -23.2500   13.3895 H         1 UNK         0.0808 
    151 H151      -44.7748  -24.9753   13.6503 H         1 UNK         0.0808 
    152 H152      -45.0832  -26.2162   11.3494 H         1 UNK         0.3098 
    153 H153      -43.2187  -27.6785    8.6698 H         1 UNK         0.0720 
    154 H154      -42.2821  -28.4521   10.8338 H         1 UNK         0.0791 
    155 H155      -43.4361  -29.6091   10.1916 H         1 UNK         0.0791 
    156 H156      -43.8931  -28.5520   11.5256 H         1 UNK         0.0791 
    157 H157      -45.3142  -28.0323    8.1769 H         1 UNK         0.3028 
@<TRIPOS>BOND
     1    1    2 1    
     2    1   82 1    
     3    1   83 1    
     4    1   84 1    
     5    2    3 2    
     6    2    4 am   BACKBONE|DICT|INTERRES
     7    4    5 1    
     8    4   85 1    
     9    5    6 1    
    10    5   80 1    
    11    5   86 1    
    12    6    7 1    
    13    6   87 1    
    14    6   88 1    
    15    7    8 1    
    16    8    9 1    
    17    8   89 1    
    18    8   90 1    
    19    9   10 ar   
    20    9   14 ar   
    21   10   11 ar   
    22   10   91 1    
    23   11   12 ar   
    24   11   58 1    
    25   12   13 ar   
    26   12   92 1    
    27   13   14 ar   
    28   13   15 1    
    29   14   93 1    
    30   15   16 1    
    31   15   94 1    
    32   15   95 1    
    33   16   17 1    
    34   17   18 1    
    35   17   96 1    
    36   17   97 1    
    37   18   19 1    
    38   18   22 1    
    39   18   98 1    
    40   19   20 am   BACKBONE|DICT|INTERRES
    41   19   21 2    
    42   20   99 1    
    43   20  100 1    
    44   22   23 am   BACKBONE|DICT|INTERRES
    45   22  101 1    
    46   23   24 2    
    47   23   25 1    
    48   25   26 1    
    49   25   27 1    
    50   25  102 1    
    51   26  103 1    
    52   26  104 1    
    53   26  105 1    
    54   27   28 am   BACKBONE|DICT|INTERRES
    55   27  106 1    
    56   28   29 2    
    57   28   30 1    
    58   30   31 1    
    59   30   32 1    
    60   30  107 1    
    61   31  108 1    
    62   31  109 1    
    63   31  110 1    
    64   32   33 am   BACKBONE|DICT|INTERRES
    65   32  111 1    
    66   33   34 2    
    67   33   35 1    
    68   35   36 1    
    69   35   37 1    
    70   35  112 1    
    71   36  113 1    
    72   36  114 1    
    73   36  115 1    
    74   37   38 am   BACKBONE|DICT|INTERRES
    75   37  116 1    
    76   38   39 2    
    77   38   40 1    
    78   40   41 1    
    79   40   42 1    
    80   40  117 1    
    81   41  118 1    
    82   41  119 1    
    83   41  120 1    
    84   42   43 am   BACKBONE|DICT|INTERRES
    85   42  121 1    
    86   43   44 2    
    87   43   45 1    
    88   45   46 1    
    89   45   47 1    
    90   45  122 1    
    91   46  123 1    
    92   46  124 1    
    93   46  125 1    
    94   47   48 am   BACKBONE|DICT|INTERRES
    95   47  126 1    
    96   48   49 2    
    97   48   50 1    
    98   50   51 1    
    99   50   52 1    
   100   50  127 1    
   101   51  128 1    
   102   51  129 1    
   103   51  130 1    
   104   52   53 am   BACKBONE|DICT|INTERRES
   105   52  131 1    
   106   53   54 2    
   107   53   55 1    
   108   55   56 1    
   109   55   59 1    
   110   55  132 1    
   111   56   57 1    
   112   56  133 1    
   113   56  134 1    
   114   57   58 1    
   115   58  135 1    
   116   58  136 1    
   117   59   60 am   BACKBONE|DICT|INTERRES
   118   59  137 1    
   119   60   61 2    
   120   60   62 1    
   121   62   63 1    
   122   62   64 1    
   123   62  138 1    
   124   63  139 1    
   125   63  140 1    
   126   63  141 1    
   127   64   65 am   BACKBONE|DICT|INTERRES
   128   64  142 1    
   129   65   66 2    
   130   65   67 1    
   131   67   68 1    
   132   67   69 1    
   133   67  143 1    
   134   68  144 1    
   135   68  145 1    
   136   68  146 1    
   137   69   70 am   BACKBONE|DICT|INTERRES
   138   69  147 1    
   139   70   71 2    
   140   70   72 1    
   141   72   73 1    
   142   72   74 1    
   143   72  148 1    
   144   73  149 1    
   145   73  150 1    
   146   73  151 1    
   147   74   75 am   BACKBONE|DICT|INTERRES
   148   74  152 1    
   149   75   76 2    
   150   75   77 1    
   151   77   78 1    
   152   77   79 1    
   153   77  153 1    
   154   78  154 1    
   155   78  155 1    
   156   78  156 1    
   157   79   80 am   BACKBONE|DICT|INTERRES
   158   79  157 1    
   159   80   81 2    
@<TRIPOS>SUBSTRUCTURE
     1 UNK         1 GROUP             0       ****    0 ROOT    
