@<TRIPOS>MOLECULE
3R207
157   159    1
SMALL
USER_CHARGES


@<TRIPOS>ATOM
      1 CA        -47.3219  -31.7987    5.6669 C.3       0 UNK        -0.1975 
      2 C         -48.2731  -30.6806    5.2668 C.2       0 UNK         0.4852 
      3 O         -48.2721  -30.2620    4.1087 O.2       0 UNK        -0.5216 
      4 N         -49.0825  -30.1936    6.2173 N.am      1 UNK        -0.4461 
      5 CA        -50.0704  -29.1235    6.0155 C.3       1 UNK         0.0864 
      6 C6        -51.1014  -29.0733    7.1673 C.3       14 UNK        -0.0898 
      7 S7        -52.1031  -30.5966    7.2682 S.3       14 UNK        -0.2598 
      8 C8        -52.7050  -30.5349    8.9867 C.3       14 UNK         0.0286 
      9 C9        -53.5042  -29.2687    9.2580 C.ar      14 UNK        -0.0844 
     10 C10       -52.8842  -28.1683    9.8550 C.ar      14 UNK        -0.0881 
     11 C11       -53.5834  -26.9741   10.0399 C.ar      14 UNK        -0.0643 
     12 C12       -54.9282  -26.8993    9.6674 C.ar      14 UNK        -0.0930 
     13 C13       -55.5699  -28.0030    9.0984 C.ar      14 UNK        -0.0827 
     14 C14       -54.8499  -29.1841    8.8878 C.ar      14 UNK        -0.1249 
     15 C15       -57.0284  -27.8928    8.6780 C.3       14 UNK         0.0141 
     16 S16       -58.1631  -28.4375    9.9948 S.3       14 UNK        -0.2313 
     17 C17       -58.1812  -30.2442    9.7314 C.3       14 UNK        -0.0915 
     18 CA        -57.8320  -31.0741   10.9948 C.3       13 UNK         0.0968 
     19 C         -57.8681  -32.5940   10.6549 C.2       13 UNK         0.5732 
     20 N         -56.7397  -33.2923   10.6059 N.am      13 UNK        -0.7310 
     21 O         -58.9426  -33.1466   10.4309 O.2       13 UNK        -0.5035 
     22 N         -56.6023  -30.6012   11.6546 N.am      13 UNK        -0.4233 
     23 C         -56.1851  -30.9967   12.8655 C.2       13 UNK         0.4989 
     24 O         -56.7705  -31.8270   13.5617 O.2       13 UNK        -0.4996 
     25 CA        -54.9012  -30.3453   13.4012 C.3       12 UNK         0.0216 
     26 CB        -53.6555  -31.0268   12.8127 C.3       12 UNK        -0.1964 
     27 N         -54.8389  -28.9051   13.1469 N.am      12 UNK        -0.4276 
     28 C         -55.6151  -27.9928   13.7463 C.2       12 UNK         0.5020 
     29 O         -56.4907  -28.2628   14.5709 O.2       12 UNK        -0.5489 
     30 CA        -55.3272  -26.5214   13.4021 C.3       11 UNK         0.0294 
     31 CB        -56.6234  -25.7142   13.2164 C.3       11 UNK        -0.2019 
     32 N         -54.4912  -25.8830   14.4224 N.am      11 UNK        -0.4493 
     33 C         -53.2239  -26.2195   14.7005 C.2       11 UNK         0.4932 
     34 O         -52.5839  -27.0657   14.0691 O.2       11 UNK        -0.5029 
     35 CA        -52.5632  -25.4980   15.8846 C.3       10 UNK         0.0280 
     36 CB        -53.3393  -25.7320   17.1979 C.3       10 UNK        -0.1976 
     37 N         -51.1992  -26.0009   16.0133 N.am      10 UNK        -0.4242 
     38 C         -50.1896  -25.4364   16.6834 C.2       10 UNK         0.5072 
     39 O         -50.2889  -24.3770   17.3051 O.2       10 UNK        -0.5224 
     40 CA        -48.8497  -26.1935   16.6986 C.3       9 UNK         0.0343 
     41 CB        -48.9095  -27.6042   16.0729 C.3       9 UNK        -0.2003 
     42 N         -47.8366  -25.4074   15.9993 N.am      9 UNK        -0.4272 
     43 C         -46.8748  -24.6858   16.5882 C.2       9 UNK         0.4988 
     44 O         -46.7156  -24.6083   17.8076 O.2       9 UNK        -0.5108 
     45 CA        -45.9039  -23.9376   15.6591 C.3       8 UNK         0.0248 
     46 CB        -44.8602  -24.9049   15.0768 C.3       8 UNK        -0.2001 
     47 N         -46.5793  -23.2256   14.5716 N.am      8 UNK        -0.4140 
     48 C         -47.3427  -22.1356   14.7391 C.2       8 UNK         0.5028 
     49 O         -47.5343  -21.5920   15.8278 O.2       8 UNK        -0.5428 
     50 CA        -47.9987  -21.5395   13.4813 C.3       7 UNK         0.0264 
     51 CB        -47.0073  -20.6441   12.7207 C.3       7 UNK        -0.1988 
     52 N         -48.5321  -22.5602   12.5778 N.am      7 UNK        -0.4454 
     53 C         -49.5810  -23.3473   12.8582 C.2       7 UNK         0.5027 
     54 O         -50.2566  -23.2471   13.8820 O.2       7 UNK        -0.5083 
     55 CA        -49.9332  -24.4430   11.8318 C.3       6 UNK         0.0844 
     56 C56       -50.8681  -23.8748   10.7364 C.3       14 UNK        -0.0967 
     57 S57       -51.5163  -25.1683    9.6316 S.3       14 UNK        -0.2604 
     58 C58       -52.8871  -25.7744   10.6602 C.3       14 UNK         0.0134 
     59 N         -48.7417  -25.1023   11.2849 N.am      6 UNK        -0.4116 
     60 C         -47.8541  -25.7908   12.0181 C.2       5 UNK         0.5034 
     61 O         -47.9702  -25.9948   13.2253 O.2       5 UNK        -0.5045 
     62 CA        -46.5853  -26.2746   11.3027 C.3       5 UNK         0.0224 
     63 CB        -46.8342  -27.5930   10.5514 C.3       5 UNK        -0.1978 
     64 N         -46.0616  -25.2535   10.3927 N.am      5 UNK        -0.4737 
     65 C         -45.4939  -24.1100   10.8055 C.2       4 UNK         0.5027 
     66 O         -45.3078  -23.8316   11.9890 O.2       4 UNK        -0.5211 
     67 CA        -45.1118  -23.0852    9.7242 C.3       4 UNK         0.0297 
     68 CB        -43.7154  -23.3922    9.1614 C.3       4 UNK        -0.1993 
     69 N         -46.0815  -23.0279    8.6285 N.am      4 UNK        -0.4486 
     70 C         -47.3587  -22.6406    8.7597 C.2       3 UNK         0.4961 
     71 O         -47.8414  -22.2196    9.8100 O.2       3 UNK        -0.5105 
     72 CA        -48.2635  -22.8052    7.5254 C.3       3 UNK         0.0299 
     73 CB        -48.2405  -21.5313    6.6667 C.3       3 UNK        -0.1972 
     74 N         -47.9105  -23.9662    6.6993 N.am      3 UNK        -0.4305 
     75 C         -47.9463  -25.2364    7.1252 C.2       2 UNK         0.5006 
     76 O         -48.2799  -25.5677    8.2647 O.2       2 UNK        -0.5106 
     77 CA        -47.4293  -26.3011    6.1473 C.3       2 UNK         0.0296 
     78 CB        -45.9431  -26.5896    6.4191 C.3       2 UNK        -0.2002 
     79 N         -48.1831  -27.5489    6.2612 N.am      2 UNK        -0.4032 
     80 C         -49.4291  -27.7333    5.8013 C.2       1 UNK         0.5000 
     81 O         -50.0683  -26.8637    5.2050 O.2       1 UNK        -0.5238 
     82 H82       -46.2899  -31.4908    5.5011 H         1 UNK         0.0889 
     83 H83       -47.5136  -32.6868    5.0652 H         1 UNK         0.0889 
     84 H84       -47.4303  -32.0712    6.7166 H         1 UNK         0.0889 
     85 H85       -49.0614  -30.5979    7.1428 H         1 UNK         0.3028 
     86 H86       -50.6132  -29.3500    5.0948 H         1 UNK         0.0864 
     87 H87       -51.7914  -28.2372    7.0333 H         1 UNK         0.0720 
     88 H88       -50.5953  -28.9060    8.1198 H         1 UNK         0.0720 
     89 H89       -51.8576  -30.6100    9.6701 H         1 UNK         0.0814 
     90 H90       -53.3275  -31.4108    9.1749 H         1 UNK         0.0814 
     91 H91       -51.8434  -28.2235   10.1439 H         1 UNK         0.1469 
     92 H92       -55.4773  -25.9795    9.8167 H         1 UNK         0.1381 
     93 H93       -55.3247  -30.0321    8.4148 H         1 UNK         0.1206 
     94 H94       -57.2623  -26.8563    8.4300 H         1 UNK         0.0813 
     95 H95       -57.2079  -28.4619    7.7647 H         1 UNK         0.0813 
     96 H96       -57.5064  -30.5025    8.9151 H         1 UNK         0.0638 
     97 H97       -59.1806  -30.5060    9.3788 H         1 UNK         0.0638 
     98 H98       -58.6377  -30.9142   11.7139 H         1 UNK         0.0568 
     99 H99       -55.8554  -32.8496   10.7926 H         1 UNK         0.3450 
    100 H100      -56.7779  -34.2752   10.3873 H         1 UNK         0.3450 
    101 H101      -56.0751  -29.8987   11.1568 H         1 UNK         0.2987 
    102 H102      -54.8843  -30.4921   14.4835 H         1 UNK         0.0766 
    103 H103      -53.6605  -32.0973   13.0231 H         1 UNK         0.0798 
    104 H104      -52.7402  -30.6180   13.2416 H         1 UNK         0.0798 
    105 H105      -53.6015  -30.9072   11.7314 H         1 UNK         0.0798 
    106 H106      -54.1025  -28.5811   12.5352 H         1 UNK         0.3198 
    107 H107      -54.7888  -26.4923   12.4589 H         1 UNK         0.0843 
    108 H108      -57.2023  -25.6557   14.1390 H         1 UNK         0.0831 
    109 H109      -57.2613  -26.1758   12.4608 H         1 UNK         0.0831 
    110 H110      -56.4145  -24.6971   12.8845 H         1 UNK         0.0831 
    111 H111      -54.9458  -25.1948   15.0049 H         1 UNK         0.3133 
    112 H112      -52.5269  -24.4308   15.6565 H         1 UNK         0.0566 
    113 H113      -53.4191  -26.7945   17.4319 H         1 UNK         0.0814 
    114 H114      -54.3521  -25.3322   17.1424 H         1 UNK         0.0814 
    115 H115      -52.8543  -25.2418   18.0421 H         1 UNK         0.0814 
    116 H116      -51.0293  -26.8383   15.4683 H         1 UNK         0.3091 
    117 H117      -48.5743  -26.3165   17.7479 H         1 UNK         0.0702 
    118 H118      -47.9438  -28.1038   16.1516 H         1 UNK         0.0785 
    119 H119      -49.1765  -27.5788   15.0157 H         1 UNK         0.0785 
    120 H120      -49.6354  -28.2351   16.5878 H         1 UNK         0.0785 
    121 H121      -47.8859  -25.4266   14.9825 H         1 UNK         0.2998 
    122 H122      -45.3734  -23.1977   16.2623 H         1 UNK         0.0697 
    123 H123      -44.1103  -24.3725   14.4913 H         1 UNK         0.0825 
    124 H124      -45.3193  -25.6529   14.4296 H         1 UNK         0.0825 
    125 H125      -44.3341  -25.4371   15.8704 H         1 UNK         0.0825 
    126 H126      -46.4058  -23.5619   13.6288 H         1 UNK         0.3029 
    127 H127      -48.8336  -20.9163   13.8095 H         1 UNK         0.0897 
    128 H128      -46.1512  -21.2100   12.3525 H         1 UNK         0.0792 
    129 H129      -46.6228  -19.8526   13.3654 H         1 UNK         0.0792 
    130 H130      -47.4826  -20.1640   11.8650 H         1 UNK         0.0792 
    131 H131      -48.0919  -22.6401   11.6642 H         1 UNK         0.3086 
    132 H132      -50.4832  -25.2079   12.3836 H         1 UNK         0.0583 
    133 H133      -51.7131  -23.3456   11.1824 H         1 UNK         0.1020 
    134 H134      -50.3437  -23.1365   10.1284 H         1 UNK         0.1020 
    135 H135      -52.5009  -26.0645   11.6360 H         1 UNK         0.0694 
    136 H136      -53.5928  -24.9599   10.8312 H         1 UNK         0.0694 
    137 H137      -48.5947  -25.0281   10.2839 H         1 UNK         0.2989 
    138 H138      -45.8281  -26.4639   12.0670 H         1 UNK         0.1055 
    139 H139      -45.9322  -27.9397   10.0471 H         1 UNK         0.0806 
    140 H140      -47.6232  -27.5020    9.8055 H         1 UNK         0.0806 
    141 H141      -47.1385  -28.3783   11.2447 H         1 UNK         0.0806 
    142 H142      -46.2563  -25.3764    9.4091 H         1 UNK         0.3061 
    143 H143      -45.0822  -22.1009   10.1964 H         1 UNK         0.0734 
    144 H144      -43.6844  -24.3575    8.6544 H         1 UNK         0.0832 
    145 H145      -43.3957  -22.6284    8.4523 H         1 UNK         0.0832 
    146 H146      -42.9726  -23.4204    9.9601 H         1 UNK         0.0832 
    147 H147      -45.7702  -23.3461    7.7229 H         1 UNK         0.3156 
    148 H148      -49.2838  -22.9560    7.8839 H         1 UNK         0.0589 
    149 H149      -48.9454  -21.5981    5.8378 H         1 UNK         0.0808 
    150 H150      -47.2501  -21.3383    6.2524 H         1 UNK         0.0808 
    151 H151      -48.5217  -20.6586    7.2581 H         1 UNK         0.0808 
    152 H152      -47.6150  -23.7767    5.7519 H         1 UNK         0.3098 
    153 H153      -47.5324  -25.9282    5.1259 H         1 UNK         0.0720 
    154 H154      -45.3405  -25.6866    6.3130 H         1 UNK         0.0791 
    155 H155      -45.5477  -27.3229    5.7157 H         1 UNK         0.0791 
    156 H156      -45.7821  -26.9734    7.4276 H         1 UNK         0.0791 
    157 H157      -47.7425  -28.3057    6.7616 H         1 UNK         0.3028 
@<TRIPOS>BOND
     1    1    2 1    
     2    1   82 1    
     3    1   83 1    
     4    1   84 1    
     5    2    3 2    
     6    2    4 am   BACKBONE|DICT|INTERRES
     7    4    5 1    
     8    4   85 1    
     9    5    6 1    
    10    5   80 1    
    11    5   86 1    
    12    6    7 1    
    13    6   87 1    
    14    6   88 1    
    15    7    8 1    
    16    8    9 1    
    17    8   89 1    
    18    8   90 1    
    19    9   10 ar   
    20    9   14 ar   
    21   10   11 ar   
    22   10   91 1    
    23   11   12 ar   
    24   11   58 1    
    25   12   13 ar   
    26   12   92 1    
    27   13   14 ar   
    28   13   15 1    
    29   14   93 1    
    30   15   16 1    
    31   15   94 1    
    32   15   95 1    
    33   16   17 1    
    34   17   18 1    
    35   17   96 1    
    36   17   97 1    
    37   18   19 1    
    38   18   22 1    
    39   18   98 1    
    40   19   20 am   BACKBONE|DICT|INTERRES
    41   19   21 2    
    42   20   99 1    
    43   20  100 1    
    44   22   23 am   BACKBONE|DICT|INTERRES
    45   22  101 1    
    46   23   24 2    
    47   23   25 1    
    48   25   26 1    
    49   25   27 1    
    50   25  102 1    
    51   26  103 1    
    52   26  104 1    
    53   26  105 1    
    54   27   28 am   BACKBONE|DICT|INTERRES
    55   27  106 1    
    56   28   29 2    
    57   28   30 1    
    58   30   31 1    
    59   30   32 1    
    60   30  107 1    
    61   31  108 1    
    62   31  109 1    
    63   31  110 1    
    64   32   33 am   BACKBONE|DICT|INTERRES
    65   32  111 1    
    66   33   34 2    
    67   33   35 1    
    68   35   36 1    
    69   35   37 1    
    70   35  112 1    
    71   36  113 1    
    72   36  114 1    
    73   36  115 1    
    74   37   38 am   BACKBONE|DICT|INTERRES
    75   37  116 1    
    76   38   39 2    
    77   38   40 1    
    78   40   41 1    
    79   40   42 1    
    80   40  117 1    
    81   41  118 1    
    82   41  119 1    
    83   41  120 1    
    84   42   43 am   BACKBONE|DICT|INTERRES
    85   42  121 1    
    86   43   44 2    
    87   43   45 1    
    88   45   46 1    
    89   45   47 1    
    90   45  122 1    
    91   46  123 1    
    92   46  124 1    
    93   46  125 1    
    94   47   48 am   BACKBONE|DICT|INTERRES
    95   47  126 1    
    96   48   49 2    
    97   48   50 1    
    98   50   51 1    
    99   50   52 1    
   100   50  127 1    
   101   51  128 1    
   102   51  129 1    
   103   51  130 1    
   104   52   53 am   BACKBONE|DICT|INTERRES
   105   52  131 1    
   106   53   54 2    
   107   53   55 1    
   108   55   56 1    
   109   55   59 1    
   110   55  132 1    
   111   56   57 1    
   112   56  133 1    
   113   56  134 1    
   114   57   58 1    
   115   58  135 1    
   116   58  136 1    
   117   59   60 am   BACKBONE|DICT|INTERRES
   118   59  137 1    
   119   60   61 2    
   120   60   62 1    
   121   62   63 1    
   122   62   64 1    
   123   62  138 1    
   124   63  139 1    
   125   63  140 1    
   126   63  141 1    
   127   64   65 am   BACKBONE|DICT|INTERRES
   128   64  142 1    
   129   65   66 2    
   130   65   67 1    
   131   67   68 1    
   132   67   69 1    
   133   67  143 1    
   134   68  144 1    
   135   68  145 1    
   136   68  146 1    
   137   69   70 am   BACKBONE|DICT|INTERRES
   138   69  147 1    
   139   70   71 2    
   140   70   72 1    
   141   72   73 1    
   142   72   74 1    
   143   72  148 1    
   144   73  149 1    
   145   73  150 1    
   146   73  151 1    
   147   74   75 am   BACKBONE|DICT|INTERRES
   148   74  152 1    
   149   75   76 2    
   150   75   77 1    
   151   77   78 1    
   152   77   79 1    
   153   77  153 1    
   154   78  154 1    
   155   78  155 1    
   156   78  156 1    
   157   79   80 am   BACKBONE|DICT|INTERRES
   158   79  157 1    
   159   80   81 2    
@<TRIPOS>SUBSTRUCTURE
     1 UNK         1 GROUP             0       ****    0 ROOT    
