@<TRIPOS>MOLECULE
3R207
157   159    1
SMALL
USER_CHARGES


@<TRIPOS>ATOM
      1 CA        -50.0192  -32.3802    6.1469 C.3       0 UNK        -0.1975 
      2 C         -49.3596  -31.0212    5.9671 C.2       0 UNK         0.4852 
      3 O         -48.3248  -30.9233    5.3045 O.2       0 UNK        -0.5216 
      4 N         -49.9442  -29.9696    6.5550 N.am      1 UNK        -0.4461 
      5 CA        -49.4526  -28.5885    6.5009 C.3       1 UNK         0.0864 
      6 C6        -50.5957  -27.5641    6.7142 C.3       14 UNK        -0.0898 
      7 S7        -51.7529  -27.5488    5.3043 S.3       14 UNK        -0.2598 
      8 C8        -53.3171  -28.0677    6.0797 C.3       14 UNK         0.0286 
      9 C9        -53.8456  -27.0390    7.0717 C.ar      14 UNK        -0.0844 
     10 C10       -54.1328  -25.7364    6.6543 C.ar      14 UNK        -0.0881 
     11 C11       -54.6160  -24.7897    7.5607 C.ar      14 UNK        -0.0643 
     12 C12       -54.8421  -25.1649    8.8889 C.ar      14 UNK        -0.0930 
     13 C13       -54.5673  -26.4668    9.3243 C.ar      14 UNK        -0.0827 
     14 C14       -54.0601  -27.3951    8.4060 C.ar      14 UNK        -0.1249 
     15 C15       -54.8002  -26.8088   10.7969 C.3       14 UNK         0.0141 
     16 S16       -55.1342  -28.5683   11.1647 S.3       14 UNK        -0.2313 
     17 C17       -53.4566  -29.2425   11.4297 C.3       14 UNK        -0.0915 
     18 CA        -53.4198  -30.3066   12.5587 C.3       13 UNK         0.0968 
     19 C         -52.0313  -30.9935   12.6328 C.2       13 UNK         0.5732 
     20 N         -51.7710  -31.9500   11.7515 N.am      13 UNK        -0.7310 
     21 O         -51.1780  -30.6575   13.4512 O.2       13 UNK        -0.5035 
     22 N         -53.8001  -29.7384   13.8597 N.am      13 UNK        -0.4233 
     23 C         -54.6493  -30.3121   14.7213 C.2       13 UNK         0.4989 
     24 O         -55.2319  -31.3764   14.5015 O.2       13 UNK        -0.4996 
     25 CA        -54.9125  -29.5595   16.0415 C.3       12 UNK         0.0216 
     26 CB        -55.6668  -30.4076   17.0888 C.3       12 UNK        -0.1964 
     27 N         -53.7038  -28.9635   16.6193 N.am      12 UNK        -0.4276 
     28 C         -52.5981  -29.5946   17.0481 C.2       12 UNK         0.5020 
     29 O         -52.4767  -30.8202   17.0749 O.2       12 UNK        -0.5489 
     30 CA        -51.4213  -28.7190   17.5263 C.3       11 UNK         0.0294 
     31 CB        -50.1148  -29.1203   16.8178 C.3       11 UNK        -0.2019 
     32 N         -51.6649  -27.2958   17.2803 N.am      11 UNK        -0.4493 
     33 C         -52.0676  -26.4030   18.1955 C.2       11 UNK         0.4932 
     34 O         -52.1984  -26.6616   19.3918 O.2       11 UNK        -0.5029 
     35 CA        -52.4088  -24.9846   17.6943 C.3       10 UNK         0.0280 
     36 CB        -51.2245  -24.0346   17.9319 C.3       10 UNK        -0.1976 
     37 N         -52.7916  -24.9369   16.2786 N.am      10 UNK        -0.4242 
     38 C         -53.8932  -25.5121   15.7672 C.2       10 UNK         0.5072 
     39 O         -54.7375  -26.0892   16.4517 O.2       10 UNK        -0.5224 
     40 CA        -54.0434  -25.5296   14.2336 C.3       9 UNK         0.0343 
     41 CB        -54.8762  -24.3274   13.7643 C.3       9 UNK        -0.2003 
     42 N         -52.7597  -25.5423   13.5258 N.am      9 UNK        -0.4272 
     43 C         -51.8043  -26.4729   13.6867 C.2       9 UNK         0.4988 
     44 O         -51.9816  -27.4963   14.3459 O.2       9 UNK        -0.5108 
     45 CA        -50.4107  -26.2114   13.0790 C.3       8 UNK         0.0248 
     46 CB        -50.1437  -27.1800   11.9162 C.3       8 UNK        -0.2001 
     47 N         -50.2013  -24.8306   12.6288 N.am      8 UNK        -0.4140 
     48 C         -50.2748  -23.7400   13.4131 C.2       8 UNK         0.5028 
     49 O         -50.4050  -23.7957   14.6369 O.2       8 UNK        -0.5428 
     50 CA        -50.3152  -22.3603   12.7256 C.3       7 UNK         0.0264 
     51 CB        -49.0043  -21.5919   12.9502 C.3       7 UNK        -0.1988 
     52 N         -50.6316  -22.4294   11.2924 N.am      7 UNK        -0.4454 
     53 C         -51.8143  -22.8495   10.8081 C.2       7 UNK         0.5027 
     54 O         -52.7679  -23.1329   11.5348 O.2       7 UNK        -0.5083 
     55 CA        -51.9608  -23.0629    9.2845 C.3       6 UNK         0.0844 
     56 C56       -52.9377  -22.0321    8.6705 C.3       14 UNK        -0.0967 
     57 S57       -53.3461  -22.4004    6.9298 S.3       14 UNK        -0.2604 
     58 C58       -54.8859  -23.3646    7.0972 C.3       14 UNK         0.0134 
     59 N         -50.6862  -23.1495    8.5603 N.am      6 UNK        -0.4116 
     60 C         -49.7850  -24.1237    8.7443 C.2       5 UNK         0.5034 
     61 O         -49.9283  -25.0124    9.5848 O.2       5 UNK        -0.5045 
     62 CA        -48.4946  -24.0944    7.8980 C.3       5 UNK         0.0224 
     63 CB        -48.3097  -22.8134    7.0528 C.3       5 UNK        -0.1978 
     64 N         -47.3159  -24.3438    8.7350 N.am      5 UNK        -0.4737 
     65 C         -46.9402  -23.6352    9.8113 C.2       4 UNK         0.5027 
     66 O         -47.4785  -22.5824   10.1544 O.2       4 UNK        -0.5211 
     67 CA        -45.7997  -24.2030   10.6763 C.3       4 UNK         0.0297 
     68 CB        -46.3801  -24.9070   11.9150 C.3       4 UNK        -0.1993 
     69 N         -44.9390  -25.1457    9.9599 N.am      4 UNK        -0.4486 
     70 C         -44.0425  -24.8078    9.0232 C.2       3 UNK         0.4961 
     71 O         -43.7846  -23.6457    8.7083 O.2       3 UNK        -0.5105 
     72 CA        -43.3131  -25.9619    8.3081 C.3       3 UNK         0.0299 
     73 CB        -41.9249  -26.1849    8.9301 C.3       3 UNK        -0.1972 
     74 N         -44.0515  -27.2323    8.3057 N.am      3 UNK        -0.4305 
     75 C         -45.2302  -27.4342    7.6990 C.2       2 UNK         0.5006 
     76 O         -45.8250  -26.5531    7.0732 O.2       2 UNK        -0.5106 
     77 CA        -45.8187  -28.8569    7.8067 C.3       2 UNK         0.0296 
     78 CB        -45.8844  -29.3573    9.2678 C.3       2 UNK        -0.2002 
     79 N         -47.1266  -28.9820    7.1487 N.am      2 UNK        -0.4032 
     80 C         -48.2817  -28.3882    7.4866 C.2       1 UNK         0.5000 
     81 O         -48.4433  -27.7247    8.5116 O.2       1 UNK        -0.5238 
     82 H82       -50.9253  -32.3177    6.7493 H         1 UNK         0.0889 
     83 H83       -49.3318  -33.0685    6.6379 H         1 UNK         0.0889 
     84 H84       -50.2855  -32.7983    5.1765 H         1 UNK         0.0889 
     85 H85       -50.7766  -30.1116    7.1078 H         1 UNK         0.3028 
     86 H86       -49.0436  -28.4060    5.5041 H         1 UNK         0.0864 
     87 H87       -50.1979  -26.5530    6.8006 H         1 UNK         0.0720 
     88 H88       -51.1253  -27.7581    7.6488 H         1 UNK         0.0720 
     89 H89       -53.1743  -29.0387    6.5561 H         1 UNK         0.0814 
     90 H90       -54.0635  -28.2174    5.2985 H         1 UNK         0.0814 
     91 H91       -53.9602  -25.4529    5.6249 H         1 UNK         0.1469 
     92 H92       -55.2144  -24.4325    9.5925 H         1 UNK         0.1381 
     93 H93       -53.8319  -28.4019    8.7202 H         1 UNK         0.1206 
     94 H94       -53.9384  -26.4681   11.3652 H         1 UNK         0.0813 
     95 H95       -55.6544  -26.2388   11.1648 H         1 UNK         0.0813 
     96 H96       -53.1217  -29.6783   10.4874 H         1 UNK         0.0638 
     97 H97       -52.7652  -28.4314   11.6532 H         1 UNK         0.0638 
     98 H98       -54.1358  -31.0843   12.2859 H         1 UNK         0.0568 
     99 H99       -50.8710  -32.4023   11.7769 H         1 UNK         0.3450 
    100 H100      -52.4573  -32.2369   11.0715 H         1 UNK         0.3450 
    101 H101      -53.2681  -28.9217   14.1463 H         1 UNK         0.2987 
    102 H102      -55.5603  -28.7222   15.7777 H         1 UNK         0.0766 
    103 H103      -56.6339  -30.7340   16.7044 H         1 UNK         0.0798 
    104 H104      -55.1089  -31.3029   17.3647 H         1 UNK         0.0798 
    105 H105      -55.8574  -29.8372   17.9978 H         1 UNK         0.0798 
    106 H106      -53.7134  -27.9512   16.6642 H         1 UNK         0.3198 
    107 H107      -51.2985  -28.9007   18.5960 H         1 UNK         0.0843 
    108 H108      -49.8553  -30.1577   17.0326 H         1 UNK         0.0831 
    109 H109      -49.2780  -28.5037   17.1460 H         1 UNK         0.0831 
    110 H110      -50.1984  -29.0265   15.7340 H         1 UNK         0.0831 
    111 H111      -51.6188  -27.0158   16.3065 H         1 UNK         0.3133 
    112 H112      -53.2571  -24.6248   18.2802 H         1 UNK         0.0566 
    113 H113      -51.4679  -23.0136   17.6372 H         1 UNK         0.0814 
    114 H114      -50.9483  -24.0103   18.9870 H         1 UNK         0.0814 
    115 H115      -50.3415  -24.3432   17.3706 H         1 UNK         0.0814 
    116 H116      -52.1257  -24.5019   15.6469 H         1 UNK         0.3091 
    117 H117      -54.5760  -26.4445   13.9653 H         1 UNK         0.0702 
    118 H118      -55.0526  -24.3578   12.6894 H         1 UNK         0.0785 
    119 H119      -54.3816  -23.3820   13.9917 H         1 UNK         0.0785 
    120 H120      -55.8518  -24.3128   14.2522 H         1 UNK         0.0785 
    121 H121      -52.5625  -24.7348   12.9450 H         1 UNK         0.2998 
    122 H122      -49.6789  -26.4121   13.8638 H         1 UNK         0.0697 
    123 H123      -50.8515  -27.0351   11.0991 H         1 UNK         0.0825 
    124 H124      -50.2281  -28.2174   12.2428 H         1 UNK         0.0825 
    125 H125      -49.1409  -27.0518   11.5084 H         1 UNK         0.0825 
    126 H126      -50.0976  -24.7056   11.6262 H         1 UNK         0.3029 
    127 H127      -51.1155  -21.7933   13.2064 H         1 UNK         0.0897 
    128 H128      -49.0215  -20.6180   12.4608 H         1 UNK         0.0792 
    129 H129      -48.8381  -21.4168   14.0141 H         1 UNK         0.0792 
    130 H130      -48.1407  -22.1408   12.5794 H         1 UNK         0.0792 
    131 H131      -49.8700  -22.2518   10.6494 H         1 UNK         0.3086 
    132 H132      -52.4187  -24.0470    9.1845 H         1 UNK         0.0583 
    133 H133      -53.8655  -21.9870    9.2448 H         1 UNK         0.1020 
    134 H134      -52.5098  -21.0290    8.7181 H         1 UNK         0.1020 
    135 H135      -55.5722  -22.8556    7.7757 H         1 UNK         0.0694 
    136 H136      -55.3862  -23.3926    6.1280 H         1 UNK         0.0694 
    137 H137      -50.5141  -22.4425    7.8610 H         1 UNK         0.2989 
    138 H138      -48.5580  -24.9398    7.2125 H         1 UNK         0.1055 
    139 H139      -47.3761  -22.8512    6.4912 H         1 UNK         0.0806 
    140 H140      -48.2853  -21.9124    7.6669 H         1 UNK         0.0806 
    141 H141      -49.1118  -22.7002    6.3224 H         1 UNK         0.0806 
    142 H142      -46.8188  -25.2021    8.5277 H         1 UNK         0.3061 
    143 H143      -45.1889  -23.3618   11.0113 H         1 UNK         0.0734 
    144 H144      -46.9990  -24.2267   12.5002 H         1 UNK         0.0832 
    145 H145      -47.0070  -25.7559   11.6391 H         1 UNK         0.0832 
    146 H146      -45.5912  -25.2697   12.5741 H         1 UNK         0.0832 
    147 H147      -45.0741  -26.1265   10.1557 H         1 UNK         0.3156 
    148 H148      -43.1746  -25.6600    7.2677 H         1 UNK         0.0589 
    149 H149      -41.9945  -26.5138    9.9678 H         1 UNK         0.0808 
    150 H150      -41.3558  -26.9321    8.3766 H         1 UNK         0.0808 
    151 H151      -41.3402  -25.2638    8.9197 H         1 UNK         0.0808 
    152 H152      -43.6149  -28.0070    8.7849 H         1 UNK         0.3098 
    153 H153      -45.1455  -29.5145    7.2550 H         1 UNK         0.0720 
    154 H154      -46.3797  -30.3264    9.3301 H         1 UNK         0.0791 
    155 H155      -46.4277  -28.6661    9.9132 H         1 UNK         0.0791 
    156 H156      -44.8888  -29.4842    9.6934 H         1 UNK         0.0791 
    157 H157      -47.1413  -29.5461    6.3050 H         1 UNK         0.3028 
@<TRIPOS>BOND
     1    1    2 1    
     2    1   82 1    
     3    1   83 1    
     4    1   84 1    
     5    2    3 2    
     6    2    4 am   BACKBONE|DICT|INTERRES
     7    4    5 1    
     8    4   85 1    
     9    5    6 1    
    10    5   80 1    
    11    5   86 1    
    12    6    7 1    
    13    6   87 1    
    14    6   88 1    
    15    7    8 1    
    16    8    9 1    
    17    8   89 1    
    18    8   90 1    
    19    9   10 ar   
    20    9   14 ar   
    21   10   11 ar   
    22   10   91 1    
    23   11   12 ar   
    24   11   58 1    
    25   12   13 ar   
    26   12   92 1    
    27   13   14 ar   
    28   13   15 1    
    29   14   93 1    
    30   15   16 1    
    31   15   94 1    
    32   15   95 1    
    33   16   17 1    
    34   17   18 1    
    35   17   96 1    
    36   17   97 1    
    37   18   19 1    
    38   18   22 1    
    39   18   98 1    
    40   19   20 am   BACKBONE|DICT|INTERRES
    41   19   21 2    
    42   20   99 1    
    43   20  100 1    
    44   22   23 am   BACKBONE|DICT|INTERRES
    45   22  101 1    
    46   23   24 2    
    47   23   25 1    
    48   25   26 1    
    49   25   27 1    
    50   25  102 1    
    51   26  103 1    
    52   26  104 1    
    53   26  105 1    
    54   27   28 am   BACKBONE|DICT|INTERRES
    55   27  106 1    
    56   28   29 2    
    57   28   30 1    
    58   30   31 1    
    59   30   32 1    
    60   30  107 1    
    61   31  108 1    
    62   31  109 1    
    63   31  110 1    
    64   32   33 am   BACKBONE|DICT|INTERRES
    65   32  111 1    
    66   33   34 2    
    67   33   35 1    
    68   35   36 1    
    69   35   37 1    
    70   35  112 1    
    71   36  113 1    
    72   36  114 1    
    73   36  115 1    
    74   37   38 am   BACKBONE|DICT|INTERRES
    75   37  116 1    
    76   38   39 2    
    77   38   40 1    
    78   40   41 1    
    79   40   42 1    
    80   40  117 1    
    81   41  118 1    
    82   41  119 1    
    83   41  120 1    
    84   42   43 am   BACKBONE|DICT|INTERRES
    85   42  121 1    
    86   43   44 2    
    87   43   45 1    
    88   45   46 1    
    89   45   47 1    
    90   45  122 1    
    91   46  123 1    
    92   46  124 1    
    93   46  125 1    
    94   47   48 am   BACKBONE|DICT|INTERRES
    95   47  126 1    
    96   48   49 2    
    97   48   50 1    
    98   50   51 1    
    99   50   52 1    
   100   50  127 1    
   101   51  128 1    
   102   51  129 1    
   103   51  130 1    
   104   52   53 am   BACKBONE|DICT|INTERRES
   105   52  131 1    
   106   53   54 2    
   107   53   55 1    
   108   55   56 1    
   109   55   59 1    
   110   55  132 1    
   111   56   57 1    
   112   56  133 1    
   113   56  134 1    
   114   57   58 1    
   115   58  135 1    
   116   58  136 1    
   117   59   60 am   BACKBONE|DICT|INTERRES
   118   59  137 1    
   119   60   61 2    
   120   60   62 1    
   121   62   63 1    
   122   62   64 1    
   123   62  138 1    
   124   63  139 1    
   125   63  140 1    
   126   63  141 1    
   127   64   65 am   BACKBONE|DICT|INTERRES
   128   64  142 1    
   129   65   66 2    
   130   65   67 1    
   131   67   68 1    
   132   67   69 1    
   133   67  143 1    
   134   68  144 1    
   135   68  145 1    
   136   68  146 1    
   137   69   70 am   BACKBONE|DICT|INTERRES
   138   69  147 1    
   139   70   71 2    
   140   70   72 1    
   141   72   73 1    
   142   72   74 1    
   143   72  148 1    
   144   73  149 1    
   145   73  150 1    
   146   73  151 1    
   147   74   75 am   BACKBONE|DICT|INTERRES
   148   74  152 1    
   149   75   76 2    
   150   75   77 1    
   151   77   78 1    
   152   77   79 1    
   153   77  153 1    
   154   78  154 1    
   155   78  155 1    
   156   78  156 1    
   157   79   80 am   BACKBONE|DICT|INTERRES
   158   79  157 1    
   159   80   81 2    
@<TRIPOS>SUBSTRUCTURE
     1 UNK         1 GROUP             0       ****    0 ROOT    
