@<TRIPOS>MOLECULE
3R207
157   159    1
SMALL
USER_CHARGES


@<TRIPOS>ATOM
      1 CA        -45.7461  -30.9367    3.5869 C.3       0 UNK        -0.1975 
      2 C         -46.5375  -29.9986    4.4858 C.2       0 UNK         0.4852 
      3 O         -45.9765  -29.4512    5.4364 O.2       0 UNK        -0.5216 
      4 N         -47.8291  -29.8027    4.1812 N.am      1 UNK        -0.4461 
      5 CA        -48.8204  -28.9735    4.8883 C.3       1 UNK         0.0864 
      6 C6        -49.0568  -29.3843    6.3659 C.3       14 UNK        -0.0898 
      7 S7        -49.7774  -31.0526    6.5275 S.3       14 UNK        -0.2598 
      8 C8        -51.5667  -30.7140    6.4106 C.3       14 UNK         0.0286 
      9 C9        -52.0723  -29.8513    7.5590 C.ar      14 UNK        -0.0844 
     10 C10       -52.3334  -28.4936    7.3573 C.ar      14 UNK        -0.0881 
     11 C11       -52.7651  -27.6892    8.4142 C.ar      14 UNK        -0.0643 
     12 C12       -52.9527  -28.2549    9.6775 C.ar      14 UNK        -0.0930 
     13 C13       -52.7258  -29.6227    9.8905 C.ar      14 UNK        -0.0827 
     14 C14       -52.2795  -30.4091    8.8233 C.ar      14 UNK        -0.1249 
     15 C15       -52.9219  -30.2938   11.2517 C.3       14 UNK         0.0141 
     16 S16       -53.9415  -29.3668   12.4461 S.3       14 UNK        -0.2313 
     17 C17       -55.5855  -29.3935   11.6538 C.3       14 UNK        -0.0915 
     18 CA        -56.7613  -29.8260   12.5804 C.3       13 UNK         0.0968 
     19 C         -56.8743  -31.3625   12.8275 C.2       13 UNK         0.5732 
     20 N         -57.5990  -31.8050   13.8477 N.am      13 UNK        -0.7310 
     21 O         -56.3449  -32.1681   12.0649 O.2       13 UNK        -0.5035 
     22 N         -56.9125  -28.9316   13.7452 N.am      13 UNK        -0.4233 
     23 C         -56.3087  -29.0092   14.9403 C.2       13 UNK         0.4989 
     24 O         -55.6280  -29.9596   15.3288 O.2       13 UNK        -0.4996 
     25 CA        -56.4523  -27.7610   15.8267 C.3       12 UNK         0.0216 
     26 CB        -56.0711  -28.0228   17.2957 C.3       12 UNK        -0.1964 
     27 N         -55.6143  -26.6839   15.2935 N.am      12 UNK        -0.4276 
     28 C         -55.9649  -25.8751   14.2813 C.2       12 UNK         0.5020 
     29 O         -57.0606  -25.9524   13.7201 O.2       12 UNK        -0.5489 
     30 CA        -54.9392  -24.8339   13.7775 C.3       11 UNK         0.0294 
     31 CB        -55.6073  -23.5022   13.3770 C.3       11 UNK        -0.2019 
     32 N         -53.8070  -24.5934   14.6791 N.am      11 UNK        -0.4493 
     33 C         -53.8362  -24.1418   15.9425 C.2       11 UNK         0.4932 
     34 O         -54.8619  -23.7719   16.5160 O.2       11 UNK        -0.5029 
     35 CA        -52.4909  -24.1426   16.6996 C.3       10 UNK         0.0280 
     36 CB        -52.6721  -24.1778   18.2315 C.3       10 UNK        -0.1976 
     37 N         -51.5750  -25.2099   16.2699 N.am      10 UNK        -0.4242 
     38 C         -51.8141  -26.5325   16.2532 C.2       10 UNK         0.5072 
     39 O         -52.8775  -27.0281   16.6280 O.2       10 UNK        -0.5224 
     40 CA        -50.7253  -27.4681   15.6876 C.3       9 UNK         0.0343 
     41 CB        -51.2717  -28.2743   14.4995 C.3       9 UNK        -0.2003 
     42 N         -49.5142  -26.7701   15.2545 N.am      9 UNK        -0.4272 
     43 C         -48.5300  -26.3652   16.0674 C.2       9 UNK         0.4988 
     44 O         -48.4936  -26.6046   17.2747 O.2       9 UNK        -0.5108 
     45 CA        -47.4205  -25.5084   15.4325 C.3       8 UNK         0.0248 
     46 CB        -46.3223  -26.4043   14.8386 C.3       8 UNK        -0.2001 
     47 N         -47.9181  -24.5794   14.4091 N.am      8 UNK        -0.4140 
     48 C         -48.8110  -23.6041   14.6411 C.2       8 UNK         0.5028 
     49 O         -49.2870  -23.3666   15.7509 O.2       8 UNK        -0.5428 
     50 CA        -49.2986  -22.7844   13.4372 C.3       7 UNK         0.0264 
     51 CB        -48.2541  -21.7325   13.0320 C.3       7 UNK        -0.1988 
     52 N         -49.6407  -23.6136   12.2816 N.am      7 UNK        -0.4454 
     53 C         -50.6255  -24.5254   12.2436 C.2       7 UNK         0.5027 
     54 O         -51.3915  -24.7553   13.1802 O.2       7 UNK        -0.5083 
     55 CA        -50.7469  -25.3436   10.9421 C.3       6 UNK         0.0844 
     56 C56       -51.4759  -24.5108    9.8556 C.3       14 UNK        -0.0967 
     57 S57       -51.4773  -25.2618    8.1918 S.3       14 UNK        -0.2604 
     58 C58       -53.0285  -26.2110    8.1786 C.3       14 UNK         0.0134 
     59 N         -49.4389  -25.8479   10.5145 N.am      6 UNK        -0.4116 
     60 C         -48.6614  -26.6713   11.2339 C.2       5 UNK         0.5034 
     61 O         -48.9760  -27.1449   12.3258 O.2       5 UNK        -0.5045 
     62 CA        -47.2671  -26.9641   10.6644 C.3       5 UNK         0.0224 
     63 CB        -47.3318  -28.0821    9.6117 C.3       5 UNK        -0.1978 
     64 N         -46.6605  -25.7597   10.0901 N.am      5 UNK        -0.4737 
     65 C         -46.2139  -24.7287   10.8240 C.2       4 UNK         0.5027 
     66 O         -46.2300  -24.7133   12.0537 O.2       4 UNK        -0.5211 
     67 CA        -45.7009  -23.4889   10.0705 C.3       4 UNK         0.0297 
     68 CB        -44.2127  -23.6492    9.7238 C.3       4 UNK        -0.1993 
     69 N         -46.4584  -23.1997    8.8520 N.am      4 UNK        -0.4486 
     70 C         -47.7640  -22.8981    8.8149 C.2       3 UNK         0.4961 
     71 O         -48.4609  -22.7547    9.8190 O.2       3 UNK        -0.5105 
     72 CA        -48.4151  -22.7841    7.4240 C.3       3 UNK         0.0299 
     73 CB        -48.4354  -21.3185    6.9633 C.3       3 UNK        -0.1972 
     74 N         -47.7900  -23.6159    6.3856 N.am      3 UNK        -0.4305 
     75 C         -47.6359  -24.9465    6.4492 C.2       2 UNK         0.5006 
     76 O         -47.9438  -25.6260    7.4309 O.2       2 UNK        -0.5106 
     77 CA        -46.9536  -25.6140    5.2436 C.3       2 UNK         0.0296 
     78 CB        -45.4246  -25.5361    5.3875 C.3       2 UNK        -0.2002 
     79 N         -47.3425  -27.0186    5.1220 N.am      2 UNK        -0.4032 
     80 C         -48.5586  -27.4568    4.7768 C.2       1 UNK         0.5000 
     81 O         -49.4612  -26.7182    4.3773 O.2       1 UNK        -0.5238 
     82 H82       -45.3463  -31.7650    4.1711 H         1 UNK         0.0889 
     83 H83       -44.9104  -30.4047    3.1332 H         1 UNK         0.0889 
     84 H84       -46.3594  -31.3512    2.7871 H         1 UNK         0.0889 
     85 H85       -48.1977  -30.2754    3.3674 H         1 UNK         0.3028 
     86 H86       -49.7579  -29.1413    4.3557 H         1 UNK         0.0864 
     87 H87       -49.6963  -28.6645    6.8767 H         1 UNK         0.0720 
     88 H88       -48.1198  -29.3724    6.9230 H         1 UNK         0.0720 
     89 H89       -51.7839  -30.2446    5.4501 H         1 UNK         0.0814 
     90 H90       -52.1041  -31.6634    6.4100 H         1 UNK         0.0814 
     91 H91       -52.1780  -28.0526    6.3818 H         1 UNK         0.1469 
     92 H92       -53.2787  -27.6197   10.4878 H         1 UNK         0.1381 
     93 H93       -52.0812  -31.4613    8.9775 H         1 UNK         0.1206 
     94 H94       -53.3670  -31.2811   11.1167 H         1 UNK         0.0813 
     95 H95       -51.9397  -30.4549   11.6977 H         1 UNK         0.0813 
     96 H96       -55.5532  -30.0162   10.7582 H         1 UNK         0.0638 
     97 H97       -55.7749  -28.3830   11.2888 H         1 UNK         0.0638 
     98 H98       -57.6604  -29.6273   11.9964 H         1 UNK         0.0568 
     99 H99       -58.0288  -31.1562   14.4870 H         1 UNK         0.3450 
    100 H100      -57.6829  -32.7974   13.9998 H         1 UNK         0.3450 
    101 H101      -57.4048  -28.0669   13.5531 H         1 UNK         0.2987 
    102 H102      -57.4992  -27.4499   15.8097 H         1 UNK         0.0766 
    103 H103      -56.7075  -28.7944   17.7305 H         1 UNK         0.0798 
    104 H104      -56.1883  -27.1240   17.9014 H         1 UNK         0.0798 
    105 H105      -55.0387  -28.3594   17.3958 H         1 UNK         0.0798 
    106 H106      -54.6792  -26.6104   15.6838 H         1 UNK         0.3198 
    107 H107      -54.5055  -25.2666   12.8746 H         1 UNK         0.0843 
    108 H108      -56.1173  -23.0363   14.2206 H         1 UNK         0.0831 
    109 H109      -56.3507  -23.6552   12.5937 H         1 UNK         0.0831 
    110 H110      -54.8760  -22.7917   12.9917 H         1 UNK         0.0831 
    111 H111      -52.8927  -24.8151   14.2859 H         1 UNK         0.3133 
    112 H112      -52.0010  -23.2022   16.4444 H         1 UNK         0.0566 
    113 H113      -53.2083  -25.0712   18.5537 H         1 UNK         0.0814 
    114 H114      -53.2392  -23.3139   18.5803 H         1 UNK         0.0814 
    115 H115      -51.7104  -24.1600   18.7442 H         1 UNK         0.0814 
    116 H116      -50.6780  -24.8815   15.9282 H         1 UNK         0.3091 
    117 H117      -50.4619  -28.1712   16.4802 H         1 UNK         0.0702 
    118 H118      -50.5240  -28.9631   14.1062 H         1 UNK         0.0785 
    119 H119      -51.5871  -27.6231   13.6829 H         1 UNK         0.0785 
    120 H120      -52.1351  -28.8707   14.7971 H         1 UNK         0.0785 
    121 H121      -49.4333  -26.5831   14.2597 H         1 UNK         0.2998 
    122 H122      -46.9748  -24.9080   16.2282 H         1 UNK         0.0697 
    123 H123      -45.4818  -25.8131   14.4749 H         1 UNK         0.0825 
    124 H124      -46.6963  -27.0020   14.0069 H         1 UNK         0.0825 
    125 H125      -45.9319  -27.0943   15.5879 H         1 UNK         0.0825 
    126 H126      -47.5241  -24.6779   13.4762 H         1 UNK         0.3029 
    127 H127      -50.2068  -22.2603   13.7428 H         1 UNK         0.0897 
    128 H128      -47.3259  -22.1936   12.6938 H         1 UNK         0.0792 
    129 H129      -48.0089  -21.0816   13.8723 H         1 UNK         0.0792 
    130 H130      -48.6233  -21.0975   12.2264 H         1 UNK         0.0792 
    131 H131      -49.0981  -23.4529   11.4347 H         1 UNK         0.3086 
    132 H132      -51.3617  -26.2178   11.1639 H         1 UNK         0.0583 
    133 H133      -52.5029  -24.3064   10.1636 H         1 UNK         0.1020 
    134 H134      -51.0083  -23.5304    9.7480 H         1 UNK         0.1020 
    135 H135      -53.7318  -25.8189    8.9143 H         1 UNK         0.0694 
    136 H136      -53.5071  -26.0804    7.2069 H         1 UNK         0.0694 
    137 H137      -49.1045  -25.5272    9.6151 H         1 UNK         0.2989 
    138 H138      -46.6342  -27.3067   11.4861 H         1 UNK         0.1055 
    139 H139      -47.6948  -29.0105   10.0546 H         1 UNK         0.0806 
    140 H140      -46.3506  -28.2872    9.1836 H         1 UNK         0.0806 
    141 H141      -48.0089  -27.8305    8.7957 H         1 UNK         0.0806 
    142 H142      -46.7123  -25.6643    9.0815 H         1 UNK         0.3061 
    143 H143      -45.8062  -22.6305   10.7371 H         1 UNK         0.0734 
    144 H144      -44.0436  -24.4785    9.0355 H         1 UNK         0.0832 
    145 H145      -43.8106  -22.7445    9.2674 H         1 UNK         0.0832 
    146 H146      -43.6239  -23.8460   10.6210 H         1 UNK         0.0832 
    147 H147      -45.9685  -23.2933    7.9748 H         1 UNK         0.3156 
    148 H148      -49.4483  -23.1200    7.5259 H         1 UNK         0.0589 
    149 H149      -48.9929  -21.2011    6.0338 H         1 UNK         0.0808 
    150 H150      -47.4286  -20.9299    6.8047 H         1 UNK         0.0808 
    151 H151      -48.9164  -20.6825    7.7081 H         1 UNK         0.0808 
    152 H152      -47.4890  -23.1362    5.5490 H         1 UNK         0.3098 
    153 H153      -47.2549  -25.0930    4.3325 H         1 UNK         0.0720 
    154 H154      -45.0845  -24.5013    5.4426 H         1 UNK         0.0791 
    155 H155      -44.9234  -25.9944    4.5346 H         1 UNK         0.0791 
    156 H156      -45.0788  -26.0434    6.2895 H         1 UNK         0.0791 
    157 H157      -46.6727  -27.7194    5.4305 H         1 UNK         0.3028 
@<TRIPOS>BOND
     1    1    2 1    
     2    1   82 1    
     3    1   83 1    
     4    1   84 1    
     5    2    3 2    
     6    2    4 am   BACKBONE|DICT|INTERRES
     7    4    5 1    
     8    4   85 1    
     9    5    6 1    
    10    5   80 1    
    11    5   86 1    
    12    6    7 1    
    13    6   87 1    
    14    6   88 1    
    15    7    8 1    
    16    8    9 1    
    17    8   89 1    
    18    8   90 1    
    19    9   10 ar   
    20    9   14 ar   
    21   10   11 ar   
    22   10   91 1    
    23   11   12 ar   
    24   11   58 1    
    25   12   13 ar   
    26   12   92 1    
    27   13   14 ar   
    28   13   15 1    
    29   14   93 1    
    30   15   16 1    
    31   15   94 1    
    32   15   95 1    
    33   16   17 1    
    34   17   18 1    
    35   17   96 1    
    36   17   97 1    
    37   18   19 1    
    38   18   22 1    
    39   18   98 1    
    40   19   20 am   BACKBONE|DICT|INTERRES
    41   19   21 2    
    42   20   99 1    
    43   20  100 1    
    44   22   23 am   BACKBONE|DICT|INTERRES
    45   22  101 1    
    46   23   24 2    
    47   23   25 1    
    48   25   26 1    
    49   25   27 1    
    50   25  102 1    
    51   26  103 1    
    52   26  104 1    
    53   26  105 1    
    54   27   28 am   BACKBONE|DICT|INTERRES
    55   27  106 1    
    56   28   29 2    
    57   28   30 1    
    58   30   31 1    
    59   30   32 1    
    60   30  107 1    
    61   31  108 1    
    62   31  109 1    
    63   31  110 1    
    64   32   33 am   BACKBONE|DICT|INTERRES
    65   32  111 1    
    66   33   34 2    
    67   33   35 1    
    68   35   36 1    
    69   35   37 1    
    70   35  112 1    
    71   36  113 1    
    72   36  114 1    
    73   36  115 1    
    74   37   38 am   BACKBONE|DICT|INTERRES
    75   37  116 1    
    76   38   39 2    
    77   38   40 1    
    78   40   41 1    
    79   40   42 1    
    80   40  117 1    
    81   41  118 1    
    82   41  119 1    
    83   41  120 1    
    84   42   43 am   BACKBONE|DICT|INTERRES
    85   42  121 1    
    86   43   44 2    
    87   43   45 1    
    88   45   46 1    
    89   45   47 1    
    90   45  122 1    
    91   46  123 1    
    92   46  124 1    
    93   46  125 1    
    94   47   48 am   BACKBONE|DICT|INTERRES
    95   47  126 1    
    96   48   49 2    
    97   48   50 1    
    98   50   51 1    
    99   50   52 1    
   100   50  127 1    
   101   51  128 1    
   102   51  129 1    
   103   51  130 1    
   104   52   53 am   BACKBONE|DICT|INTERRES
   105   52  131 1    
   106   53   54 2    
   107   53   55 1    
   108   55   56 1    
   109   55   59 1    
   110   55  132 1    
   111   56   57 1    
   112   56  133 1    
   113   56  134 1    
   114   57   58 1    
   115   58  135 1    
   116   58  136 1    
   117   59   60 am   BACKBONE|DICT|INTERRES
   118   59  137 1    
   119   60   61 2    
   120   60   62 1    
   121   62   63 1    
   122   62   64 1    
   123   62  138 1    
   124   63  139 1    
   125   63  140 1    
   126   63  141 1    
   127   64   65 am   BACKBONE|DICT|INTERRES
   128   64  142 1    
   129   65   66 2    
   130   65   67 1    
   131   67   68 1    
   132   67   69 1    
   133   67  143 1    
   134   68  144 1    
   135   68  145 1    
   136   68  146 1    
   137   69   70 am   BACKBONE|DICT|INTERRES
   138   69  147 1    
   139   70   71 2    
   140   70   72 1    
   141   72   73 1    
   142   72   74 1    
   143   72  148 1    
   144   73  149 1    
   145   73  150 1    
   146   73  151 1    
   147   74   75 am   BACKBONE|DICT|INTERRES
   148   74  152 1    
   149   75   76 2    
   150   75   77 1    
   151   77   78 1    
   152   77   79 1    
   153   77  153 1    
   154   78  154 1    
   155   78  155 1    
   156   78  156 1    
   157   79   80 am   BACKBONE|DICT|INTERRES
   158   79  157 1    
   159   80   81 2    
@<TRIPOS>SUBSTRUCTURE
     1 UNK         1 GROUP             0       ****    0 ROOT    
