@<TRIPOS>MOLECULE
3R207
157   159    1
SMALL
USER_CHARGES


@<TRIPOS>ATOM
      1 CA        -45.7622  -30.0413    5.6172 C.3       0 UNK        -0.1975 
      2 C         -46.1560  -29.3161    6.9010 C.2       0 UNK         0.4852 
      3 O         -45.3463  -29.2500    7.8242 O.2       0 UNK        -0.5216 
      4 N         -47.3652  -28.7538    7.0106 N.am      1 UNK        -0.4461 
      5 CA        -48.4196  -28.6675    5.9929 C.3       1 UNK         0.0864 
      6 C6        -49.6349  -29.5662    6.3409 C.3       14 UNK        -0.0898 
      7 S7        -49.2208  -31.3460    6.3159 S.3       14 UNK        -0.2598 
      8 C8        -50.7700  -32.1153    6.8980 C.3       14 UNK         0.0286 
      9 C9        -51.2381  -31.5182    8.2163 C.ar      14 UNK        -0.0844 
     10 C10       -50.4538  -31.6466    9.3651 C.ar      14 UNK        -0.0881 
     11 C11       -50.8150  -30.9972   10.5491 C.ar      14 UNK        -0.0643 
     12 C12       -52.0015  -30.2547   10.5903 C.ar      14 UNK        -0.0930 
     13 C13       -52.8061  -30.1383    9.4509 C.ar      14 UNK        -0.0827 
     14 C14       -52.4216  -30.7787    8.2702 C.ar      14 UNK        -0.1249 
     15 C15       -54.0708  -29.2919    9.4662 C.3       14 UNK         0.0141 
     16 S16       -53.7999  -27.7296    8.5742 S.3       14 UNK        -0.2313 
     17 C17       -55.4718  -27.0078    8.5194 C.3       14 UNK        -0.0915 
     18 CA        -55.6326  -25.8249    9.5110 C.3       13 UNK         0.0968 
     19 C         -56.8407  -24.9202    9.1282 C.2       13 UNK         0.5732 
     20 N         -57.8493  -24.7528    9.9759 N.am      13 UNK        -0.7310 
     21 O         -56.8569  -24.3463    8.0421 O.2       13 UNK        -0.5035 
     22 N         -55.6540  -26.2946   10.9066 N.am      13 UNK        -0.4233 
     23 C         -55.2348  -25.5775   11.9559 C.2       13 UNK         0.4989 
     24 O         -54.7375  -24.4532   11.8576 O.2       13 UNK        -0.4996 
     25 CA        -55.4188  -26.2257   13.3404 C.3       12 UNK         0.0216 
     26 CB        -54.9627  -27.6990   13.3598 C.3       12 UNK        -0.1964 
     27 N         -54.6417  -25.4934   14.3364 N.am      12 UNK        -0.4276 
     28 C         -55.1177  -24.7827   15.3636 C.2       12 UNK         0.5020 
     29 O         -56.3164  -24.6598   15.6258 O.2       12 UNK        -0.5489 
     30 CA        -54.0455  -24.1242   16.2560 C.3       11 UNK         0.0294 
     31 CB        -54.6225  -23.4227   17.5045 C.3       11 UNK        -0.2019 
     32 N         -52.9882  -25.0819   16.6084 N.am      11 UNK        -0.4493 
     33 C         -53.1139  -26.2034   17.3346 C.2       11 UNK         0.4932 
     34 O         -54.1280  -26.5117   17.9613 O.2       11 UNK        -0.5029 
     35 CA        -51.9249  -27.1818   17.3362 C.3       10 UNK         0.0280 
     36 CB        -52.2346  -28.3749   16.4161 C.3       10 UNK        -0.1976 
     37 N         -50.6517  -26.5820   16.9250 N.am      10 UNK        -0.4242 
     38 C         -49.9104  -25.7640   17.6860 C.2       10 UNK         0.5072 
     39 O         -50.2158  -25.4292   18.8313 O.2       10 UNK        -0.5224 
     40 CA        -48.6137  -25.2161   17.0609 C.3       9 UNK         0.0343 
     41 CB        -47.4919  -26.2659   17.1128 C.3       9 UNK        -0.2003 
     42 N         -48.7943  -24.7589   15.6812 N.am      9 UNK        -0.4272 
     43 C         -49.5589  -23.7178   15.3190 C.2       9 UNK         0.4988 
     44 O         -50.1520  -22.9887   16.1137 O.2       9 UNK        -0.5108 
     45 CA        -49.7269  -23.4749   13.8107 C.3       8 UNK         0.0248 
     46 CB        -48.5496  -22.6676   13.2411 C.3       8 UNK        -0.2001 
     47 N         -49.8873  -24.7272   13.0699 N.am      8 UNK        -0.4140 
     48 C         -50.9624  -25.5212   13.1725 C.2       8 UNK         0.5028 
     49 O         -51.9446  -25.2576   13.8623 O.2       8 UNK        -0.5428 
     50 CA        -50.9198  -26.8578   12.4232 C.3       7 UNK         0.0264 
     51 CB        -51.3648  -26.6689   10.9707 C.3       7 UNK        -0.1988 
     52 N         -49.5940  -27.4693   12.4577 N.am      7 UNK        -0.4454 
     53 C         -49.0348  -27.9772   13.5663 C.2       7 UNK         0.5027 
     54 O         -49.5846  -27.9771   14.6668 O.2       7 UNK        -0.5083 
     55 CA        -47.6059  -28.5437   13.4401 C.3       6 UNK         0.0844 
     56 C56       -47.6196  -30.0534   13.0873 C.3       14 UNK        -0.0967 
     57 S57       -48.2419  -30.4121   11.4058 S.3       14 UNK        -0.2604 
     58 C58       -49.9049  -31.0741   11.7678 C.3       14 UNK         0.0134 
     59 N         -46.7644  -27.7630   12.5285 N.am      6 UNK        -0.4116 
     60 C         -46.4984  -26.4548   12.6488 C.2       5 UNK         0.5034 
     61 O         -46.9145  -25.7547   13.5743 O.2       5 UNK        -0.5045 
     62 CA        -45.6633  -25.7948   11.5367 C.3       5 UNK         0.0224 
     63 CB        -44.9360  -26.7978   10.6110 C.3       5 UNK        -0.1978 
     64 N         -46.4635  -24.8523   10.7429 N.am      5 UNK        -0.4737 
     65 C         -47.5727  -25.1271   10.0404 C.2       4 UNK         0.5027 
     66 O         -48.1093  -26.2385   10.0138 O.2       4 UNK        -0.5211 
     67 CA        -48.1742  -23.9526    9.2494 C.3       4 UNK         0.0297 
     68 CB        -47.1747  -23.4040    8.2143 C.3       4 UNK        -0.1993 
     69 N         -49.3705  -24.3946    8.5386 N.am      4 UNK        -0.4486 
     70 C         -50.5891  -23.8460    8.6201 C.2       3 UNK         0.4961 
     71 O         -50.8429  -22.8508    9.3006 O.2       3 UNK        -0.5105 
     72 CA        -51.7195  -24.5431    7.8275 C.3       3 UNK         0.0299 
     73 CB        -52.9251  -23.6196    7.5506 C.3       3 UNK        -0.1972 
     74 N         -51.2593  -25.1992    6.5951 N.am      3 UNK        -0.4305 
     75 C         -50.6582  -24.6126    5.5474 C.2       2 UNK         0.5006 
     76 O         -50.5112  -23.3936    5.4399 O.2       2 UNK        -0.5106 
     77 CA        -50.1143  -25.5428    4.4373 C.3       2 UNK         0.0296 
     78 CB        -48.9684  -24.8811    3.6413 C.3       2 UNK        -0.2002 
     79 N         -49.6928  -26.8853    4.8767 N.am      2 UNK        -0.4032 
     80 C         -48.8319  -27.1871    5.8630 C.2       1 UNK         0.5000 
     81 O         -48.3733  -26.3514    6.6462 O.2       1 UNK        -0.5238 
     82 H82       -45.6563  -29.3347    4.7947 H         1 UNK         0.0889 
     83 H83       -46.5008  -30.7933    5.3440 H         1 UNK         0.0889 
     84 H84       -44.8071  -30.5506    5.7441 H         1 UNK         0.0889 
     85 H85       -47.5630  -28.2028    7.8360 H         1 UNK         0.3028 
     86 H86       -48.0377  -28.9579    5.0136 H         1 UNK         0.0864 
     87 H87       -50.4576  -29.4163    5.6399 H         1 UNK         0.0720 
     88 H88       -50.0180  -29.2983    7.3273 H         1 UNK         0.0720 
     89 H89       -50.6128  -33.1875    7.0218 H         1 UNK         0.0814 
     90 H90       -51.5329  -32.0023    6.1261 H         1 UNK         0.0814 
     91 H91       -49.5283  -32.2045    9.3212 H         1 UNK         0.1469 
     92 H92       -52.2850  -29.7447   11.5004 H         1 UNK         0.1381 
     93 H93       -53.0276  -30.6641    7.3816 H         1 UNK         0.1206 
     94 H94       -54.3820  -29.0775   10.4892 H         1 UNK         0.0813 
     95 H95       -54.8849  -29.8469    8.9978 H         1 UNK         0.0813 
     96 H96       -55.6235  -26.6752    7.4908 H         1 UNK         0.0638 
     97 H97       -56.2247  -27.7765    8.7004 H         1 UNK         0.0638 
     98 H98       -54.7578  -25.1836    9.3885 H         1 UNK         0.0568 
     99 H99       -57.8508  -25.2101   10.8726 H         1 UNK         0.3450 
    100 H100      -58.6190  -24.1584    9.7116 H         1 UNK         0.3450 
    101 H101      -56.0737  -27.1980   11.0632 H         1 UNK         0.2987 
    102 H102      -56.4814  -26.1824   13.5868 H         1 UNK         0.0766 
    103 H103      -54.9744  -28.1012   14.3733 H         1 UNK         0.0798 
    104 H104      -55.6209  -28.3315   12.7638 H         1 UNK         0.0798 
    105 H105      -53.9516  -27.8148   12.9698 H         1 UNK         0.0798 
    106 H106      -53.6361  -25.4410   14.1565 H         1 UNK         0.3198 
    107 H107      -53.5668  -23.3589   15.6426 H         1 UNK         0.0843 
    108 H108      -55.3067  -22.6237   17.2168 H         1 UNK         0.0831 
    109 H109      -53.8329  -22.9733   18.1066 H         1 UNK         0.0831 
    110 H110      -55.1808  -24.1103   18.1400 H         1 UNK         0.0831 
    111 H111      -52.1272  -24.9704   16.0869 H         1 UNK         0.3133 
    112 H112      -51.8117  -27.5590   18.3547 H         1 UNK         0.0566 
    113 H113      -51.4423  -29.1227   16.4546 H         1 UNK         0.0814 
    114 H114      -53.1608  -28.8698   16.7113 H         1 UNK         0.0814 
    115 H115      -52.3491  -28.0612   15.3776 H         1 UNK         0.0814 
    116 H116      -50.2875  -26.8737   16.0204 H         1 UNK         0.3091 
    117 H117      -48.2979  -24.3558   17.6549 H         1 UNK         0.0702 
    118 H118      -46.5561  -25.8657   16.7219 H         1 UNK         0.0785 
    119 H119      -47.7415  -27.1557   16.5347 H         1 UNK         0.0785 
    120 H120      -47.3053  -26.5858   18.1389 H         1 UNK         0.0785 
    121 H121      -48.2947  -25.2669   14.9579 H         1 UNK         0.2998 
    122 H122      -50.6360  -22.8854   13.6715 H         1 UNK         0.0697 
    123 H123      -47.6089  -23.2153   13.2992 H         1 UNK         0.0825 
    124 H124      -48.4163  -21.7356   13.7921 H         1 UNK         0.0825 
    125 H125      -48.7228  -22.4004   12.1993 H         1 UNK         0.0825 
    126 H126      -49.0975  -25.0511   12.5308 H         1 UNK         0.3029 
    127 H127      -51.6157  -27.5412   12.9124 H         1 UNK         0.0897 
    128 H128      -51.3330  -27.6026   10.4123 H         1 UNK         0.0792 
    129 H129      -50.7207  -25.9616   10.4556 H         1 UNK         0.0792 
    130 H130      -52.3842  -26.2848   10.9190 H         1 UNK         0.0792 
    131 H131      -49.0631  -27.4705   11.5928 H         1 UNK         0.3086 
    132 H132      -47.1506  -28.4493   14.4280 H         1 UNK         0.0583 
    133 H133      -46.6051  -30.4490   13.1568 H         1 UNK         0.1020 
    134 H134      -48.1949  -30.6149   13.8264 H         1 UNK         0.1020 
    135 H135      -49.8179  -32.1116   12.0932 H         1 UNK         0.0694 
    136 H136      -50.3440  -30.5214   12.5997 H         1 UNK         0.0694 
    137 H137      -46.4290  -28.2483   11.7090 H         1 UNK         0.2989 
    138 H138      -44.8997  -25.2065   12.0483 H         1 UNK         0.1055 
    139 H139      -44.3050  -27.4798   11.1826 H         1 UNK         0.0806 
    140 H140      -44.2837  -26.2764    9.9104 H         1 UNK         0.0806 
    141 H141      -45.6278  -27.3997   10.0201 H         1 UNK         0.0806 
    142 H142      -46.1208  -23.9015   10.7338 H         1 UNK         0.3061 
    143 H143      -48.4224  -23.1634    9.9604 H         1 UNK         0.0734 
    144 H144      -47.6241  -22.6118    7.6150 H         1 UNK         0.0832 
    145 H145      -46.2906  -22.9811    8.6920 H         1 UNK         0.0832 
    146 H146      -46.8372  -24.1846    7.5308 H         1 UNK         0.0832 
    147 H147      -49.2300  -25.2247    7.9667 H         1 UNK         0.3156 
    148 H148      -52.0753  -25.3442    8.4737 H         1 UNK         0.0589 
    149 H149      -52.6453  -22.7570    6.9456 H         1 UNK         0.0808 
    150 H150      -53.7216  -24.1526    7.0310 H         1 UNK         0.0808 
    151 H151      -53.3481  -23.2388    8.4811 H         1 UNK         0.0808 
    152 H152      -51.3357  -26.2063    6.5847 H         1 UNK         0.3098 
    153 H153      -50.9465  -25.6964    3.7489 H         1 UNK         0.0720 
    154 H154      -48.6175  -25.5274    2.8368 H         1 UNK         0.0791 
    155 H155      -48.1166  -24.6516    4.2829 H         1 UNK         0.0791 
    156 H156      -49.2925  -23.9465    3.1818 H         1 UNK         0.0791 
    157 H157      -50.0415  -27.6447    4.3077 H         1 UNK         0.3028 
@<TRIPOS>BOND
     1    1    2 1    
     2    1   82 1    
     3    1   83 1    
     4    1   84 1    
     5    2    3 2    
     6    2    4 am   BACKBONE|DICT|INTERRES
     7    4    5 1    
     8    4   85 1    
     9    5    6 1    
    10    5   80 1    
    11    5   86 1    
    12    6    7 1    
    13    6   87 1    
    14    6   88 1    
    15    7    8 1    
    16    8    9 1    
    17    8   89 1    
    18    8   90 1    
    19    9   10 ar   
    20    9   14 ar   
    21   10   11 ar   
    22   10   91 1    
    23   11   12 ar   
    24   11   58 1    
    25   12   13 ar   
    26   12   92 1    
    27   13   14 ar   
    28   13   15 1    
    29   14   93 1    
    30   15   16 1    
    31   15   94 1    
    32   15   95 1    
    33   16   17 1    
    34   17   18 1    
    35   17   96 1    
    36   17   97 1    
    37   18   19 1    
    38   18   22 1    
    39   18   98 1    
    40   19   20 am   BACKBONE|DICT|INTERRES
    41   19   21 2    
    42   20   99 1    
    43   20  100 1    
    44   22   23 am   BACKBONE|DICT|INTERRES
    45   22  101 1    
    46   23   24 2    
    47   23   25 1    
    48   25   26 1    
    49   25   27 1    
    50   25  102 1    
    51   26  103 1    
    52   26  104 1    
    53   26  105 1    
    54   27   28 am   BACKBONE|DICT|INTERRES
    55   27  106 1    
    56   28   29 2    
    57   28   30 1    
    58   30   31 1    
    59   30   32 1    
    60   30  107 1    
    61   31  108 1    
    62   31  109 1    
    63   31  110 1    
    64   32   33 am   BACKBONE|DICT|INTERRES
    65   32  111 1    
    66   33   34 2    
    67   33   35 1    
    68   35   36 1    
    69   35   37 1    
    70   35  112 1    
    71   36  113 1    
    72   36  114 1    
    73   36  115 1    
    74   37   38 am   BACKBONE|DICT|INTERRES
    75   37  116 1    
    76   38   39 2    
    77   38   40 1    
    78   40   41 1    
    79   40   42 1    
    80   40  117 1    
    81   41  118 1    
    82   41  119 1    
    83   41  120 1    
    84   42   43 am   BACKBONE|DICT|INTERRES
    85   42  121 1    
    86   43   44 2    
    87   43   45 1    
    88   45   46 1    
    89   45   47 1    
    90   45  122 1    
    91   46  123 1    
    92   46  124 1    
    93   46  125 1    
    94   47   48 am   BACKBONE|DICT|INTERRES
    95   47  126 1    
    96   48   49 2    
    97   48   50 1    
    98   50   51 1    
    99   50   52 1    
   100   50  127 1    
   101   51  128 1    
   102   51  129 1    
   103   51  130 1    
   104   52   53 am   BACKBONE|DICT|INTERRES
   105   52  131 1    
   106   53   54 2    
   107   53   55 1    
   108   55   56 1    
   109   55   59 1    
   110   55  132 1    
   111   56   57 1    
   112   56  133 1    
   113   56  134 1    
   114   57   58 1    
   115   58  135 1    
   116   58  136 1    
   117   59   60 am   BACKBONE|DICT|INTERRES
   118   59  137 1    
   119   60   61 2    
   120   60   62 1    
   121   62   63 1    
   122   62   64 1    
   123   62  138 1    
   124   63  139 1    
   125   63  140 1    
   126   63  141 1    
   127   64   65 am   BACKBONE|DICT|INTERRES
   128   64  142 1    
   129   65   66 2    
   130   65   67 1    
   131   67   68 1    
   132   67   69 1    
   133   67  143 1    
   134   68  144 1    
   135   68  145 1    
   136   68  146 1    
   137   69   70 am   BACKBONE|DICT|INTERRES
   138   69  147 1    
   139   70   71 2    
   140   70   72 1    
   141   72   73 1    
   142   72   74 1    
   143   72  148 1    
   144   73  149 1    
   145   73  150 1    
   146   73  151 1    
   147   74   75 am   BACKBONE|DICT|INTERRES
   148   74  152 1    
   149   75   76 2    
   150   75   77 1    
   151   77   78 1    
   152   77   79 1    
   153   77  153 1    
   154   78  154 1    
   155   78  155 1    
   156   78  156 1    
   157   79   80 am   BACKBONE|DICT|INTERRES
   158   79  157 1    
   159   80   81 2    
@<TRIPOS>SUBSTRUCTURE
     1 UNK         1 GROUP             0       ****    0 ROOT    
