@<TRIPOS>MOLECULE
3R207
157   159    1
SMALL
USER_CHARGES


@<TRIPOS>ATOM
      1 CA        -50.5701  -27.7352    9.4198 C.3       0 UNK        -0.1975 
      2 C         -50.0758  -28.1823    8.0537 C.2       0 UNK         0.4852 
      3 O         -48.9898  -28.7568    7.9637 O.2       0 UNK        -0.5216 
      4 N         -50.8608  -27.9349    6.9943 N.am      1 UNK        -0.4461 
      5 CA        -50.5422  -28.3187    5.6138 C.3       1 UNK         0.0864 
      6 C6        -51.7445  -28.1201    4.6532 C.3       14 UNK        -0.0898 
      7 S7        -52.2632  -26.3811    4.4215 S.3       14 UNK        -0.2598 
      8 C8        -54.0169  -26.4288    4.9033 C.3       14 UNK         0.0286 
      9 C9        -54.1940  -26.6617    6.3955 C.ar      14 UNK        -0.0844 
     10 C10       -53.8216  -25.6712    7.3087 C.ar      14 UNK        -0.0881 
     11 C11       -53.9905  -25.8704    8.6821 C.ar      14 UNK        -0.0643 
     12 C12       -54.5609  -27.0634    9.1363 C.ar      14 UNK        -0.0930 
     13 C13       -54.9467  -28.0578    8.2313 C.ar      14 UNK        -0.0827 
     14 C14       -54.7539  -27.8539    6.8626 C.ar      14 UNK        -0.1249 
     15 C15       -55.6150  -29.3335    8.7243 C.3       14 UNK         0.0141 
     16 S16       -54.5000  -30.7761    8.7147 S.3       14 UNK        -0.2313 
     17 C17       -53.1938  -30.3203    9.9049 C.3       14 UNK        -0.0915 
     18 CA        -53.5174  -30.7397   11.3638 C.3       13 UNK         0.0968 
     19 C         -52.2410  -30.7044   12.2554 C.2       13 UNK         0.5732 
     20 N         -52.1697  -29.8972   13.3074 N.am      13 UNK        -0.7310 
     21 O         -51.2924  -31.4385   11.9901 O.2       13 UNK        -0.5035 
     22 N         -54.6374  -29.9544   11.8981 N.am      13 UNK        -0.4233 
     23 C         -55.4444  -30.3347   12.8917 C.2       13 UNK         0.4989 
     24 O         -55.3994  -31.4331   13.4496 O.2       13 UNK        -0.4996 
     25 CA        -56.4754  -29.2873   13.3466 C.3       12 UNK         0.0216 
     26 CB        -57.9097  -29.8176   13.1813 C.3       12 UNK        -0.1964 
     27 N         -56.2617  -28.8751   14.7355 N.am      12 UNK        -0.4276 
     28 C         -55.1412  -28.3162   15.2126 C.2       12 UNK         0.5020 
     29 O         -54.1414  -28.0818   14.5258 O.2       12 UNK        -0.5489 
     30 CA        -55.1352  -28.0087   16.7199 C.3       11 UNK         0.0294 
     31 CB        -54.8037  -29.2783   17.5214 C.3       11 UNK        -0.2019 
     32 N         -54.1583  -26.9761   17.0603 N.am      11 UNK        -0.4493 
     33 C         -54.2589  -25.6724   16.7804 C.2       11 UNK         0.4932 
     34 O         -55.2625  -25.1574   16.2857 O.2       11 UNK        -0.5029 
     35 CA        -53.0388  -24.7854   17.1043 C.3       10 UNK         0.0280 
     36 CB        -53.0184  -24.3832   18.5917 C.3       10 UNK        -0.1976 
     37 N         -51.7441  -25.3389   16.6754 N.am      10 UNK        -0.4242 
     38 C         -51.1150  -26.4431   17.1093 C.2       10 UNK         0.5072 
     39 O         -51.5409  -27.1755   18.0040 O.2       10 UNK        -0.5224 
     40 CA        -49.8041  -26.8219   16.4062 C.3       9 UNK         0.0343 
     41 CB        -50.0978  -27.5516   15.0860 C.3       9 UNK        -0.2003 
     42 N         -48.9309  -25.6797   16.1462 N.am      9 UNK        -0.4272 
     43 C         -48.2793  -24.9792   17.0847 C.2       9 UNK         0.4988 
     44 O         -48.3650  -25.1976   18.2936 O.2       9 UNK        -0.5108 
     45 CA        -47.3632  -23.8530   16.5858 C.3       8 UNK         0.0248 
     46 CB        -46.0245  -24.4233   16.0872 C.3       8 UNK        -0.2001 
     47 N         -47.9995  -23.0904   15.5119 N.am      8 UNK        -0.4140 
     48 C         -48.7829  -22.0217   15.7071 C.2       8 UNK         0.5028 
     49 O         -49.0025  -21.5244   16.8125 O.2       8 UNK        -0.5428 
     50 CA        -49.4313  -21.3874   14.4632 C.3       7 UNK         0.0264 
     51 CB        -48.5702  -20.2246   13.9435 C.3       7 UNK        -0.1988 
     52 N         -49.6772  -22.3303   13.3679 N.am      7 UNK        -0.4454 
     53 C         -50.5690  -23.3307   13.4114 C.2       7 UNK         0.5027 
     54 O         -51.2494  -23.6025   14.4011 O.2       7 UNK        -0.5083 
     55 CA        -50.7014  -24.1936   12.1407 C.3       6 UNK         0.0844 
     56 C56       -51.5432  -23.4412   11.0786 C.3       14 UNK        -0.0967 
     57 S57       -51.7967  -24.4274    9.5658 S.3       14 UNK        -0.2604 
     58 C58       -53.5762  -24.7921    9.6735 C.3       14 UNK         0.0134 
     59 N         -49.4232  -24.6611   11.5863 N.am      6 UNK        -0.4116 
     60 C         -48.3740  -25.1826   12.2373 C.2       5 UNK         0.5034 
     61 O         -48.2812  -25.2333   13.4630 O.2       5 UNK        -0.5045 
     62 CA        -47.2291  -25.7702   11.3927 C.3       5 UNK         0.0224 
     63 CB        -47.0857  -27.2778   11.6629 C.3       5 UNK        -0.1978 
     64 N         -47.3575  -25.5673    9.9459 N.am      5 UNK        -0.4737 
     65 C         -47.1703  -24.4063    9.3036 C.2       4 UNK         0.5027 
     66 O         -46.9782  -23.3362    9.8819 O.2       4 UNK        -0.5211 
     67 CA        -47.2090  -24.4645    7.7620 C.3       4 UNK         0.0297 
     68 CB        -46.4941  -23.2678    7.1007 C.3       4 UNK        -0.1993 
     69 N         -46.7114  -25.7360    7.2156 N.am      4 UNK        -0.4486 
     70 C         -45.4895  -26.2731    7.3849 C.2       3 UNK         0.4961 
     71 O         -44.5825  -25.7315    8.0174 O.2       3 UNK        -0.5105 
     72 CA        -45.2266  -27.6627    6.7723 C.3       3 UNK         0.0299 
     73 CB        -45.2756  -28.7436    7.8651 C.3       3 UNK        -0.1972 
     74 N         -46.1664  -28.0165    5.7074 N.am      3 UNK        -0.4305 
     75 C         -46.1580  -27.4826    4.4772 C.2       2 UNK         0.5006 
     76 O         -45.2899  -26.7059    4.0771 O.2       2 UNK        -0.5106 
     77 CA        -47.3171  -27.8567    3.5319 C.3       2 UNK         0.0296 
     78 CB        -46.8575  -28.9138    2.5141 C.3       2 UNK        -0.2002 
     79 N         -48.5382  -28.3302    4.1977 N.am      2 UNK        -0.4032 
     80 C         -49.2604  -27.6332    5.0879 C.2       1 UNK         0.5000 
     81 O         -48.9450  -26.5103    5.4933 O.2       1 UNK        -0.5238 
     82 H82       -50.5158  -28.5602   10.1296 H         1 UNK         0.0889 
     83 H83       -51.6010  -27.3885    9.3808 H         1 UNK         0.0889 
     84 H84       -49.9516  -26.9228    9.7951 H         1 UNK         0.0889 
     85 H85       -51.7248  -27.4228    7.1124 H         1 UNK         0.3028 
     86 H86       -50.3354  -29.3908    5.6460 H         1 UNK         0.0864 
     87 H87       -52.5913  -28.7079    5.0101 H         1 UNK         0.0720 
     88 H88       -51.5093  -28.5294    3.6691 H         1 UNK         0.0720 
     89 H89       -54.5317  -27.1946    4.3207 H         1 UNK         0.0814 
     90 H90       -54.4814  -25.4791    4.6343 H         1 UNK         0.0814 
     91 H91       -53.3899  -24.7461    6.9507 H         1 UNK         0.1469 
     92 H92       -54.7132  -27.2115   10.1956 H         1 UNK         0.1381 
     93 H93       -55.0549  -28.6209    6.1618 H         1 UNK         0.1206 
     94 H94       -56.4661  -29.5575    8.0794 H         1 UNK         0.0813 
     95 H95       -56.0356  -29.1931    9.7195 H         1 UNK         0.0813 
     96 H96       -52.2832  -30.8117    9.5570 H         1 UNK         0.0638 
     97 H97       -52.9930  -29.2523    9.8465 H         1 UNK         0.0638 
     98 H98       -53.8252  -31.7869   11.3444 H         1 UNK         0.0568 
     99 H99       -52.9390  -29.2884   13.5711 H         1 UNK         0.3450 
    100 H100      -51.3322  -29.9111   13.8640 H         1 UNK         0.3450 
    101 H101      -54.7127  -29.0122   11.5511 H         1 UNK         0.2987 
    102 H102      -56.3748  -28.3955   12.7242 H         1 UNK         0.0766 
    103 H103      -58.0968  -30.1193   12.1497 H         1 UNK         0.0798 
    104 H104      -58.6478  -29.0557   13.4330 H         1 UNK         0.0798 
    105 H105      -58.0952  -30.6876   13.8129 H         1 UNK         0.0798 
    106 H106      -57.0153  -29.0677   15.3795 H         1 UNK         0.3198 
    107 H107      -56.1261  -27.6519   17.0092 H         1 UNK         0.0843 
    108 H108      -53.8169  -29.6676   17.2662 H         1 UNK         0.0831 
    109 H109      -55.5268  -30.0709   17.3247 H         1 UNK         0.0831 
    110 H110      -54.8203  -29.0861   18.5944 H         1 UNK         0.0831 
    111 H111      -53.2724  -27.2893   17.4515 H         1 UNK         0.3133 
    112 H112      -53.1610  -23.8691   16.5246 H         1 UNK         0.0566 
    113 H113      -52.1986  -23.6967   18.8040 H         1 UNK         0.0814 
    114 H114      -52.9113  -25.2464   19.2491 H         1 UNK         0.0814 
    115 H115      -53.9447  -23.8788   18.8696 H         1 UNK         0.0814 
    116 H116      -51.3251  -24.8343   15.8979 H         1 UNK         0.3091 
    117 H117      -49.2649  -27.5105   17.0604 H         1 UNK         0.0702 
    118 H118      -49.1806  -27.9015   14.6117 H         1 UNK         0.0785 
    119 H119      -50.6190  -26.9099   14.3741 H         1 UNK         0.0785 
    120 H120      -50.7281  -28.4232   15.2632 H         1 UNK         0.0785 
    121 H121      -48.7593  -25.4558   15.1676 H         1 UNK         0.2998 
    122 H122      -47.1513  -23.1916   17.4288 H         1 UNK         0.0697 
    123 H123      -46.1573  -25.0973   15.2400 H         1 UNK         0.0825 
    124 H124      -45.5240  -24.9866   16.8760 H         1 UNK         0.0825 
    125 H125      -45.3466  -23.6276   15.7782 H         1 UNK         0.0825 
    126 H126      -47.9247  -23.4743   14.5778 H         1 UNK         0.3029 
    127 H127      -50.3967  -20.9828   14.7757 H         1 UNK         0.0897 
    128 H128      -47.5970  -20.5683   13.5906 H         1 UNK         0.0792 
    129 H129      -48.3905  -19.4902   14.7302 H         1 UNK         0.0792 
    130 H130      -49.0613  -19.7019   13.1224 H         1 UNK         0.0792 
    131 H131      -49.1410  -22.1984   12.5216 H         1 UNK         0.3086 
    132 H132      -51.2505  -25.0926   12.4280 H         1 UNK         0.0583 
    133 H133      -52.5122  -23.1507   11.4903 H         1 UNK         0.1020 
    134 H134      -51.0530  -22.5103   10.7863 H         1 UNK         0.1020 
    135 H135      -53.8152  -25.0995   10.6930 H         1 UNK         0.0694 
    136 H136      -54.1450  -23.8819    9.4782 H         1 UNK         0.0694 
    137 H137      -49.3741  -24.6536   10.5786 H         1 UNK         0.2989 
    138 H138      -46.3129  -25.2754   11.7228 H         1 UNK         0.1055 
    139 H139      -47.9724  -27.8316   11.3516 H         1 UNK         0.0806 
    140 H140      -46.2268  -27.6956   11.1370 H         1 UNK         0.0806 
    141 H141      -46.9364  -27.4749   12.7257 H         1 UNK         0.0806 
    142 H142      -47.5005  -26.3945    9.3840 H         1 UNK         0.3061 
    143 H143      -48.2633  -24.4113    7.4856 H         1 UNK         0.0734 
    144 H144      -45.4417  -23.2192    7.3819 H         1 UNK         0.0832 
    145 H145      -46.5493  -23.3252    6.0136 H         1 UNK         0.0832 
    146 H146      -46.9534  -22.3243    7.3980 H         1 UNK         0.0832 
    147 H147      -47.3874  -26.2423    6.6480 H         1 UNK         0.3156 
    148 H148      -44.2189  -27.6508    6.3516 H         1 UNK         0.0589 
    149 H149      -45.0241  -29.7257    7.4645 H         1 UNK         0.0808 
    150 H150      -44.5609  -28.5275    8.6605 H         1 UNK         0.0808 
    151 H151      -46.2623  -28.8106    8.3251 H         1 UNK         0.0808 
    152 H152      -46.9191  -28.6429    5.9568 H         1 UNK         0.3098 
    153 H153      -47.5820  -26.9499    2.9841 H         1 UNK         0.0720 
    154 H154      -45.9684  -28.5795    1.9772 H         1 UNK         0.0791 
    155 H155      -47.6275  -29.1094    1.7675 H         1 UNK         0.0791 
    156 H156      -46.6086  -29.8591    2.9983 H         1 UNK         0.0791 
    157 H157      -48.8638  -29.2466    3.9242 H         1 UNK         0.3028 
@<TRIPOS>BOND
     1    1    2 1    
     2    1   82 1    
     3    1   83 1    
     4    1   84 1    
     5    2    3 2    
     6    2    4 am   BACKBONE|DICT|INTERRES
     7    4    5 1    
     8    4   85 1    
     9    5    6 1    
    10    5   80 1    
    11    5   86 1    
    12    6    7 1    
    13    6   87 1    
    14    6   88 1    
    15    7    8 1    
    16    8    9 1    
    17    8   89 1    
    18    8   90 1    
    19    9   10 ar   
    20    9   14 ar   
    21   10   11 ar   
    22   10   91 1    
    23   11   12 ar   
    24   11   58 1    
    25   12   13 ar   
    26   12   92 1    
    27   13   14 ar   
    28   13   15 1    
    29   14   93 1    
    30   15   16 1    
    31   15   94 1    
    32   15   95 1    
    33   16   17 1    
    34   17   18 1    
    35   17   96 1    
    36   17   97 1    
    37   18   19 1    
    38   18   22 1    
    39   18   98 1    
    40   19   20 am   BACKBONE|DICT|INTERRES
    41   19   21 2    
    42   20   99 1    
    43   20  100 1    
    44   22   23 am   BACKBONE|DICT|INTERRES
    45   22  101 1    
    46   23   24 2    
    47   23   25 1    
    48   25   26 1    
    49   25   27 1    
    50   25  102 1    
    51   26  103 1    
    52   26  104 1    
    53   26  105 1    
    54   27   28 am   BACKBONE|DICT|INTERRES
    55   27  106 1    
    56   28   29 2    
    57   28   30 1    
    58   30   31 1    
    59   30   32 1    
    60   30  107 1    
    61   31  108 1    
    62   31  109 1    
    63   31  110 1    
    64   32   33 am   BACKBONE|DICT|INTERRES
    65   32  111 1    
    66   33   34 2    
    67   33   35 1    
    68   35   36 1    
    69   35   37 1    
    70   35  112 1    
    71   36  113 1    
    72   36  114 1    
    73   36  115 1    
    74   37   38 am   BACKBONE|DICT|INTERRES
    75   37  116 1    
    76   38   39 2    
    77   38   40 1    
    78   40   41 1    
    79   40   42 1    
    80   40  117 1    
    81   41  118 1    
    82   41  119 1    
    83   41  120 1    
    84   42   43 am   BACKBONE|DICT|INTERRES
    85   42  121 1    
    86   43   44 2    
    87   43   45 1    
    88   45   46 1    
    89   45   47 1    
    90   45  122 1    
    91   46  123 1    
    92   46  124 1    
    93   46  125 1    
    94   47   48 am   BACKBONE|DICT|INTERRES
    95   47  126 1    
    96   48   49 2    
    97   48   50 1    
    98   50   51 1    
    99   50   52 1    
   100   50  127 1    
   101   51  128 1    
   102   51  129 1    
   103   51  130 1    
   104   52   53 am   BACKBONE|DICT|INTERRES
   105   52  131 1    
   106   53   54 2    
   107   53   55 1    
   108   55   56 1    
   109   55   59 1    
   110   55  132 1    
   111   56   57 1    
   112   56  133 1    
   113   56  134 1    
   114   57   58 1    
   115   58  135 1    
   116   58  136 1    
   117   59   60 am   BACKBONE|DICT|INTERRES
   118   59  137 1    
   119   60   61 2    
   120   60   62 1    
   121   62   63 1    
   122   62   64 1    
   123   62  138 1    
   124   63  139 1    
   125   63  140 1    
   126   63  141 1    
   127   64   65 am   BACKBONE|DICT|INTERRES
   128   64  142 1    
   129   65   66 2    
   130   65   67 1    
   131   67   68 1    
   132   67   69 1    
   133   67  143 1    
   134   68  144 1    
   135   68  145 1    
   136   68  146 1    
   137   69   70 am   BACKBONE|DICT|INTERRES
   138   69  147 1    
   139   70   71 2    
   140   70   72 1    
   141   72   73 1    
   142   72   74 1    
   143   72  148 1    
   144   73  149 1    
   145   73  150 1    
   146   73  151 1    
   147   74   75 am   BACKBONE|DICT|INTERRES
   148   74  152 1    
   149   75   76 2    
   150   75   77 1    
   151   77   78 1    
   152   77   79 1    
   153   77  153 1    
   154   78  154 1    
   155   78  155 1    
   156   78  156 1    
   157   79   80 am   BACKBONE|DICT|INTERRES
   158   79  157 1    
   159   80   81 2    
@<TRIPOS>SUBSTRUCTURE
     1 UNK         1 GROUP             0       ****    0 ROOT    
