@<TRIPOS>MOLECULE
3R207
157   159    1
SMALL
USER_CHARGES


@<TRIPOS>ATOM
      1 CA        -46.9897  -28.1675    4.0017 C.3       0 UNK        -0.1975 
      2 C         -48.0911  -27.2157    4.4419 C.2       0 UNK         0.4852 
      3 O         -48.2044  -26.1179    3.8943 O.2       0 UNK        -0.5216 
      4 N         -48.8934  -27.6208    5.4365 N.am      1 UNK        -0.4461 
      5 CA        -49.9980  -26.8504    6.0212 C.3       1 UNK         0.0864 
      6 C6        -50.7304  -27.6423    7.1294 C.3       14 UNK        -0.0898 
      7 S7        -51.5609  -29.1407    6.5050 S.3       14 UNK        -0.2598 
      8 C8        -50.5246  -30.4855    7.1744 C.3       14 UNK         0.0286 
      9 C9        -50.5056  -30.5349    8.6987 C.ar      14 UNK        -0.0844 
     10 C10       -49.2895  -30.4803    9.3866 C.ar      14 UNK        -0.0881 
     11 C11       -49.2537  -30.5579   10.7828 C.ar      14 UNK        -0.0643 
     12 C12       -50.4519  -30.6743   11.4950 C.ar      14 UNK        -0.0930 
     13 C13       -51.6742  -30.7492   10.8188 C.ar      14 UNK        -0.0827 
     14 C14       -51.6931  -30.6833    9.4219 C.ar      14 UNK        -0.1249 
     15 C15       -52.9721  -30.9418   11.5898 C.3       14 UNK         0.0141 
     16 S16       -54.0118  -29.4558   11.5178 S.3       14 UNK        -0.2313 
     17 C17       -55.4031  -29.9538   12.5832 C.3       14 UNK        -0.0915 
     18 CA        -56.5885  -28.9623   12.4748 C.3       13 UNK         0.0968 
     19 C         -57.8179  -29.4682   13.2776 C.2       13 UNK         0.5732 
     20 N         -58.6233  -30.3399   12.6851 N.am      13 UNK        -0.7310 
     21 O         -58.0303  -29.1153   14.4357 O.2       13 UNK        -0.5035 
     22 N         -56.1726  -27.6037   12.8443 N.am      13 UNK        -0.4233 
     23 C         -56.8706  -26.4883   12.6093 C.2       13 UNK         0.4989 
     24 O         -57.9678  -26.4654   12.0473 O.2       13 UNK        -0.4996 
     25 CA        -56.1930  -25.1781   13.0474 C.3       12 UNK         0.0216 
     26 CB        -57.1137  -23.9416   12.9512 C.3       12 UNK        -0.1964 
     27 N         -55.5663  -25.2898   14.3703 N.am      12 UNK        -0.4276 
     28 C         -56.1813  -25.4452   15.5522 C.2       12 UNK         0.5020 
     29 O         -57.4045  -25.5072   15.6908 O.2       12 UNK        -0.5489 
     30 CA        -55.2687  -25.5011   16.7913 C.3       11 UNK         0.0294 
     31 CB        -56.0121  -25.9147   18.0806 C.3       11 UNK        -0.2019 
     32 N         -54.0585  -26.3074   16.5955 N.am      11 UNK        -0.4493 
     33 C         -53.9710  -27.6361   16.4214 C.2       11 UNK         0.4932 
     34 O         -54.9509  -28.3758   16.3377 O.2       11 UNK        -0.5029 
     35 CA        -52.5615  -28.2673   16.3367 C.3       10 UNK         0.0280 
     36 CB        -52.4447  -29.2052   15.1229 C.3       10 UNK        -0.1976 
     37 N         -51.4717  -27.2891   16.2856 N.am      10 UNK        -0.4242 
     38 C         -50.9925  -26.5875   17.3223 C.2       10 UNK         0.5072 
     39 O         -51.3485  -26.7552   18.4887 O.2       10 UNK        -0.5224 
     40 CA        -50.0018  -25.4559   16.9880 C.3       9 UNK         0.0343 
     41 CB        -48.5520  -25.9666   17.0023 C.3       9 UNK        -0.2003 
     42 N         -50.2944  -24.8148   15.6999 N.am      9 UNK        -0.4272 
     43 C         -51.4043  -24.1053   15.4402 C.2       9 UNK         0.4988 
     44 O         -52.2698  -23.8591   16.2798 O.2       9 UNK        -0.5108 
     45 CA        -51.6176  -23.6501   13.9883 C.3       8 UNK         0.0248 
     46 CB        -50.8425  -22.3550   13.6995 C.3       8 UNK        -0.2001 
     47 N         -51.2378  -24.6936   13.0322 N.am      8 UNK        -0.4140 
     48 C         -51.9425  -25.8209   12.8418 C.2       8 UNK         0.5028 
     49 O         -53.0143  -26.0512   13.4025 O.2       8 UNK        -0.5428 
     50 CA        -51.3416  -26.8918   11.9121 C.3       7 UNK         0.0264 
     51 CB        -51.8501  -26.7184   10.4757 C.3       7 UNK        -0.1988 
     52 N         -49.8787  -26.9210   11.9155 N.am      7 UNK        -0.4454 
     53 C         -49.1318  -27.1897   12.9957 C.2       7 UNK         0.5027 
     54 O         -49.6113  -27.5361   14.0749 O.2       7 UNK        -0.5083 
     55 CA        -47.6073  -26.9679   12.8929 C.3       6 UNK         0.0844 
     56 C56       -46.8330  -28.3049   12.8277 C.3       14 UNK        -0.0967 
     57 S57       -46.9000  -29.1192   11.1920 S.3       14 UNK        -0.2604 
     58 C58       -47.9162  -30.5976   11.5107 C.3       14 UNK         0.0134 
     59 N         -47.1992  -26.0445   11.8276 N.am      6 UNK        -0.4116 
     60 C         -47.5782  -24.7688   11.6881 C.2       5 UNK         0.5034 
     61 O         -48.3489  -24.2071   12.4669 O.2       5 UNK        -0.5045 
     62 CA        -47.0756  -23.9963   10.4553 C.3       5 UNK         0.0224 
     63 CB        -46.0073  -22.9570   10.8455 C.3       5 UNK        -0.1978 
     64 N         -46.6296  -24.8310    9.3283 N.am      5 UNK        -0.4737 
     65 C         -45.5438  -25.6120    9.2204 C.2       4 UNK         0.5027 
     66 O         -44.7482  -25.8123   10.1367 O.2       4 UNK        -0.5211 
     67 CA        -45.3197  -26.3004    7.8643 C.3       4 UNK         0.0297 
     68 CB        -46.0244  -27.6663    7.8238 C.3       4 UNK        -0.1993 
     69 N         -45.7945  -25.4695    6.7555 N.am      4 UNK        -0.4486 
     70 C         -45.0720  -24.5028    6.1705 C.2       3 UNK         0.4961 
     71 O         -43.8976  -24.2628    6.4520 O.2       3 UNK        -0.5105 
     72 CA        -45.7635  -23.6579    5.0846 C.3       3 UNK         0.0299 
     73 CB        -45.3925  -24.1714    3.6839 C.3       3 UNK        -0.1972 
     74 N         -47.2219  -23.6335    5.2287 N.am      3 UNK        -0.4305 
     75 C         -47.8732  -22.8598    6.1120 C.2       2 UNK         0.5006 
     76 O         -47.3160  -22.0368    6.8387 O.2       2 UNK        -0.5106 
     77 CA        -49.3989  -23.0442    6.2350 C.3       2 UNK         0.0296 
     78 CB        -50.1358  -22.0303    5.3451 C.3       2 UNK        -0.2002 
     79 N         -49.8664  -24.3978    5.9192 N.am      2 UNK        -0.4032 
     80 C         -49.4922  -25.5046    6.5751 C.2       1 UNK         0.5000 
     81 O         -48.7280  -25.4982    7.5425 O.2       1 UNK        -0.5238 
     82 H82       -47.0426  -29.1228    4.5233 H         1 UNK         0.0889 
     83 H83       -46.0129  -27.7263    4.1981 H         1 UNK         0.0889 
     84 H84       -47.0677  -28.3608    2.9323 H         1 UNK         0.0889 
     85 H85       -48.7477  -28.5317    5.8437 H         1 UNK         0.3028 
     86 H86       -50.7122  -26.6472    5.2204 H         1 UNK         0.0864 
     87 H87       -51.5083  -27.0207    7.5758 H         1 UNK         0.0720 
     88 H88       -50.0455  -27.9018    7.9389 H         1 UNK         0.0720 
     89 H89       -49.5147  -30.3885    6.7745 H         1 UNK         0.0814 
     90 H90       -50.9074  -31.4364    6.8016 H         1 UNK         0.0814 
     91 H91       -48.3613  -30.3968    8.8378 H         1 UNK         0.1469 
     92 H92       -50.4309  -30.7386   12.5743 H         1 UNK         0.1381 
     93 H93       -52.6363  -30.7447    8.8962 H         1 UNK         0.1206 
     94 H94       -52.7692  -31.1863   12.6336 H         1 UNK         0.0813 
     95 H95       -53.5197  -31.7879   11.1722 H         1 UNK         0.0813 
     96 H96       -55.0519  -30.0236   13.6142 H         1 UNK         0.0638 
     97 H97       -55.7159  -30.9577   12.2898 H         1 UNK         0.0638 
     98 H98       -56.8894  -28.9199   11.4259 H         1 UNK         0.0568 
     99 H99       -59.4195  -30.6927   13.1926 H         1 UNK         0.3450 
    100 H100      -58.4555  -30.6479   11.7400 H         1 UNK         0.3450 
    101 H101      -55.2844  -27.5266   13.3183 H         1 UNK         0.2987 
    102 H102      -55.3736  -25.0207   12.3444 H         1 UNK         0.0766 
    103 H103      -57.4510  -23.7876   11.9256 H         1 UNK         0.0798 
    104 H104      -56.5938  -23.0348   13.2601 H         1 UNK         0.0798 
    105 H105      -58.0048  -24.0464   13.5705 H         1 UNK         0.0798 
    106 H106      -54.5508  -25.3573   14.3444 H         1 UNK         0.3198 
    107 H107      -54.9190  -24.4784   16.9408 H         1 UNK         0.0843 
    108 H108      -56.4571  -26.9063   17.9923 H         1 UNK         0.0831 
    109 H109      -56.8202  -25.2175   18.3051 H         1 UNK         0.0831 
    110 H110      -55.3429  -25.9209   18.9408 H         1 UNK         0.0831 
    111 H111      -53.1958  -25.7763   16.6104 H         1 UNK         0.3133 
    112 H112      -52.4293  -28.8705   17.2369 H         1 UNK         0.0566 
    113 H113      -51.4412  -29.6212   15.0306 H         1 UNK         0.0814 
    114 H114      -53.1354  -30.0446   15.2092 H         1 UNK         0.0814 
    115 H115      -52.6803  -28.6859   14.1953 H         1 UNK         0.0814 
    116 H116      -51.0436  -27.1416   15.3763 H         1 UNK         0.3091 
    117 H117      -50.0987  -24.6945   17.7650 H         1 UNK         0.0702 
    118 H118      -47.8446  -25.1616   16.8024 H         1 UNK         0.0785 
    119 H119      -48.3868  -26.7511   16.2641 H         1 UNK         0.0785 
    120 H120      -48.2992  -26.3838   17.9780 H         1 UNK         0.0785 
    121 H121      -49.6425  -24.9816   14.9471 H         1 UNK         0.2998 
    122 H122      -52.6814  -23.4400   13.8558 H         1 UNK         0.0697 
    123 H123      -49.7709  -22.4745   13.8616 H         1 UNK         0.0825 
    124 H124      -51.1796  -21.5488   14.3524 H         1 UNK         0.0825 
    125 H125      -50.9912  -22.0231   12.6719 H         1 UNK         0.0825 
    126 H126      -50.3373  -24.5857   12.5769 H         1 UNK         0.3029 
    127 H127      -51.6827  -27.8615   12.2752 H         1 UNK         0.0897 
    128 H128      -52.9370  -26.6259   10.4527 H         1 UNK         0.0792 
    129 H129      -51.5943  -27.5918    9.8766 H         1 UNK         0.0792 
    130 H130      -51.4321  -25.8333    9.9950 H         1 UNK         0.0792 
    131 H131      -49.4093  -26.6703   11.0579 H         1 UNK         0.3086 
    132 H132      -47.3232  -26.4832   13.8292 H         1 UNK         0.0583 
    133 H133      -45.7808  -28.1126   13.0439 H         1 UNK         0.1020 
    134 H134      -47.1601  -28.9825   13.6184 H         1 UNK         0.1020 
    135 H135      -47.3632  -31.4721   11.1651 H         1 UNK         0.0694 
    136 H136      -48.0629  -30.7437   12.5812 H         1 UNK         0.0694 
    137 H137      -46.5315  -26.4066   11.1583 H         1 UNK         0.2989 
    138 H138      -47.9403  -23.4466   10.0791 H         1 UNK         0.1055 
    139 H139      -46.3928  -22.2671   11.5976 H         1 UNK         0.0806 
    140 H140      -45.7038  -22.3609    9.9847 H         1 UNK         0.0806 
    141 H141      -45.1151  -23.4238   11.2636 H         1 UNK         0.0806 
    142 H142      -47.2859  -24.8642    8.5507 H         1 UNK         0.3061 
    143 H143      -44.2473  -26.4732    7.7494 H         1 UNK         0.0734 
    144 H144      -45.8757  -28.1625    6.8653 H         1 UNK         0.0832 
    145 H145      -45.6214  -28.3281    8.5909 H         1 UNK         0.0832 
    146 H146      -47.0973  -27.5819    7.9996 H         1 UNK         0.0832 
    147 H147      -46.7726  -25.5549    6.5145 H         1 UNK         0.3156 
    148 H148      -45.3875  -22.6363    5.1735 H         1 UNK         0.0589 
    149 H149      -45.7026  -25.2053    3.5329 H         1 UNK         0.0808 
    150 H150      -45.8530  -23.5654    2.9035 H         1 UNK         0.0808 
    151 H151      -44.3133  -24.1318    3.5293 H         1 UNK         0.0808 
    152 H152      -47.7448  -24.3041    4.6720 H         1 UNK         0.3098 
    153 H153      -49.6649  -22.8419    7.2748 H         1 UNK         0.0720 
    154 H154      -51.2147  -22.0808    5.4936 H         1 UNK         0.0791 
    155 H155      -49.9326  -22.1990    4.2867 H         1 UNK         0.0791 
    156 H156      -49.8268  -21.0100    5.5775 H         1 UNK         0.0791 
    157 H157      -50.4635  -24.4909    5.1097 H         1 UNK         0.3028 
@<TRIPOS>BOND
     1    1    2 1    
     2    1   82 1    
     3    1   83 1    
     4    1   84 1    
     5    2    3 2    
     6    2    4 am   BACKBONE|DICT|INTERRES
     7    4    5 1    
     8    4   85 1    
     9    5    6 1    
    10    5   80 1    
    11    5   86 1    
    12    6    7 1    
    13    6   87 1    
    14    6   88 1    
    15    7    8 1    
    16    8    9 1    
    17    8   89 1    
    18    8   90 1    
    19    9   10 ar   
    20    9   14 ar   
    21   10   11 ar   
    22   10   91 1    
    23   11   12 ar   
    24   11   58 1    
    25   12   13 ar   
    26   12   92 1    
    27   13   14 ar   
    28   13   15 1    
    29   14   93 1    
    30   15   16 1    
    31   15   94 1    
    32   15   95 1    
    33   16   17 1    
    34   17   18 1    
    35   17   96 1    
    36   17   97 1    
    37   18   19 1    
    38   18   22 1    
    39   18   98 1    
    40   19   20 am   BACKBONE|DICT|INTERRES
    41   19   21 2    
    42   20   99 1    
    43   20  100 1    
    44   22   23 am   BACKBONE|DICT|INTERRES
    45   22  101 1    
    46   23   24 2    
    47   23   25 1    
    48   25   26 1    
    49   25   27 1    
    50   25  102 1    
    51   26  103 1    
    52   26  104 1    
    53   26  105 1    
    54   27   28 am   BACKBONE|DICT|INTERRES
    55   27  106 1    
    56   28   29 2    
    57   28   30 1    
    58   30   31 1    
    59   30   32 1    
    60   30  107 1    
    61   31  108 1    
    62   31  109 1    
    63   31  110 1    
    64   32   33 am   BACKBONE|DICT|INTERRES
    65   32  111 1    
    66   33   34 2    
    67   33   35 1    
    68   35   36 1    
    69   35   37 1    
    70   35  112 1    
    71   36  113 1    
    72   36  114 1    
    73   36  115 1    
    74   37   38 am   BACKBONE|DICT|INTERRES
    75   37  116 1    
    76   38   39 2    
    77   38   40 1    
    78   40   41 1    
    79   40   42 1    
    80   40  117 1    
    81   41  118 1    
    82   41  119 1    
    83   41  120 1    
    84   42   43 am   BACKBONE|DICT|INTERRES
    85   42  121 1    
    86   43   44 2    
    87   43   45 1    
    88   45   46 1    
    89   45   47 1    
    90   45  122 1    
    91   46  123 1    
    92   46  124 1    
    93   46  125 1    
    94   47   48 am   BACKBONE|DICT|INTERRES
    95   47  126 1    
    96   48   49 2    
    97   48   50 1    
    98   50   51 1    
    99   50   52 1    
   100   50  127 1    
   101   51  128 1    
   102   51  129 1    
   103   51  130 1    
   104   52   53 am   BACKBONE|DICT|INTERRES
   105   52  131 1    
   106   53   54 2    
   107   53   55 1    
   108   55   56 1    
   109   55   59 1    
   110   55  132 1    
   111   56   57 1    
   112   56  133 1    
   113   56  134 1    
   114   57   58 1    
   115   58  135 1    
   116   58  136 1    
   117   59   60 am   BACKBONE|DICT|INTERRES
   118   59  137 1    
   119   60   61 2    
   120   60   62 1    
   121   62   63 1    
   122   62   64 1    
   123   62  138 1    
   124   63  139 1    
   125   63  140 1    
   126   63  141 1    
   127   64   65 am   BACKBONE|DICT|INTERRES
   128   64  142 1    
   129   65   66 2    
   130   65   67 1    
   131   67   68 1    
   132   67   69 1    
   133   67  143 1    
   134   68  144 1    
   135   68  145 1    
   136   68  146 1    
   137   69   70 am   BACKBONE|DICT|INTERRES
   138   69  147 1    
   139   70   71 2    
   140   70   72 1    
   141   72   73 1    
   142   72   74 1    
   143   72  148 1    
   144   73  149 1    
   145   73  150 1    
   146   73  151 1    
   147   74   75 am   BACKBONE|DICT|INTERRES
   148   74  152 1    
   149   75   76 2    
   150   75   77 1    
   151   77   78 1    
   152   77   79 1    
   153   77  153 1    
   154   78  154 1    
   155   78  155 1    
   156   78  156 1    
   157   79   80 am   BACKBONE|DICT|INTERRES
   158   79  157 1    
   159   80   81 2    
@<TRIPOS>SUBSTRUCTURE
     1 UNK         1 GROUP             0       ****    0 ROOT    
