@<TRIPOS>MOLECULE
3R207
157   159    1
SMALL
USER_CHARGES


@<TRIPOS>ATOM
      1 CA        -49.3664  -30.4427    8.5242 C.3       0 UNK        -0.1975 
      2 C         -50.5259  -29.4571    8.3984 C.2       0 UNK         0.4852 
      3 O         -51.0743  -29.0529    9.4187 O.2       0 UNK        -0.5216 
      4 N         -50.9294  -29.0453    7.1865 N.am      1 UNK        -0.4461 
      5 CA        -50.3591  -29.4365    5.8896 C.3       1 UNK         0.0864 
      6 C6        -51.4277  -29.4529    4.7634 C.3       14 UNK        -0.0898 
      7 S7        -52.0515  -27.8192    4.2305 S.3       14 UNK        -0.2598 
      8 C8        -53.7751  -27.8407    4.8236 C.3       14 UNK         0.0286 
      9 C9        -53.8446  -27.5541    6.3140 C.ar      14 UNK        -0.0844 
     10 C10       -53.5113  -26.2822    6.7856 C.ar      14 UNK        -0.0881 
     11 C11       -53.4951  -26.0128    8.1555 C.ar      14 UNK        -0.0643 
     12 C12       -53.8509  -27.0201    9.0572 C.ar      14 UNK        -0.0930 
     13 C13       -54.2158  -28.2889    8.5951 C.ar      14 UNK        -0.0827 
     14 C14       -54.2122  -28.5521    7.2214 C.ar      14 UNK        -0.1249 
     15 C15       -54.5623  -29.3847    9.5896 C.3       14 UNK         0.0141 
     16 S16       -56.3079  -29.3003   10.0962 S.3       14 UNK        -0.2313 
     17 C17       -56.2784  -30.4701   11.4933 C.3       14 UNK        -0.0915 
     18 CA        -55.7855  -29.7863   12.8084 C.3       13 UNK         0.0968 
     19 C         -56.9006  -29.5324   13.8676 C.2       13 UNK         0.5732 
     20 N         -56.5911  -29.5329   15.1592 N.am      13 UNK        -0.7310 
     21 O         -58.0550  -29.2942   13.5204 O.2       13 UNK        -0.5035 
     22 N         -54.5520  -30.3981   13.3234 N.am      13 UNK        -0.4233 
     23 C         -54.4225  -31.6247   13.8473 C.2       13 UNK         0.4989 
     24 O         -55.3573  -32.4179   13.9639 O.2       13 UNK        -0.4996 
     25 CA        -53.0170  -32.0634   14.3089 C.3       12 UNK         0.0216 
     26 CB        -52.4836  -33.1902   13.4073 C.3       12 UNK        -0.1964 
     27 N         -52.0307  -30.9791   14.3374 N.am      12 UNK        -0.4276 
     28 C         -51.9870  -29.9912   15.2412 C.2       12 UNK         0.5020 
     29 O         -52.7575  -29.9099   16.1994 O.2       12 UNK        -0.5489 
     30 CA        -50.9286  -28.8893   15.0255 C.3       11 UNK         0.0294 
     31 CB        -49.8479  -29.2436   13.9787 C.3       11 UNK        -0.2019 
     32 N         -51.5402  -27.5982   14.6936 N.am      11 UNK        -0.4493 
     33 C         -52.4193  -27.3430   13.7106 C.2       11 UNK         0.4932 
     34 O         -52.8228  -28.2020   12.9262 O.2       11 UNK        -0.5029 
     35 CA        -52.9314  -25.8996   13.5282 C.3       10 UNK         0.0280 
     36 CB        -54.4715  -25.8429   13.4446 C.3       10 UNK        -0.1976 
     37 N         -52.4027  -24.9180   14.4863 N.am      10 UNK        -0.4242 
     38 C         -52.6552  -24.8370   15.8011 C.2       10 UNK         0.5072 
     39 O         -53.4384  -25.5772   16.3982 O.2       10 UNK        -0.5224 
     40 CA        -51.8646  -23.7651   16.5810 C.3       9 UNK         0.0343 
     41 CB        -51.9878  -23.9285   18.1107 C.3       9 UNK        -0.2003 
     42 N         -50.4481  -23.6840   16.1989 N.am      9 UNK        -0.4272 
     43 C         -49.5442  -24.6754   16.1631 C.2       9 UNK         0.4988 
     44 O         -49.8115  -25.8474   16.4357 O.2       9 UNK        -0.5108 
     45 CA        -48.1038  -24.2880   15.7553 C.3       8 UNK         0.0248 
     46 CB        -47.2019  -25.5197   15.5507 C.3       8 UNK        -0.2001 
     47 N         -48.0546  -23.4577   14.5463 N.am      8 UNK        -0.4140 
     48 C         -48.3659  -22.1555   14.4787 C.2       8 UNK         0.5028 
     49 O         -48.6846  -21.4831   15.4603 O.2       8 UNK        -0.5428 
     50 CA        -48.4001  -21.5070   13.0837 C.3       7 UNK         0.0264 
     51 CB        -47.0044  -21.0046   12.6828 C.3       7 UNK        -0.1988 
     52 N         -48.9233  -22.3940   12.0404 N.am      7 UNK        -0.4454 
     53 C         -50.1493  -22.9415   12.0348 C.2       7 UNK         0.5027 
     54 O         -51.0029  -22.7386   12.9011 O.2       7 UNK        -0.5083 
     55 CA        -50.4527  -23.9377   10.9002 C.3       6 UNK         0.0844 
     56 C56       -50.8202  -23.2020    9.5901 C.3       14 UNK        -0.0967 
     57 S57       -51.2995  -24.3625    8.2732 S.3       14 UNK        -0.2604 
     58 C58       -53.0567  -24.6452    8.6541 C.3       14 UNK         0.0134 
     59 N         -49.3816  -24.9294   10.7508 N.am      6 UNK        -0.4116 
     60 C         -48.9990  -25.7823   11.7142 C.2       5 UNK         0.5034 
     61 O         -49.5548  -25.8752   12.8064 O.2       5 UNK        -0.5045 
     62 CA        -47.7402  -26.6219   11.4507 C.3       5 UNK         0.0224 
     63 CB        -48.0703  -27.9103   10.6848 C.3       5 UNK        -0.1978 
     64 N         -46.7244  -25.8564   10.7282 N.am      5 UNK        -0.4737 
     65 C         -45.9970  -24.8746   11.2785 C.2       4 UNK         0.5027 
     66 O         -46.0611  -24.5624   12.4670 O.2       4 UNK        -0.5211 
     67 CA        -45.0725  -24.0849   10.3362 C.3       4 UNK         0.0297 
     68 CB        -43.7147  -24.7909   10.1967 C.3       4 UNK        -0.1993 
     69 N         -45.6580  -23.8779    9.0085 N.am      4 UNK        -0.4486 
     70 C         -46.7450  -23.1304    8.7708 C.2       3 UNK         0.4961 
     71 O         -47.3428  -22.4966    9.6405 O.2       3 UNK        -0.5105 
     72 CA        -47.2844  -23.1232    7.3291 C.3       3 UNK         0.0299 
     73 CB        -46.5980  -22.0225    6.5053 C.3       3 UNK        -0.1972 
     74 N         -47.1670  -24.4099    6.6292 N.am      3 UNK        -0.4305 
     75 C         -47.7122  -25.5599    7.0486 C.2       2 UNK         0.5006 
     76 O         -48.2949  -25.6911    8.1259 O.2       2 UNK        -0.5106 
     77 CA        -47.5394  -26.7839    6.1472 C.3       2 UNK         0.0296 
     78 CB        -46.2582  -27.5505    6.5294 C.3       2 UNK        -0.2002 
     79 N         -48.7143  -27.6355    6.3151 N.am      2 UNK        -0.4032 
     80 C         -49.0864  -28.6400    5.5102 C.2       1 UNK         0.5000 
     81 O         -48.4538  -28.9700    4.5049 O.2       1 UNK        -0.5238 
     82 H82       -48.4665  -30.0631    8.0420 H         1 UNK         0.0889 
     83 H83       -49.6267  -31.4053    8.0855 H         1 UNK         0.0889 
     84 H84       -49.1276  -30.6150    9.5736 H         1 UNK         0.0889 
     85 H85       -51.7121  -28.4042    7.1356 H         1 UNK         0.3028 
     86 H86       -50.0253  -30.4716    5.9755 H         1 UNK         0.0864 
     87 H87       -52.2673  -30.0789    5.0691 H         1 UNK         0.0720 
     88 H88       -51.0168  -29.9437    3.8793 H         1 UNK         0.0720 
     89 H89       -54.2442  -28.7948    4.5785 H         1 UNK         0.0814 
     90 H90       -54.3411  -27.0770    4.2883 H         1 UNK         0.0814 
     91 H91       -53.2196  -25.5100    6.0863 H         1 UNK         0.1469 
     92 H92       -53.8269  -26.8278   10.1213 H         1 UNK         0.1381 
     93 H93       -54.4725  -29.5389    6.8630 H         1 UNK         0.1206 
     94 H94       -53.9189  -29.2912   10.4668 H         1 UNK         0.0813 
     95 H95       -54.3542  -30.3670    9.1628 H         1 UNK         0.0813 
     96 H96       -57.2756  -30.8993   11.6037 H         1 UNK         0.0638 
     97 H97       -55.6418  -31.3115   11.2147 H         1 UNK         0.0638 
     98 H98       -55.4674  -28.7735   12.5634 H         1 UNK         0.0568 
     99 H99       -57.3128  -29.3562   15.8396 H         1 UNK         0.3450 
    100 H100      -55.6446  -29.7096   15.4583 H         1 UNK         0.3450 
    101 H101      -53.7367  -29.7918   13.2732 H         1 UNK         0.2987 
    102 H102      -53.1204  -32.4563   15.3226 H         1 UNK         0.0766 
    103 H103      -52.3593  -32.8576   12.3758 H         1 UNK         0.0798 
    104 H104      -53.1684  -34.0394   13.3946 H         1 UNK         0.0798 
    105 H105      -51.5210  -33.5606   13.7606 H         1 UNK         0.0798 
    106 H106      -51.3778  -30.9409   13.5678 H         1 UNK         0.3198 
    107 H107      -50.4276  -28.7535   15.9852 H         1 UNK         0.0843 
    108 H108      -49.0797  -28.4707   13.9445 H         1 UNK         0.0831 
    109 H109      -50.2612  -29.3338   12.9734 H         1 UNK         0.0831 
    110 H110      -49.3451  -30.1797   14.2251 H         1 UNK         0.0831 
    111 H111      -51.2381  -26.8246   15.2765 H         1 UNK         0.3133 
    112 H112      -52.5575  -25.5899   12.5569 H         1 UNK         0.0566 
    113 H113      -54.8356  -26.4141   12.5901 H         1 UNK         0.0814 
    114 H114      -54.9436  -26.2593   14.3349 H         1 UNK         0.0814 
    115 H115      -54.8264  -24.8199   13.3206 H         1 UNK         0.0814 
    116 H116      -51.7367  -24.2570   14.0967 H         1 UNK         0.3091 
    117 H117      -52.3097  -22.8059   16.3125 H         1 UNK         0.0702 
    118 H118      -51.4548  -23.1377   18.6384 H         1 UNK         0.0785 
    119 H119      -51.5863  -24.8855   18.4464 H         1 UNK         0.0785 
    120 H120      -53.0302  -23.8821   18.4283 H         1 UNK         0.0785 
    121 H121      -50.1082  -22.7585   15.9523 H         1 UNK         0.2998 
    122 H122      -47.6874  -23.7100   16.5827 H         1 UNK         0.0697 
    123 H123      -46.1860  -25.2298   15.2818 H         1 UNK         0.0825 
    124 H124      -47.1382  -26.1156   16.4620 H         1 UNK         0.0825 
    125 H125      -47.5849  -26.1688   14.7630 H         1 UNK         0.0825 
    126 H126      -47.7833  -23.9298   13.6914 H         1 UNK         0.3029 
    127 H127      -49.0686  -20.6455   13.1416 H         1 UNK         0.0897 
    128 H128      -47.0319  -20.4744   11.7305 H         1 UNK         0.0792 
    129 H129      -46.6091  -20.3130   13.4280 H         1 UNK         0.0792 
    130 H130      -46.2920  -21.8244   12.5875 H         1 UNK         0.0792 
    131 H131      -48.3030  -22.5847   11.2553 H         1 UNK         0.3086 
    132 H132      -51.3372  -24.4934   11.2003 H         1 UNK         0.0583 
    133 H133      -51.6398  -22.4995    9.7547 H         1 UNK         0.1020 
    134 H134      -49.9803  -22.6060    9.2313 H         1 UNK         0.1020 
    135 H135      -53.2243  -24.5636    9.7289 H         1 UNK         0.0694 
    136 H136      -53.6602  -23.8676    8.1839 H         1 UNK         0.0694 
    137 H137      -48.9187  -24.9734    9.8478 H         1 UNK         0.2989 
    138 H138      -47.3278  -26.9072   12.4209 H         1 UNK         0.1055 
    139 H139      -48.4726  -27.7018    9.6950 H         1 UNK         0.0806 
    140 H140      -48.8192  -28.4970   11.2168 H         1 UNK         0.0806 
    141 H141      -47.1887  -28.5397   10.5643 H         1 UNK         0.0806 
    142 H142      -46.6782  -25.9948    9.7281 H         1 UNK         0.3061 
    143 H143      -44.9030  -23.1040   10.7855 H         1 UNK         0.0734 
    144 H144      -43.0204  -24.2024    9.5967 H         1 UNK         0.0832 
    145 H145      -43.2514  -24.9379   11.1735 H         1 UNK         0.0832 
    146 H146      -43.8132  -25.7731    9.7325 H         1 UNK         0.0832 
    147 H147      -45.2291  -24.3611    8.2329 H         1 UNK         0.3156 
    148 H148      -48.3489  -22.8869    7.3848 H         1 UNK         0.0589 
    149 H149      -45.5334  -22.2196    6.3725 H         1 UNK         0.0808 
    150 H150      -47.0486  -21.9257    5.5173 H         1 UNK         0.0808 
    151 H151      -46.6908  -21.0527    6.9967 H         1 UNK         0.0808 
    152 H152      -46.6855  -24.3976    5.7411 H         1 UNK         0.3098 
    153 H153      -47.4834  -26.4570    5.1068 H         1 UNK         0.0720 
    154 H154      -45.3773  -26.9132    6.4419 H         1 UNK         0.0791 
    155 H155      -46.2993  -27.9141    7.5572 H         1 UNK         0.0791 
    156 H156      -46.0963  -28.4098    5.8786 H         1 UNK         0.0791 
    157 H157      -49.2969  -27.3867    7.1061 H         1 UNK         0.3028 
@<TRIPOS>BOND
     1    1    2 1    
     2    1   82 1    
     3    1   83 1    
     4    1   84 1    
     5    2    3 2    
     6    2    4 am   BACKBONE|DICT|INTERRES
     7    4    5 1    
     8    4   85 1    
     9    5    6 1    
    10    5   80 1    
    11    5   86 1    
    12    6    7 1    
    13    6   87 1    
    14    6   88 1    
    15    7    8 1    
    16    8    9 1    
    17    8   89 1    
    18    8   90 1    
    19    9   10 ar   
    20    9   14 ar   
    21   10   11 ar   
    22   10   91 1    
    23   11   12 ar   
    24   11   58 1    
    25   12   13 ar   
    26   12   92 1    
    27   13   14 ar   
    28   13   15 1    
    29   14   93 1    
    30   15   16 1    
    31   15   94 1    
    32   15   95 1    
    33   16   17 1    
    34   17   18 1    
    35   17   96 1    
    36   17   97 1    
    37   18   19 1    
    38   18   22 1    
    39   18   98 1    
    40   19   20 am   BACKBONE|DICT|INTERRES
    41   19   21 2    
    42   20   99 1    
    43   20  100 1    
    44   22   23 am   BACKBONE|DICT|INTERRES
    45   22  101 1    
    46   23   24 2    
    47   23   25 1    
    48   25   26 1    
    49   25   27 1    
    50   25  102 1    
    51   26  103 1    
    52   26  104 1    
    53   26  105 1    
    54   27   28 am   BACKBONE|DICT|INTERRES
    55   27  106 1    
    56   28   29 2    
    57   28   30 1    
    58   30   31 1    
    59   30   32 1    
    60   30  107 1    
    61   31  108 1    
    62   31  109 1    
    63   31  110 1    
    64   32   33 am   BACKBONE|DICT|INTERRES
    65   32  111 1    
    66   33   34 2    
    67   33   35 1    
    68   35   36 1    
    69   35   37 1    
    70   35  112 1    
    71   36  113 1    
    72   36  114 1    
    73   36  115 1    
    74   37   38 am   BACKBONE|DICT|INTERRES
    75   37  116 1    
    76   38   39 2    
    77   38   40 1    
    78   40   41 1    
    79   40   42 1    
    80   40  117 1    
    81   41  118 1    
    82   41  119 1    
    83   41  120 1    
    84   42   43 am   BACKBONE|DICT|INTERRES
    85   42  121 1    
    86   43   44 2    
    87   43   45 1    
    88   45   46 1    
    89   45   47 1    
    90   45  122 1    
    91   46  123 1    
    92   46  124 1    
    93   46  125 1    
    94   47   48 am   BACKBONE|DICT|INTERRES
    95   47  126 1    
    96   48   49 2    
    97   48   50 1    
    98   50   51 1    
    99   50   52 1    
   100   50  127 1    
   101   51  128 1    
   102   51  129 1    
   103   51  130 1    
   104   52   53 am   BACKBONE|DICT|INTERRES
   105   52  131 1    
   106   53   54 2    
   107   53   55 1    
   108   55   56 1    
   109   55   59 1    
   110   55  132 1    
   111   56   57 1    
   112   56  133 1    
   113   56  134 1    
   114   57   58 1    
   115   58  135 1    
   116   58  136 1    
   117   59   60 am   BACKBONE|DICT|INTERRES
   118   59  137 1    
   119   60   61 2    
   120   60   62 1    
   121   62   63 1    
   122   62   64 1    
   123   62  138 1    
   124   63  139 1    
   125   63  140 1    
   126   63  141 1    
   127   64   65 am   BACKBONE|DICT|INTERRES
   128   64  142 1    
   129   65   66 2    
   130   65   67 1    
   131   67   68 1    
   132   67   69 1    
   133   67  143 1    
   134   68  144 1    
   135   68  145 1    
   136   68  146 1    
   137   69   70 am   BACKBONE|DICT|INTERRES
   138   69  147 1    
   139   70   71 2    
   140   70   72 1    
   141   72   73 1    
   142   72   74 1    
   143   72  148 1    
   144   73  149 1    
   145   73  150 1    
   146   73  151 1    
   147   74   75 am   BACKBONE|DICT|INTERRES
   148   74  152 1    
   149   75   76 2    
   150   75   77 1    
   151   77   78 1    
   152   77   79 1    
   153   77  153 1    
   154   78  154 1    
   155   78  155 1    
   156   78  156 1    
   157   79   80 am   BACKBONE|DICT|INTERRES
   158   79  157 1    
   159   80   81 2    
@<TRIPOS>SUBSTRUCTURE
     1 UNK         1 GROUP             0       ****    0 ROOT    
