@<TRIPOS>MOLECULE
3R207
157   159    1
SMALL
USER_CHARGES


@<TRIPOS>ATOM
      1 CA        -51.1297  -31.4560    7.3820 C.3       0 UNK        -0.1975 
      2 C         -50.4270  -30.8525    6.1777 C.2       0 UNK         0.4852 
      3 O         -49.5342  -31.4824    5.6101 O.2       0 UNK        -0.5216 
      4 N         -50.8074  -29.6246    5.7975 N.am      1 UNK        -0.4461 
      5 CA        -50.2251  -28.8830    4.6674 C.3       1 UNK         0.0864 
      6 C6        -51.2133  -27.8469    4.0755 C.3       14 UNK        -0.0898 
      7 S7        -52.7314  -28.6625    3.4608 S.3       14 UNK        -0.2598 
      8 C8        -54.0740  -27.7737    4.3156 C.3       14 UNK         0.0286 
      9 C9        -53.9465  -27.8203    5.8321 C.ar      14 UNK        -0.0844 
     10 C10       -53.6173  -26.6585    6.5349 C.ar      14 UNK        -0.0881 
     11 C11       -53.4838  -26.6818    7.9244 C.ar      14 UNK        -0.0643 
     12 C12       -53.6897  -27.8783    8.6158 C.ar      14 UNK        -0.0930 
     13 C13       -54.0371  -29.0447    7.9265 C.ar      14 UNK        -0.0827 
     14 C14       -54.1662  -29.0106    6.5337 C.ar      14 UNK        -0.1249 
     15 C15       -54.2420  -30.3417    8.6929 C.3       14 UNK         0.0141 
     16 S16       -55.8616  -30.3953    9.5182 S.3       14 UNK        -0.2313 
     17 C17       -55.5269  -31.6429   10.8109 C.3       14 UNK        -0.0915 
     18 CA        -55.4161  -31.0307   12.2349 C.3       13 UNK         0.0968 
     19 C         -55.1373  -32.1325   13.3002 C.2       13 UNK         0.5732 
     20 N         -54.0272  -32.0975   14.0309 N.am      13 UNK        -0.7310 
     21 O         -55.9513  -33.0370   13.4712 O.2       13 UNK        -0.5035 
     22 N         -54.4733  -29.9026   12.2806 N.am      13 UNK        -0.4233 
     23 C         -54.4971  -28.9326   13.1994 C.2       13 UNK         0.4989 
     24 O         -55.3436  -28.8393   14.0910 O.2       13 UNK        -0.4996 
     25 CA        -53.3723  -27.8912   13.1046 C.3       12 UNK         0.0216 
     26 CB        -53.9441  -26.4897   12.8323 C.3       12 UNK        -0.1964 
     27 N         -52.5508  -27.8775   14.3174 N.am      12 UNK        -0.4276 
     28 C         -51.7940  -28.9055   14.7323 C.2       12 UNK         0.5020 
     29 O         -51.7599  -29.9951   14.1549 O.2       12 UNK        -0.5489 
     30 CA        -50.9036  -28.7032   15.9725 C.3       11 UNK         0.0294 
     31 CB        -49.4292  -28.5861   15.5529 C.3       11 UNK        -0.2019 
     32 N         -51.2613  -27.5238   16.7622 N.am      11 UNK        -0.4493 
     33 C         -52.2090  -27.5023   17.7111 C.2       11 UNK         0.4932 
     34 O         -52.8557  -28.4933   18.0512 O.2       11 UNK        -0.5029 
     35 CA        -52.4967  -26.1507   18.3990 C.3       10 UNK         0.0280 
     36 CB        -51.7188  -26.0460   19.7205 C.3       10 UNK        -0.1976 
     37 N         -52.1867  -24.9857   17.5648 N.am      10 UNK        -0.4242 
     38 C         -52.7630  -24.7192   16.3854 C.2       10 UNK         0.5072 
     39 O         -53.7063  -25.3679   15.9352 O.2       10 UNK        -0.5224 
     40 CA        -52.1852  -23.5729   15.5367 C.3       9 UNK         0.0343 
     41 CB        -53.0733  -22.3243   15.6572 C.3       9 UNK        -0.2003 
     42 N         -50.7891  -23.1846   15.7791 N.am      9 UNK        -0.4272 
     43 C         -49.7084  -23.9764   15.8508 C.2       9 UNK         0.4988 
     44 O         -49.7488  -25.2017   15.9681 O.2       9 UNK        -0.5108 
     45 CA        -48.3510  -23.2591   15.7354 C.3       8 UNK         0.0248 
     46 CB        -47.1602  -24.2125   15.9473 C.3       8 UNK        -0.2001 
     47 N         -48.2354  -22.6303   14.4167 N.am      8 UNK        -0.4140 
     48 C         -48.7777  -21.4517   14.0779 C.2       8 UNK         0.5028 
     49 O         -49.3386  -20.7060   14.8827 O.2       8 UNK        -0.5428 
     50 CA        -48.7638  -21.0822   12.5854 C.3       7 UNK         0.0264 
     51 CB        -47.3489  -20.7109   12.1119 C.3       7 UNK        -0.1988 
     52 N         -49.2970  -22.1640   11.7547 N.am      7 UNK        -0.4454 
     53 C         -50.5692  -22.5956   11.7708 C.2       7 UNK         0.5027 
     54 O         -51.4709  -22.0509   12.4073 O.2       7 UNK        -0.5083 
     55 CA        -50.8793  -23.8676   10.9597 C.3       6 UNK         0.0844 
     56 C56       -51.1973  -23.5334    9.4806 C.3       14 UNK        -0.0967 
     57 S57       -51.3539  -25.0250    8.4405 S.3       14 UNK        -0.2604 
     58 C58       -53.1133  -25.4106    8.6685 C.3       14 UNK         0.0134 
     59 N         -49.7877  -24.8303   11.1073 N.am      6 UNK        -0.4116 
     60 C         -49.6469  -25.6694   12.1402 C.2       5 UNK         0.5034 
     61 O         -50.4695  -25.7786   13.0455 O.2       5 UNK        -0.5045 
     62 CA        -48.3815  -26.5454   12.1671 C.3       5 UNK         0.0224 
     63 CB        -48.7207  -27.9790   11.7263 C.3       5 UNK        -0.1978 
     64 N         -47.2927  -26.0258   11.3317 N.am      5 UNK        -0.4737 
     65 C         -46.5836  -24.9222   11.6088 C.2       4 UNK         0.5027 
     66 O         -46.7407  -24.2456   12.6231 O.2       4 UNK        -0.5211 
     67 CA        -45.5902  -24.4555   10.5320 C.3       4 UNK         0.0297 
     68 CB        -44.2733  -25.2406   10.6298 C.3       4 UNK        -0.1993 
     69 N         -46.1345  -24.5714    9.1752 N.am      4 UNK        -0.4486 
     70 C         -47.2264  -23.9426    8.7227 C.2       3 UNK         0.4961 
     71 O         -47.8780  -23.1543    9.4068 O.2       3 UNK        -0.5105 
     72 CA        -47.7171  -24.2875    7.3034 C.3       3 UNK         0.0299 
     73 CB        -46.9353  -23.4999    6.2347 C.3       3 UNK        -0.1972 
     74 N         -47.7526  -25.7314    7.0130 N.am      3 UNK        -0.4305 
     75 C         -46.7222  -26.5829    6.8941 C.2       2 UNK         0.5006 
     76 O         -45.5417  -26.2444    6.9908 O.2       2 UNK        -0.5106 
     77 CA        -47.0410  -28.0740    6.7055 C.3       2 UNK         0.0296 
     78 CB        -46.7815  -28.8366    8.0167 C.3       2 UNK        -0.2002 
     79 N         -48.4065  -28.3624    6.2605 N.am      2 UNK        -0.4032 
     80 C         -48.8464  -28.2595    4.9970 C.2       1 UNK         0.5000 
     81 O         -48.1898  -27.7365    4.0949 O.2       1 UNK        -0.5238 
     82 H82       -50.4649  -32.1408    7.9083 H         1 UNK         0.0889 
     83 H83       -52.0105  -32.0125    7.0637 H         1 UNK         0.0889 
     84 H84       -51.4339  -30.6824    8.0853 H         1 UNK         0.0889 
     85 H85       -51.5777  -29.1674    6.2681 H         1 UNK         0.3028 
     86 H86       -50.0223  -29.6069    3.8746 H         1 UNK         0.0864 
     87 H87       -51.4550  -27.0785    4.8102 H         1 UNK         0.0720 
     88 H88       -50.7611  -27.3244    3.2304 H         1 UNK         0.0720 
     89 H89       -55.0283  -28.2148    4.0244 H         1 UNK         0.0814 
     90 H90       -54.0963  -26.7428    3.9588 H         1 UNK         0.0814 
     91 H91       -53.4502  -25.7322    6.0019 H         1 UNK         0.1469 
     92 H92       -53.5849  -27.9015    9.6914 H         1 UNK         0.1381 
     93 H93       -54.4276  -29.9098    5.9921 H         1 UNK         0.1206 
     94 H94       -54.1579  -31.2026    8.0283 H         1 UNK         0.0813 
     95 H95       -53.4472  -30.4435    9.4324 H         1 UNK         0.0813 
     96 H96       -56.3405  -32.3699   10.7789 H         1 UNK         0.0638 
     97 H97       -54.6218  -32.1991   10.5602 H         1 UNK         0.0638 
     98 H98       -56.4023  -30.6326   12.4817 H         1 UNK         0.0568 
     99 H99       -53.8700  -32.8197   14.7151 H         1 UNK         0.3450 
    100 H100      -53.3451  -31.3564   13.9173 H         1 UNK         0.3450 
    101 H101      -53.7193  -29.9301   11.6130 H         1 UNK         0.2987 
    102 H102      -52.7119  -28.1465   12.2730 H         1 UNK         0.0766 
    103 H103      -54.6508  -26.1849   13.6048 H         1 UNK         0.0798 
    104 H104      -53.1568  -25.7384   12.7858 H         1 UNK         0.0798 
    105 H105      -54.4760  -26.4652   11.8807 H         1 UNK         0.0798 
    106 H106      -52.5706  -27.0304   14.8701 H         1 UNK         0.3198 
    107 H107      -51.0071  -29.5953   16.5941 H         1 UNK         0.0843 
    108 H108      -49.1139  -29.4552   14.9740 H         1 UNK         0.0831 
    109 H109      -48.7732  -28.5176   16.4207 H         1 UNK         0.0831 
    110 H110      -49.2609  -27.7032   14.9362 H         1 UNK         0.0831 
    111 H111      -50.7656  -26.6619   16.5349 H         1 UNK         0.3133 
    112 H112      -53.5643  -26.1195   18.6262 H         1 UNK         0.0566 
    113 H113      -51.9748  -25.1353   20.2623 H         1 UNK         0.0814 
    114 H114      -51.9496  -26.8866   20.3765 H         1 UNK         0.0814 
    115 H115      -50.6405  -26.0487   19.5549 H         1 UNK         0.0814 
    116 H116      -51.4019  -24.4161   17.8456 H         1 UNK         0.3091 
    117 H117      -52.2248  -23.9134   14.5000 H         1 UNK         0.0702 
    118 H118      -52.7697  -21.5532   14.9484 H         1 UNK         0.0785 
    119 H119      -53.0317  -21.8964   16.6596 H         1 UNK         0.0785 
    120 H120      -54.1168  -22.5617   15.4446 H         1 UNK         0.0785 
    121 H121      -50.5959  -22.1943   15.6731 H         1 UNK         0.2998 
    122 H122      -48.3086  -22.4915   16.5110 H         1 UNK         0.0697 
    123 H123      -47.1548  -25.0215   15.2157 H         1 UNK         0.0825 
    124 H124      -47.1976  -24.6692   16.9370 H         1 UNK         0.0825 
    125 H125      -46.2100  -23.6846   15.8673 H         1 UNK         0.0825 
    126 H126      -47.7851  -23.1904   13.6938 H         1 UNK         0.3029 
    127 H127      -49.4071  -20.2096   12.4524 H         1 UNK         0.0897 
    128 H128      -47.3529  -20.3898   11.0700 H         1 UNK         0.0792 
    129 H129      -46.9435  -19.8890   12.7035 H         1 UNK         0.0792 
    130 H130      -46.6560  -21.5482   12.1984 H         1 UNK         0.0792 
    131 H131      -48.6410  -22.6264   11.1318 H         1 UNK         0.3086 
    132 H132      -51.7811  -24.3092   11.3881 H         1 UNK         0.0583 
    133 H133      -52.1162  -22.9475    9.4139 H         1 UNK         0.1020 
    134 H134      -50.4193  -22.9064    9.0432 H         1 UNK         0.1020 
    135 H135      -53.3270  -25.5124    9.7335 H         1 UNK         0.0694 
    136 H136      -53.7211  -24.5809    8.3043 H         1 UNK         0.0694 
    137 H137      -49.0601  -24.7869   10.4093 H         1 UNK         0.2989 
    138 H138      -48.0317  -26.5715   13.2015 H         1 UNK         0.1055 
    139 H139      -49.0852  -28.0107   10.6989 H         1 UNK         0.0806 
    140 H140      -49.5010  -28.4063   12.3585 H         1 UNK         0.0806 
    141 H141      -47.8529  -28.6347   11.7993 H         1 UNK         0.0806 
    142 H142      -47.0945  -26.5188   10.4738 H         1 UNK         0.3061 
    143 H143      -45.3760  -23.4003   10.7145 H         1 UNK         0.0734 
    144 H144      -43.8448  -25.1599   11.6299 H         1 UNK         0.0832 
    145 H145      -44.4157  -26.3015   10.4199 H         1 UNK         0.0832 
    146 H146      -43.5311  -24.8576    9.9292 H         1 UNK         0.0832 
    147 H147      -45.6625  -25.1982    8.5264 H         1 UNK         0.3156 
    148 H148      -48.7544  -23.9555    7.2456 H         1 UNK         0.0589 
    149 H149      -45.8717  -23.7393    6.2399 H         1 UNK         0.0808 
    150 H150      -47.3194  -23.7019    5.2349 H         1 UNK         0.0808 
    151 H151      -47.0235  -22.4260    6.4049 H         1 UNK         0.0808 
    152 H152      -48.6800  -26.1271    6.9452 H         1 UNK         0.3098 
    153 H153      -46.3489  -28.4548    5.9511 H         1 UNK         0.0720 
    154 H154      -46.9067  -29.9112    7.8807 H         1 UNK         0.0791 
    155 H155      -47.4564  -28.5185    8.8117 H         1 UNK         0.0791 
    156 H156      -45.7617  -28.6764    8.3702 H         1 UNK         0.0791 
    157 H157      -49.0172  -28.8082    6.9290 H         1 UNK         0.3028 
@<TRIPOS>BOND
     1    1    2 1    
     2    1   82 1    
     3    1   83 1    
     4    1   84 1    
     5    2    3 2    
     6    2    4 am   BACKBONE|DICT|INTERRES
     7    4    5 1    
     8    4   85 1    
     9    5    6 1    
    10    5   80 1    
    11    5   86 1    
    12    6    7 1    
    13    6   87 1    
    14    6   88 1    
    15    7    8 1    
    16    8    9 1    
    17    8   89 1    
    18    8   90 1    
    19    9   10 ar   
    20    9   14 ar   
    21   10   11 ar   
    22   10   91 1    
    23   11   12 ar   
    24   11   58 1    
    25   12   13 ar   
    26   12   92 1    
    27   13   14 ar   
    28   13   15 1    
    29   14   93 1    
    30   15   16 1    
    31   15   94 1    
    32   15   95 1    
    33   16   17 1    
    34   17   18 1    
    35   17   96 1    
    36   17   97 1    
    37   18   19 1    
    38   18   22 1    
    39   18   98 1    
    40   19   20 am   BACKBONE|DICT|INTERRES
    41   19   21 2    
    42   20   99 1    
    43   20  100 1    
    44   22   23 am   BACKBONE|DICT|INTERRES
    45   22  101 1    
    46   23   24 2    
    47   23   25 1    
    48   25   26 1    
    49   25   27 1    
    50   25  102 1    
    51   26  103 1    
    52   26  104 1    
    53   26  105 1    
    54   27   28 am   BACKBONE|DICT|INTERRES
    55   27  106 1    
    56   28   29 2    
    57   28   30 1    
    58   30   31 1    
    59   30   32 1    
    60   30  107 1    
    61   31  108 1    
    62   31  109 1    
    63   31  110 1    
    64   32   33 am   BACKBONE|DICT|INTERRES
    65   32  111 1    
    66   33   34 2    
    67   33   35 1    
    68   35   36 1    
    69   35   37 1    
    70   35  112 1    
    71   36  113 1    
    72   36  114 1    
    73   36  115 1    
    74   37   38 am   BACKBONE|DICT|INTERRES
    75   37  116 1    
    76   38   39 2    
    77   38   40 1    
    78   40   41 1    
    79   40   42 1    
    80   40  117 1    
    81   41  118 1    
    82   41  119 1    
    83   41  120 1    
    84   42   43 am   BACKBONE|DICT|INTERRES
    85   42  121 1    
    86   43   44 2    
    87   43   45 1    
    88   45   46 1    
    89   45   47 1    
    90   45  122 1    
    91   46  123 1    
    92   46  124 1    
    93   46  125 1    
    94   47   48 am   BACKBONE|DICT|INTERRES
    95   47  126 1    
    96   48   49 2    
    97   48   50 1    
    98   50   51 1    
    99   50   52 1    
   100   50  127 1    
   101   51  128 1    
   102   51  129 1    
   103   51  130 1    
   104   52   53 am   BACKBONE|DICT|INTERRES
   105   52  131 1    
   106   53   54 2    
   107   53   55 1    
   108   55   56 1    
   109   55   59 1    
   110   55  132 1    
   111   56   57 1    
   112   56  133 1    
   113   56  134 1    
   114   57   58 1    
   115   58  135 1    
   116   58  136 1    
   117   59   60 am   BACKBONE|DICT|INTERRES
   118   59  137 1    
   119   60   61 2    
   120   60   62 1    
   121   62   63 1    
   122   62   64 1    
   123   62  138 1    
   124   63  139 1    
   125   63  140 1    
   126   63  141 1    
   127   64   65 am   BACKBONE|DICT|INTERRES
   128   64  142 1    
   129   65   66 2    
   130   65   67 1    
   131   67   68 1    
   132   67   69 1    
   133   67  143 1    
   134   68  144 1    
   135   68  145 1    
   136   68  146 1    
   137   69   70 am   BACKBONE|DICT|INTERRES
   138   69  147 1    
   139   70   71 2    
   140   70   72 1    
   141   72   73 1    
   142   72   74 1    
   143   72  148 1    
   144   73  149 1    
   145   73  150 1    
   146   73  151 1    
   147   74   75 am   BACKBONE|DICT|INTERRES
   148   74  152 1    
   149   75   76 2    
   150   75   77 1    
   151   77   78 1    
   152   77   79 1    
   153   77  153 1    
   154   78  154 1    
   155   78  155 1    
   156   78  156 1    
   157   79   80 am   BACKBONE|DICT|INTERRES
   158   79  157 1    
   159   80   81 2    
@<TRIPOS>SUBSTRUCTURE
     1 UNK         1 GROUP             0       ****    0 ROOT    
