@<TRIPOS>MOLECULE
3R207
157   159    1
SMALL
USER_CHARGES


@<TRIPOS>ATOM
      1 CA        -52.9134  -23.3081    8.2962 C.3       0 UNK        -0.1975 
      2 C         -52.1357  -24.5978    8.0819 C.2       0 UNK         0.4852 
      3 O         -51.1203  -24.8110    8.7430 O.2       0 UNK        -0.5216 
      4 N         -52.6095  -25.4642    7.1747 N.am      1 UNK        -0.4461 
      5 CA        -51.9607  -26.7327    6.8343 C.3       1 UNK         0.0864 
      6 C6        -52.8494  -27.6401    5.9384 C.3       14 UNK        -0.0898 
      7 S7        -54.3676  -28.2451    6.7532 S.3       14 UNK        -0.2598 
      8 C8        -54.1074  -30.0545    6.8439 C.3       14 UNK         0.0286 
      9 C9        -53.4055  -30.4811    8.1286 C.ar      14 UNK        -0.0844 
     10 C10       -52.1049  -30.0518    8.3906 C.ar      14 UNK        -0.0881 
     11 C11       -51.4741  -30.3676    9.5941 C.ar      14 UNK        -0.0643 
     12 C12       -52.1225  -31.1976   10.5118 C.ar      14 UNK        -0.0930 
     13 C13       -53.4046  -31.6895   10.2435 C.ar      14 UNK        -0.0827 
     14 C14       -54.0456  -31.3130    9.0543 C.ar      14 UNK        -0.1249 
     15 C15       -54.0422  -32.6863   11.2094 C.3       14 UNK         0.0141 
     16 S16       -55.8278  -32.4373   11.4858 S.3       14 UNK        -0.2313 
     17 C17       -55.8815  -31.3599   12.9568 C.3       14 UNK        -0.0915 
     18 CA        -56.5583  -29.9983   12.6411 C.3       13 UNK         0.0968 
     19 C         -57.2419  -29.3563   13.8857 C.2       13 UNK         0.5732 
     20 N         -57.1171  -28.0575   14.1353 N.am      13 UNK        -0.7310 
     21 O         -57.9385  -30.0434   14.6297 O.2       13 UNK        -0.5035 
     22 N         -55.6132  -29.0893   11.9817 N.am      13 UNK        -0.4233 
     23 C         -55.8176  -28.4636   10.8168 C.2       13 UNK         0.4989 
     24 O         -56.7958  -28.6696   10.0957 O.2       13 UNK        -0.4996 
     25 CA        -54.7677  -27.4120   10.3901 C.3       12 UNK         0.0216 
     26 CB        -55.4063  -26.2641    9.5757 C.3       12 UNK        -0.1964 
     27 N         -53.9759  -26.8653   11.5034 N.am      12 UNK        -0.4276 
     28 C         -54.4506  -26.1905   12.5618 C.2       12 UNK         0.5020 
     29 O         -55.6457  -25.9449   12.7373 O.2       12 UNK        -0.5489 
     30 CA        -53.4203  -25.7702   13.6239 C.3       11 UNK         0.0294 
     31 CB        -54.0782  -25.2463   14.9175 C.3       11 UNK        -0.2019 
     32 N         -52.4466  -26.8180   13.9511 N.am      11 UNK        -0.4493 
     33 C         -52.7040  -28.0606   14.3879 C.2       11 UNK         0.4932 
     34 O         -53.8227  -28.5736   14.3932 O.2       11 UNK        -0.5029 
     35 CA        -51.5131  -28.8798   14.9158 C.3       10 UNK         0.0280 
     36 CB        -51.0308  -29.8712   13.8478 C.3       10 UNK        -0.1976 
     37 N         -50.3820  -28.0634   15.3671 N.am      10 UNK        -0.4242 
     38 C         -50.3812  -27.2521   16.4349 C.2       10 UNK         0.5072 
     39 O         -51.3444  -27.1044   17.1879 O.2       10 UNK        -0.5224 
     40 CA        -49.0826  -26.4855   16.7196 C.3       9 UNK         0.0343 
     41 CB        -47.8179  -27.3112   16.4115 C.3       9 UNK        -0.2003 
     42 N         -49.0477  -25.2400   15.9503 N.am      9 UNK        -0.4272 
     43 C         -48.8908  -24.0188   16.4817 C.2       9 UNK         0.4988 
     44 O         -48.8395  -23.8103   17.6952 O.2       9 UNK        -0.5108 
     45 CA        -48.7176  -22.8140   15.5334 C.3       8 UNK         0.0248 
     46 CB        -47.2868  -22.2584   15.6400 C.3       8 UNK        -0.2001 
     47 N         -48.9985  -23.1003   14.1259 N.am      8 UNK        -0.4140 
     48 C         -50.2223  -23.1706   13.5871 C.2       8 UNK         0.5028 
     49 O         -51.2617  -22.9756   14.2169 O.2       8 UNK        -0.5428 
     50 CA        -50.3015  -23.5535   12.0963 C.3       7 UNK         0.0264 
     51 CB        -50.1671  -22.3022   11.2159 C.3       7 UNK        -0.1988 
     52 N         -49.3230  -24.5655   11.6773 N.am      7 UNK        -0.4454 
     53 C         -49.1698  -25.7711   12.2476 C.2       7 UNK         0.5027 
     54 O         -49.7815  -26.1336   13.2525 O.2       7 UNK        -0.5083 
     55 CA        -48.1386  -26.7279   11.6187 C.3       6 UNK         0.0844 
     56 C56       -48.6140  -27.3665   10.2846 C.3       14 UNK        -0.0967 
     57 S57       -50.3256  -28.0059   10.2986 S.3       14 UNK        -0.2604 
     58 C58       -50.1135  -29.7658    9.9008 C.3       14 UNK         0.0134 
     59 N         -46.8688  -26.0167   11.4687 N.am      6 UNK        -0.4116 
     60 C         -45.9990  -25.8012   12.4669 C.2       5 UNK         0.5034 
     61 O         -46.0968  -26.3091   13.5829 O.2       5 UNK        -0.5045 
     62 CA        -44.8281  -24.8403   12.1885 C.3       5 UNK         0.0224 
     63 CB        -43.5918  -25.6226   11.7172 C.3       5 UNK        -0.1978 
     64 N         -45.1434  -23.7985   11.2068 N.am      5 UNK        -0.4737 
     65 C         -46.0548  -22.8300   11.3797 C.2       4 UNK         0.5027 
     66 O         -46.6969  -22.6737   12.4170 O.2       4 UNK        -0.5211 
     67 CA        -46.3381  -21.9224   10.1667 C.3       4 UNK         0.0297 
     68 CB        -45.4163  -20.6936   10.1927 C.3       4 UNK        -0.1993 
     69 N         -46.2130  -22.6051    8.8720 N.am      4 UNK        -0.4486 
     70 C         -46.8820  -23.7107    8.5162 C.2       3 UNK         0.4961 
     71 O         -47.7122  -24.2706    9.2375 O.2       3 UNK        -0.5105 
     72 CA        -46.4944  -24.3395    7.1733 C.3       3 UNK         0.0299 
     73 CB        -45.0290  -24.8324    7.2269 C.3       3 UNK        -0.1972 
     74 N         -47.3998  -25.4559    6.9022 N.am      3 UNK        -0.4305 
     75 C         -47.4331  -26.1894    5.7838 C.2       2 UNK         0.5006 
     76 O         -46.7628  -25.9421    4.7802 O.2       2 UNK        -0.5106 
     77 CA        -48.3340  -27.4361    5.7838 C.3       2 UNK         0.0296 
     78 CB        -47.5691  -28.6435    6.3523 C.3       2 UNK        -0.2002 
     79 N         -49.6009  -27.2940    6.5047 N.am      2 UNK        -0.4032 
     80 C         -50.6090  -26.4957    6.1286 C.2       1 UNK         0.5000 
     81 O         -50.5336  -25.6693    5.2153 O.2       1 UNK        -0.5238 
     82 H82       -53.2095  -23.2203    9.3412 H         1 UNK         0.0889 
     83 H83       -53.8133  -23.2672    7.6828 H         1 UNK         0.0889 
     84 H84       -52.2899  -22.4503    8.0459 H         1 UNK         0.0889 
     85 H85       -53.4393  -25.2395    6.6456 H         1 UNK         0.3028 
     86 H86       -51.7734  -27.2427    7.7795 H         1 UNK         0.0864 
     87 H87       -52.2832  -28.5021    5.5812 H         1 UNK         0.0720 
     88 H88       -53.1493  -27.0995    5.0385 H         1 UNK         0.0720 
     89 H89       -53.5443  -30.4054    5.9783 H         1 UNK         0.0814 
     90 H90       -55.0847  -30.5350    6.7780 H         1 UNK         0.0814 
     91 H91       -51.5887  -29.4414    7.6690 H         1 UNK         0.1469 
     92 H92       -51.6195  -31.4740   11.4271 H         1 UNK         0.1381 
     93 H93       -55.0399  -31.6809    8.8419 H         1 UNK         0.1206 
     94 H94       -53.5232  -32.6912   12.1690 H         1 UNK         0.0813 
     95 H95       -53.9047  -33.6840   10.7909 H         1 UNK         0.0813 
     96 H96       -56.4348  -31.9166   13.7148 H         1 UNK         0.0638 
     97 H97       -54.8818  -31.2101   13.3680 H         1 UNK         0.0638 
     98 H98       -57.3969  -30.1968   11.9718 H         1 UNK         0.0568 
     99 H99       -56.5689  -27.4484   13.5355 H         1 UNK         0.3450 
    100 H100      -57.5804  -27.6724   14.9417 H         1 UNK         0.3450 
    101 H101      -54.8184  -28.8240   12.5517 H         1 UNK         0.2987 
    102 H102      -54.0609  -27.9341    9.7438 H         1 UNK         0.0766 
    103 H103      -55.8826  -26.6378    8.6695 H         1 UNK         0.0798 
    104 H104      -56.1751  -25.7409   10.1447 H         1 UNK         0.0798 
    105 H105      -54.6620  -25.5320    9.2709 H         1 UNK         0.0798 
    106 H106      -52.9823  -27.0530   11.4689 H         1 UNK         0.3198 
    107 H107      -52.8595  -24.9456   13.1892 H         1 UNK         0.0843 
    108 H108      -54.6871  -26.0123   15.3992 H         1 UNK         0.0831 
    109 H109      -54.7262  -24.3937   14.7111 H         1 UNK         0.0831 
    110 H110      -53.3267  -24.9138   15.6341 H         1 UNK         0.0831 
    111 H111      -51.4681  -26.5416   13.8891 H         1 UNK         0.3133 
    112 H112      -51.8700  -29.4526   15.7742 H         1 UNK         0.0566 
    113 H113      -50.6592  -29.3575   12.9611 H         1 UNK         0.0814 
    114 H114      -50.2346  -30.5119   14.2267 H         1 UNK         0.0814 
    115 H115      -51.8481  -30.5219   13.5352 H         1 UNK         0.0814 
    116 H116      -49.5598  -28.0716   14.7812 H         1 UNK         0.3091 
    117 H117      -49.0799  -26.2769   17.7914 H         1 UNK         0.0702 
    118 H118      -46.9213  -26.7869   16.7424 H         1 UNK         0.0785 
    119 H119      -47.7019  -27.5101   15.3460 H         1 UNK         0.0785 
    120 H120      -47.8391  -28.2715   16.9285 H         1 UNK         0.0785 
    121 H121      -49.1591  -25.3327   14.9455 H         1 UNK         0.2998 
    122 H122      -49.4068  -22.0373   15.8714 H         1 UNK         0.0697 
    123 H123      -46.5470  -22.9914   15.3150 H         1 UNK         0.0825 
    124 H124      -47.0453  -21.9824   16.6674 H         1 UNK         0.0825 
    125 H125      -47.1616  -21.3650   15.0278 H         1 UNK         0.0825 
    126 H126      -48.1933  -23.2002   13.5115 H         1 UNK         0.3029 
    127 H127      -51.2855  -23.9825   11.9072 H         1 UNK         0.0897 
    128 H128      -49.2586  -21.7476   11.4465 H         1 UNK         0.0792 
    129 H129      -51.0065  -21.6251   11.3782 H         1 UNK         0.0792 
    130 H130      -50.1533  -22.5553   10.1553 H         1 UNK         0.0792 
    131 H131      -48.8007  -24.3663   10.8279 H         1 UNK         0.3086 
    132 H132      -47.9941  -27.5477   12.3260 H         1 UNK         0.0583 
    133 H133      -48.5710  -26.6351    9.4795 H         1 UNK         0.1020 
    134 H134      -47.9253  -28.1627    9.9989 H         1 UNK         0.1020 
    135 H135      -49.4571  -29.8797    9.0368 H         1 UNK         0.0694 
    136 H136      -49.6332  -30.2768   10.7365 H         1 UNK         0.0694 
    137 H137      -46.7500  -25.4970   10.6085 H         1 UNK         0.2989 
    138 H138      -44.5856  -24.3464   13.1324 H         1 UNK         0.1055 
    139 H139      -43.3180  -26.3917   12.4411 H         1 UNK         0.0806 
    140 H140      -42.7276  -24.9681   11.6020 H         1 UNK         0.0806 
    141 H141      -43.7667  -26.1211   10.7628 H         1 UNK         0.0806 
    142 H142      -44.6575  -23.8405   10.3230 H         1 UNK         0.3061 
    143 H143      -47.3673  -21.5732   10.2467 H         1 UNK         0.0734 
    144 H144      -44.3675  -20.9707   10.0793 H         1 UNK         0.0832 
    145 H145      -45.6673  -19.9905    9.3983 H         1 UNK         0.0832 
    146 H146      -45.5105  -20.1568   11.1379 H         1 UNK         0.0832 
    147 H147      -45.5488  -22.2130    8.2196 H         1 UNK         0.3156 
    148 H148      -46.6118  -23.5884    6.3900 H         1 UNK         0.0589 
    149 H149      -44.8917  -25.6005    7.9893 H         1 UNK         0.0808 
    150 H150      -44.7058  -25.2518    6.2747 H         1 UNK         0.0808 
    151 H151      -44.3375  -24.0202    7.4532 H         1 UNK         0.0808 
    152 H152      -48.0360  -25.6596    7.6629 H         1 UNK         0.3098 
    153 H153      -48.5771  -27.6548    4.7415 H         1 UNK         0.0720 
    154 H154      -48.1477  -29.5627    6.2579 H         1 UNK         0.0791 
    155 H155      -47.3216  -28.5075    7.4058 H         1 UNK         0.0791 
    156 H156      -46.6315  -28.7986    5.8163 H         1 UNK         0.0791 
    157 H157      -49.7438  -27.9211    7.2817 H         1 UNK         0.3028 
@<TRIPOS>BOND
     1    1    2 1    
     2    1   82 1    
     3    1   83 1    
     4    1   84 1    
     5    2    3 2    
     6    2    4 am   BACKBONE|DICT|INTERRES
     7    4    5 1    
     8    4   85 1    
     9    5    6 1    
    10    5   80 1    
    11    5   86 1    
    12    6    7 1    
    13    6   87 1    
    14    6   88 1    
    15    7    8 1    
    16    8    9 1    
    17    8   89 1    
    18    8   90 1    
    19    9   10 ar   
    20    9   14 ar   
    21   10   11 ar   
    22   10   91 1    
    23   11   12 ar   
    24   11   58 1    
    25   12   13 ar   
    26   12   92 1    
    27   13   14 ar   
    28   13   15 1    
    29   14   93 1    
    30   15   16 1    
    31   15   94 1    
    32   15   95 1    
    33   16   17 1    
    34   17   18 1    
    35   17   96 1    
    36   17   97 1    
    37   18   19 1    
    38   18   22 1    
    39   18   98 1    
    40   19   20 am   BACKBONE|DICT|INTERRES
    41   19   21 2    
    42   20   99 1    
    43   20  100 1    
    44   22   23 am   BACKBONE|DICT|INTERRES
    45   22  101 1    
    46   23   24 2    
    47   23   25 1    
    48   25   26 1    
    49   25   27 1    
    50   25  102 1    
    51   26  103 1    
    52   26  104 1    
    53   26  105 1    
    54   27   28 am   BACKBONE|DICT|INTERRES
    55   27  106 1    
    56   28   29 2    
    57   28   30 1    
    58   30   31 1    
    59   30   32 1    
    60   30  107 1    
    61   31  108 1    
    62   31  109 1    
    63   31  110 1    
    64   32   33 am   BACKBONE|DICT|INTERRES
    65   32  111 1    
    66   33   34 2    
    67   33   35 1    
    68   35   36 1    
    69   35   37 1    
    70   35  112 1    
    71   36  113 1    
    72   36  114 1    
    73   36  115 1    
    74   37   38 am   BACKBONE|DICT|INTERRES
    75   37  116 1    
    76   38   39 2    
    77   38   40 1    
    78   40   41 1    
    79   40   42 1    
    80   40  117 1    
    81   41  118 1    
    82   41  119 1    
    83   41  120 1    
    84   42   43 am   BACKBONE|DICT|INTERRES
    85   42  121 1    
    86   43   44 2    
    87   43   45 1    
    88   45   46 1    
    89   45   47 1    
    90   45  122 1    
    91   46  123 1    
    92   46  124 1    
    93   46  125 1    
    94   47   48 am   BACKBONE|DICT|INTERRES
    95   47  126 1    
    96   48   49 2    
    97   48   50 1    
    98   50   51 1    
    99   50   52 1    
   100   50  127 1    
   101   51  128 1    
   102   51  129 1    
   103   51  130 1    
   104   52   53 am   BACKBONE|DICT|INTERRES
   105   52  131 1    
   106   53   54 2    
   107   53   55 1    
   108   55   56 1    
   109   55   59 1    
   110   55  132 1    
   111   56   57 1    
   112   56  133 1    
   113   56  134 1    
   114   57   58 1    
   115   58  135 1    
   116   58  136 1    
   117   59   60 am   BACKBONE|DICT|INTERRES
   118   59  137 1    
   119   60   61 2    
   120   60   62 1    
   121   62   63 1    
   122   62   64 1    
   123   62  138 1    
   124   63  139 1    
   125   63  140 1    
   126   63  141 1    
   127   64   65 am   BACKBONE|DICT|INTERRES
   128   64  142 1    
   129   65   66 2    
   130   65   67 1    
   131   67   68 1    
   132   67   69 1    
   133   67  143 1    
   134   68  144 1    
   135   68  145 1    
   136   68  146 1    
   137   69   70 am   BACKBONE|DICT|INTERRES
   138   69  147 1    
   139   70   71 2    
   140   70   72 1    
   141   72   73 1    
   142   72   74 1    
   143   72  148 1    
   144   73  149 1    
   145   73  150 1    
   146   73  151 1    
   147   74   75 am   BACKBONE|DICT|INTERRES
   148   74  152 1    
   149   75   76 2    
   150   75   77 1    
   151   77   78 1    
   152   77   79 1    
   153   77  153 1    
   154   78  154 1    
   155   78  155 1    
   156   78  156 1    
   157   79   80 am   BACKBONE|DICT|INTERRES
   158   79  157 1    
   159   80   81 2    
@<TRIPOS>SUBSTRUCTURE
     1 UNK         1 GROUP             0       ****    0 ROOT    
