@<TRIPOS>MOLECULE
3R207
157   159    1
SMALL
USER_CHARGES


@<TRIPOS>ATOM
      1 CA        -51.6196  -26.7347    0.5337 C.3       0 UNK        -0.1975 
      2 C         -51.1071  -26.6738    1.9653 C.2       0 UNK         0.4852 
      3 O         -51.1882  -25.6205    2.5992 O.2       0 UNK        -0.5216 
      4 N         -50.5885  -27.7961    2.4806 N.am      1 UNK        -0.4461 
      5 CA        -49.9854  -27.9018    3.8126 C.3       1 UNK         0.0864 
      6 C6        -49.9290  -29.3796    4.2798 C.3       14 UNK        -0.0898 
      7 S7        -49.9503  -29.5241    6.0964 S.3       14 UNK        -0.2598 
      8 C8        -51.7408  -29.5318    6.4237 C.3       14 UNK         0.0286 
      9 C9        -52.0910  -28.6658    7.6240 C.ar      14 UNK        -0.0844 
     10 C10       -52.1004  -27.2743    7.5009 C.ar      14 UNK        -0.0881 
     11 C11       -52.4559  -26.4610    8.5812 C.ar      14 UNK        -0.0643 
     12 C12       -52.8215  -27.0571    9.7952 C.ar      14 UNK        -0.0930 
     13 C13       -52.8332  -28.4519    9.9259 C.ar      14 UNK        -0.0827 
     14 C14       -52.4510  -29.2485    8.8416 C.ar      14 UNK        -0.1249 
     15 C15       -53.3226  -29.1136   11.2075 C.3       14 UNK         0.0141 
     16 S16       -51.9922  -29.3225   12.4306 S.3       14 UNK        -0.2313 
     17 C17       -52.5183  -30.8504   13.2784 C.3       14 UNK        -0.0915 
     18 CA        -53.7745  -30.6714   14.1834 C.3       13 UNK         0.0968 
     19 C         -54.4594  -32.0203   14.5701 C.2       13 UNK         0.5732 
     20 N         -55.2003  -32.0888   15.6712 N.am      13 UNK        -0.7310 
     21 O         -54.3516  -33.0128   13.8534 O.2       13 UNK        -0.5035 
     22 N         -53.5703  -29.7597   15.3248 N.am      13 UNK        -0.4233 
     23 C         -52.8102  -29.9947   16.4074 C.2       13 UNK         0.4989 
     24 O         -52.0291  -30.9425   16.4979 O.2       13 UNK        -0.4996 
     25 CA        -52.9834  -29.0594   17.6260 C.3       12 UNK         0.0216 
     26 CB        -51.6523  -28.5331   18.1965 C.3       12 UNK        -0.1964 
     27 N         -53.9136  -27.9464   17.3952 N.am      12 UNK        -0.4276 
     28 C         -55.2457  -28.0660   17.4988 C.2       12 UNK         0.5020 
     29 O         -55.8136  -29.1099   17.8238 O.2       12 UNK        -0.5489 
     30 CA        -56.0933  -26.8369   17.1356 C.3       11 UNK         0.0294 
     31 CB        -56.0911  -25.8190   18.2874 C.3       11 UNK        -0.2019 
     32 N         -55.6803  -26.1687   15.8997 N.am      11 UNK        -0.4493 
     33 C         -55.5639  -26.7188   14.6841 C.2       11 UNK         0.4932 
     34 O         -55.7516  -27.9129   14.4566 O.2       11 UNK        -0.5029 
     35 CA        -55.1455  -25.7981   13.5200 C.3       10 UNK         0.0280 
     36 CB        -56.3749  -25.1581   12.8485 C.3       10 UNK        -0.1976 
     37 N         -54.1330  -24.7920   13.8709 N.am      10 UNK        -0.4242 
     38 C         -54.2185  -23.7594   14.7245 C.2       10 UNK         0.5072 
     39 O         -55.2539  -23.4349   15.3088 O.2       10 UNK        -0.5224 
     40 CA        -52.9013  -23.0186   15.0221 C.3       9 UNK         0.0343 
     41 CB        -52.9433  -22.2301   16.3482 C.3       9 UNK        -0.2003 
     42 N         -51.7344  -23.9098   14.9843 N.am      9 UNK        -0.4272 
     43 C         -51.5024  -24.9930   15.7475 C.2       9 UNK         0.4988 
     44 O         -52.2774  -25.3989   16.6173 O.2       9 UNK        -0.5108 
     45 CA        -50.2324  -25.8182   15.4514 C.3       8 UNK         0.0248 
     46 CB        -50.6474  -27.1557   14.8233 C.3       8 UNK        -0.2001 
     47 N         -49.2831  -25.1768   14.5371 N.am      8 UNK        -0.4140 
     48 C         -48.5857  -24.0549   14.7721 C.2       8 UNK         0.5028 
     49 O         -48.5421  -23.4999   15.8703 O.2       8 UNK        -0.5428 
     50 CA        -47.8548  -23.4077   13.5738 C.3       7 UNK         0.0264 
     51 CB        -46.3482  -23.7047   13.6448 C.3       7 UNK        -0.1988 
     52 N         -48.3582  -23.8141   12.2539 N.am      7 UNK        -0.4454 
     53 C         -49.6280  -23.7250   11.8275 C.2       7 UNK         0.5027 
     54 O         -50.5139  -23.1537   12.4650 O.2       7 UNK        -0.5083 
     55 CA        -50.0116  -24.4665   10.5278 C.3       6 UNK         0.0844 
     56 C56       -50.2784  -23.4690    9.3789 C.3       14 UNK        -0.0967 
     57 S57       -50.9084  -24.2531    7.8569 S.3       14 UNK        -0.2604 
     58 C58       -52.5088  -24.9470    8.3977 C.3       14 UNK         0.0134 
     59 N         -49.0891  -25.5467   10.1513 N.am      6 UNK        -0.4116 
     60 C         -48.8545  -26.6382   10.8963 C.2       5 UNK         0.5034 
     61 O         -49.3247  -26.8109   12.0182 O.2       5 UNK        -0.5045 
     62 CA        -47.8873  -27.6799   10.3253 C.3       5 UNK         0.0224 
     63 CB        -48.5436  -28.4735    9.1859 C.3       5 UNK        -0.1978 
     64 N         -46.6628  -27.0306    9.8588 N.am      5 UNK        -0.4737 
     65 C         -45.6386  -26.7087   10.6628 C.2       4 UNK         0.5027 
     66 O         -45.5679  -27.0423   11.8453 O.2       4 UNK        -0.5211 
     67 CA        -44.5048  -25.8574   10.0617 C.3       4 UNK         0.0297 
     68 CB        -43.3682  -26.7597    9.5550 C.3       4 UNK        -0.1993 
     69 N         -44.9450  -24.9795    8.9752 N.am      4 UNK        -0.4486 
     70 C         -45.8116  -23.9649    9.1078 C.2       3 UNK         0.4961 
     71 O         -46.2986  -23.6137   10.1810 O.2       3 UNK        -0.5105 
     72 CA        -46.2524  -23.2596    7.8127 C.3       3 UNK         0.0299 
     73 CB        -45.3364  -22.0627    7.5137 C.3       3 UNK        -0.1972 
     74 N         -46.2996  -24.1487    6.6451 N.am      3 UNK        -0.4305 
     75 C         -47.0667  -25.2433    6.5514 C.2       2 UNK         0.5006 
     76 O         -47.8108  -25.6418    7.4513 O.2       2 UNK        -0.5106 
     77 CA        -46.9249  -26.0701    5.2729 C.3       2 UNK         0.0296 
     78 CB        -45.7839  -27.0949    5.4197 C.3       2 UNK        -0.2002 
     79 N         -48.1879  -26.7567    5.0267 N.am      2 UNK        -0.4032 
     80 C         -48.5941  -27.2319    3.8448 C.2       1 UNK         0.5000 
     81 O         -47.9137  -27.1773    2.8152 O.2       1 UNK        -0.5238 
     82 H82       -52.6776  -26.4757    0.5025 H         1 UNK         0.0889 
     83 H83       -51.0760  -26.0249   -0.0892 H         1 UNK         0.0889 
     84 H84       -51.5007  -27.7272    0.0995 H         1 UNK         0.0889 
     85 H85       -50.5126  -28.6181    1.8986 H         1 UNK         0.3028 
     86 H86       -50.6351  -27.3468    4.4931 H         1 UNK         0.0864 
     87 H87       -49.0439  -29.8881    3.8916 H         1 UNK         0.0720 
     88 H88       -50.7798  -29.9417    3.8905 H         1 UNK         0.0720 
     89 H89       -52.0696  -30.5609    6.5758 H         1 UNK         0.0814 
     90 H90       -52.2898  -29.1629    5.5561 H         1 UNK         0.0814 
     91 H91       -51.8384  -26.8181    6.5566 H         1 UNK         0.1469 
     92 H92       -53.1244  -26.4402   10.6294 H         1 UNK         0.1381 
     93 H93       -52.4620  -30.3257    8.9380 H         1 UNK         0.1206 
     94 H94       -53.7602  -30.0842   10.9689 H         1 UNK         0.0813 
     95 H95       -54.1262  -28.5252   11.6516 H         1 UNK         0.0813 
     96 H96       -52.6954  -31.5967   12.5023 H         1 UNK         0.0638 
     97 H97       -51.6774  -31.2274   13.8614 H         1 UNK         0.0638 
     98 H98       -54.5318  -30.1832   13.5709 H         1 UNK         0.0568 
     99 H99       -55.3286  -31.2787   16.2586 H         1 UNK         0.3450 
    100 H100      -55.6485  -32.9596   15.9080 H         1 UNK         0.3450 
    101 H101      -54.2076  -28.9728   15.3414 H         1 UNK         0.2987 
    102 H102      -53.4050  -29.6984   18.4051 H         1 UNK         0.0766 
    103 H103      -50.9131  -29.3300   18.2880 H         1 UNK         0.0798 
    104 H104      -51.7991  -28.1220   19.1954 H         1 UNK         0.0798 
    105 H105      -51.2115  -27.7462   17.5907 H         1 UNK         0.0798 
    106 H106      -53.5133  -27.0544   17.1171 H         1 UNK         0.3198 
    107 H107      -57.1188  -27.1810   16.9863 H         1 UNK         0.0843 
    108 H108      -56.7796  -24.9968   18.0912 H         1 UNK         0.0831 
    109 H109      -55.0995  -25.3933   18.4482 H         1 UNK         0.0831 
    110 H110      -56.4032  -26.2854   19.2230 H         1 UNK         0.0831 
    111 H111      -55.5273  -25.1642   15.9531 H         1 UNK         0.3133 
    112 H112      -54.6678  -26.4388   12.7779 H         1 UNK         0.0566 
    113 H113      -57.0689  -25.9244   12.5004 H         1 UNK         0.0814 
    114 H114      -56.9255  -24.5116   13.5323 H         1 UNK         0.0814 
    115 H115      -56.0881  -24.5630   11.9816 H         1 UNK         0.0814 
    116 H116      -53.2168  -24.9640   13.4826 H         1 UNK         0.3091 
    117 H117      -52.7652  -22.3010   14.2118 H         1 UNK         0.0702 
    118 H118      -52.0004  -21.7152   16.5324 H         1 UNK         0.0785 
    119 H119      -53.1420  -22.8811   17.2004 H         1 UNK         0.0785 
    120 H120      -53.7274  -21.4722   16.3286 H         1 UNK         0.0785 
    121 H121      -51.0658  -23.6915   14.2506 H         1 UNK         0.2998 
    122 H122      -49.7271  -26.0062   16.4004 H         1 UNK         0.0697 
    123 H123      -49.7958  -27.8229   14.6890 H         1 UNK         0.0825 
    124 H124      -51.3860  -27.6838   15.4194 H         1 UNK         0.0825 
    125 H125      -51.1081  -26.9955   13.8494 H         1 UNK         0.0825 
    126 H126      -49.2245  -25.5913   13.6109 H         1 UNK         0.3029 
    127 H127      -47.9987  -22.3286   13.6567 H         1 UNK         0.0897 
    128 H128      -45.7997  -23.1635   12.8736 H         1 UNK         0.0792 
    129 H129      -45.9330  -23.4025   14.6073 H         1 UNK         0.0792 
    130 H130      -46.1421  -24.7685   13.5185 H         1 UNK         0.0792 
    131 H131      -47.6728  -24.2025   11.6142 H         1 UNK         0.3086 
    132 H132      -50.9583  -24.9568   10.7586 H         1 UNK         0.0583 
    133 H133      -51.0006  -22.7100    9.6874 H         1 UNK         0.1020 
    134 H134      -49.3640  -22.9290    9.1290 H         1 UNK         0.1020 
    135 H135      -52.8477  -24.4496    9.3075 H         1 UNK         0.0694 
    136 H136      -53.2555  -24.7202    7.6355 H         1 UNK         0.0694 
    137 H137      -48.6781  -25.4889    9.2241 H         1 UNK         0.2989 
    138 H138      -47.6420  -28.3843   11.1238 H         1 UNK         0.1055 
    139 H139      -49.4260  -29.0057    9.5446 H         1 UNK         0.0806 
    140 H140      -48.8731  -27.8281    8.3721 H         1 UNK         0.0806 
    141 H141      -47.8624  -29.2161    8.7707 H         1 UNK         0.0806 
    142 H142      -46.6789  -26.6669    8.9137 H         1 UNK         0.3061 
    143 H143      -44.1121  -25.2252   10.8611 H         1 UNK         0.0734 
    144 H144      -42.5199  -26.1723    9.2032 H         1 UNK         0.0832 
    145 H145      -43.0017  -27.4082   10.3522 H         1 UNK         0.0832 
    146 H146      -43.6961  -27.4032    8.7375 H         1 UNK         0.0832 
    147 H147      -44.5959  -25.1872    8.0513 H         1 UNK         0.3156 
    148 H148      -47.2631  -22.8810    7.9748 H         1 UNK         0.0589 
    149 H149      -45.6923  -21.4945    6.6541 H         1 UNK         0.0808 
    150 H150      -45.3037  -21.3763    8.3613 H         1 UNK         0.0808 
    151 H151      -44.3119  -22.3768    7.3097 H         1 UNK         0.0808 
    152 H152      -45.7079  -23.9013    5.8643 H         1 UNK         0.3098 
    153 H153      -46.7144  -25.3960    4.4397 H         1 UNK         0.0720 
    154 H154      -44.8322  -26.6010    5.6193 H         1 UNK         0.0791 
    155 H155      -45.9720  -27.7901    6.2393 H         1 UNK         0.0791 
    156 H156      -45.6556  -27.6811    4.5096 H         1 UNK         0.0791 
    157 H157      -48.7884  -26.8242    5.8401 H         1 UNK         0.3028 
@<TRIPOS>BOND
     1    1    2 1    
     2    1   82 1    
     3    1   83 1    
     4    1   84 1    
     5    2    3 2    
     6    2    4 am   BACKBONE|DICT|INTERRES
     7    4    5 1    
     8    4   85 1    
     9    5    6 1    
    10    5   80 1    
    11    5   86 1    
    12    6    7 1    
    13    6   87 1    
    14    6   88 1    
    15    7    8 1    
    16    8    9 1    
    17    8   89 1    
    18    8   90 1    
    19    9   10 ar   
    20    9   14 ar   
    21   10   11 ar   
    22   10   91 1    
    23   11   12 ar   
    24   11   58 1    
    25   12   13 ar   
    26   12   92 1    
    27   13   14 ar   
    28   13   15 1    
    29   14   93 1    
    30   15   16 1    
    31   15   94 1    
    32   15   95 1    
    33   16   17 1    
    34   17   18 1    
    35   17   96 1    
    36   17   97 1    
    37   18   19 1    
    38   18   22 1    
    39   18   98 1    
    40   19   20 am   BACKBONE|DICT|INTERRES
    41   19   21 2    
    42   20   99 1    
    43   20  100 1    
    44   22   23 am   BACKBONE|DICT|INTERRES
    45   22  101 1    
    46   23   24 2    
    47   23   25 1    
    48   25   26 1    
    49   25   27 1    
    50   25  102 1    
    51   26  103 1    
    52   26  104 1    
    53   26  105 1    
    54   27   28 am   BACKBONE|DICT|INTERRES
    55   27  106 1    
    56   28   29 2    
    57   28   30 1    
    58   30   31 1    
    59   30   32 1    
    60   30  107 1    
    61   31  108 1    
    62   31  109 1    
    63   31  110 1    
    64   32   33 am   BACKBONE|DICT|INTERRES
    65   32  111 1    
    66   33   34 2    
    67   33   35 1    
    68   35   36 1    
    69   35   37 1    
    70   35  112 1    
    71   36  113 1    
    72   36  114 1    
    73   36  115 1    
    74   37   38 am   BACKBONE|DICT|INTERRES
    75   37  116 1    
    76   38   39 2    
    77   38   40 1    
    78   40   41 1    
    79   40   42 1    
    80   40  117 1    
    81   41  118 1    
    82   41  119 1    
    83   41  120 1    
    84   42   43 am   BACKBONE|DICT|INTERRES
    85   42  121 1    
    86   43   44 2    
    87   43   45 1    
    88   45   46 1    
    89   45   47 1    
    90   45  122 1    
    91   46  123 1    
    92   46  124 1    
    93   46  125 1    
    94   47   48 am   BACKBONE|DICT|INTERRES
    95   47  126 1    
    96   48   49 2    
    97   48   50 1    
    98   50   51 1    
    99   50   52 1    
   100   50  127 1    
   101   51  128 1    
   102   51  129 1    
   103   51  130 1    
   104   52   53 am   BACKBONE|DICT|INTERRES
   105   52  131 1    
   106   53   54 2    
   107   53   55 1    
   108   55   56 1    
   109   55   59 1    
   110   55  132 1    
   111   56   57 1    
   112   56  133 1    
   113   56  134 1    
   114   57   58 1    
   115   58  135 1    
   116   58  136 1    
   117   59   60 am   BACKBONE|DICT|INTERRES
   118   59  137 1    
   119   60   61 2    
   120   60   62 1    
   121   62   63 1    
   122   62   64 1    
   123   62  138 1    
   124   63  139 1    
   125   63  140 1    
   126   63  141 1    
   127   64   65 am   BACKBONE|DICT|INTERRES
   128   64  142 1    
   129   65   66 2    
   130   65   67 1    
   131   67   68 1    
   132   67   69 1    
   133   67  143 1    
   134   68  144 1    
   135   68  145 1    
   136   68  146 1    
   137   69   70 am   BACKBONE|DICT|INTERRES
   138   69  147 1    
   139   70   71 2    
   140   70   72 1    
   141   72   73 1    
   142   72   74 1    
   143   72  148 1    
   144   73  149 1    
   145   73  150 1    
   146   73  151 1    
   147   74   75 am   BACKBONE|DICT|INTERRES
   148   74  152 1    
   149   75   76 2    
   150   75   77 1    
   151   77   78 1    
   152   77   79 1    
   153   77  153 1    
   154   78  154 1    
   155   78  155 1    
   156   78  156 1    
   157   79   80 am   BACKBONE|DICT|INTERRES
   158   79  157 1    
   159   80   81 2    
@<TRIPOS>SUBSTRUCTURE
     1 UNK         1 GROUP             0       ****    0 ROOT    
