@<TRIPOS>MOLECULE
3R207
157   159    1
SMALL
USER_CHARGES


@<TRIPOS>ATOM
      1 CA        -50.7410  -21.3936    6.7123 C.3       0 UNK        -0.1975 
      2 C         -50.8331  -22.8992    6.9119 C.2       0 UNK         0.4852 
      3 O         -50.0915  -23.4535    7.7236 O.2       0 UNK        -0.5216 
      4 N         -51.7438  -23.5615    6.1867 N.am      1 UNK        -0.4461 
      5 CA        -51.9339  -25.0144    6.2225 C.3       1 UNK         0.0864 
      6 C6        -53.3246  -25.4340    5.6804 C.3       14 UNK        -0.0898 
      7 S7        -54.7253  -24.9008    6.7210 S.3       14 UNK        -0.2598 
      8 C8        -54.4640  -25.7499    8.3215 C.3       14 UNK         0.0286 
      9 C9        -53.8821  -27.1561    8.2043 C.ar      14 UNK        -0.0844 
     10 C10       -52.6109  -27.4276    8.7176 C.ar      14 UNK        -0.0881 
     11 C11       -52.0492  -28.7033    8.6141 C.ar      14 UNK        -0.0643 
     12 C12       -52.7765  -29.7150    7.9806 C.ar      14 UNK        -0.0930 
     13 C13       -54.0518  -29.4606    7.4642 C.ar      14 UNK        -0.0827 
     14 C14       -54.6039  -28.1821    7.5890 C.ar      14 UNK        -0.1249 
     15 C15       -54.8206  -30.5528    6.7342 C.3       14 UNK         0.0141 
     16 S16       -56.0206  -31.3953    7.8137 S.3       14 UNK        -0.2313 
     17 C17       -54.9245  -32.3719    8.8984 C.3       14 UNK        -0.0915 
     18 CA        -55.0398  -31.9784   10.3935 C.3       13 UNK         0.0968 
     19 C         -54.0979  -32.8609   11.2582 C.2       13 UNK         0.5732 
     20 N         -54.5772  -34.0049   11.7277 N.am      13 UNK        -0.7310 
     21 O         -52.9293  -32.5412   11.4669 O.2       13 UNK        -0.5035 
     22 N         -54.8366  -30.5366   10.6043 N.am      13 UNK        -0.4233 
     23 C         -55.0589  -29.9033   11.7604 C.2       13 UNK         0.4989 
     24 O         -55.4677  -30.4563   12.7865 O.2       13 UNK        -0.4996 
     25 CA        -54.8333  -28.3878   11.7682 C.3       12 UNK         0.0216 
     26 CB        -56.0294  -27.6503   11.1381 C.3       12 UNK        -0.1964 
     27 N         -54.6647  -27.9731   13.1568 N.am      12 UNK        -0.4276 
     28 C         -54.0680  -26.8586   13.5858 C.2       12 UNK         0.5020 
     29 O         -53.6465  -25.9757   12.8349 O.2       12 UNK        -0.5489 
     30 CA        -53.9190  -26.7233   15.1101 C.3       11 UNK         0.0294 
     31 CB        -53.1834  -27.9342   15.7182 C.3       11 UNK        -0.2019 
     32 N         -53.1539  -25.5235   15.4338 N.am      11 UNK        -0.4493 
     33 C         -53.4878  -24.5841   16.3243 C.2       11 UNK         0.4932 
     34 O         -54.5416  -24.5826   16.9639 O.2       11 UNK        -0.5029 
     35 CA        -52.4325  -23.4828   16.5517 C.3       10 UNK         0.0280 
     36 CB        -52.7886  -22.5151   17.7002 C.3       10 UNK        -0.1976 
     37 N         -51.0921  -24.0550   16.7306 N.am      10 UNK        -0.4242 
     38 C         -50.6840  -24.9027   17.6889 C.2       10 UNK         0.5072 
     39 O         -51.3609  -25.2134   18.6702 O.2       10 UNK        -0.5224 
     40 CA        -49.2967  -25.5521   17.5175 C.3       9 UNK         0.0343 
     41 CB        -49.4537  -27.0277   17.1130 C.3       9 UNK        -0.2003 
     42 N         -48.4430  -24.8801   16.5337 N.am      9 UNK        -0.4272 
     43 C         -47.8214  -23.7103   16.7393 C.2       9 UNK         0.4988 
     44 O         -47.8536  -23.0957   17.8060 O.2       9 UNK        -0.5108 
     45 CA        -47.0532  -23.1111   15.5482 C.3       8 UNK         0.0248 
     46 CB        -45.6519  -23.7333   15.4395 C.3       8 UNK        -0.2001 
     47 N         -47.7582  -23.2643   14.2725 N.am      8 UNK        -0.4140 
     48 C         -48.9465  -22.7165   13.9787 C.2       8 UNK         0.5028 
     49 O         -49.5701  -21.9776   14.7404 O.2       8 UNK        -0.5428 
     50 CA        -49.5746  -23.1021   12.6289 C.3       7 UNK         0.0264 
     51 CB        -48.9762  -22.2759   11.4786 C.3       7 UNK        -0.1988 
     52 N         -49.4470  -24.5315   12.3348 N.am      7 UNK        -0.4454 
     53 C         -50.0148  -25.5070   13.0609 C.2       7 UNK         0.5027 
     54 O         -50.7062  -25.3035   14.0576 O.2       7 UNK        -0.5083 
     55 CA        -49.7353  -26.9553   12.6190 C.3       6 UNK         0.0844 
     56 C56       -50.6296  -27.3137   11.4123 C.3       14 UNK        -0.0967 
     57 S57       -50.5707  -29.0773   10.9564 S.3       14 UNK        -0.2604 
     58 C58       -50.6431  -28.9799    9.1389 C.3       14 UNK         0.0134 
     59 N         -48.3101  -27.1545   12.3448 N.am      6 UNK        -0.4116 
     60 C         -47.3401  -27.0687   13.2678 C.2       5 UNK         0.5034 
     61 O         -47.5437  -26.8675   14.4647 O.2       5 UNK        -0.5045 
     62 CA        -45.8913  -27.1628   12.7600 C.3       5 UNK         0.0224 
     63 CB        -45.4616  -28.6314   12.6173 C.3       5 UNK        -0.1978 
     64 N         -45.6845  -26.4651   11.4874 N.am      5 UNK        -0.4737 
     65 C         -45.8916  -25.1550   11.2889 C.2       4 UNK         0.5027 
     66 O         -46.2203  -24.3772   12.1825 O.2       4 UNK        -0.5211 
     67 CA        -45.7445  -24.6219    9.8534 C.3       4 UNK         0.0297 
     68 CB        -44.3942  -23.9082    9.6853 C.3       4 UNK        -0.1993 
     69 N         -45.8843  -25.6519    8.8185 N.am      4 UNK        -0.4486 
     70 C         -47.0080  -26.3333    8.5612 C.2       3 UNK         0.4961 
     71 O         -48.0633  -26.1996    9.1868 O.2       3 UNK        -0.5105 
     72 CA        -46.9127  -27.3894    7.4596 C.3       3 UNK         0.0299 
     73 CB        -46.5483  -28.7605    8.0608 C.3       3 UNK        -0.1972 
     74 N         -48.1972  -27.4636    6.7748 N.am      3 UNK        -0.4305 
     75 C         -48.3965  -27.9713    5.5527 C.2       2 UNK         0.5006 
     76 O         -47.4938  -28.4248    4.8478 O.2       2 UNK        -0.5106 
     77 CA        -49.8399  -28.0067    5.0209 C.3       2 UNK         0.0296 
     78 CB        -50.4097  -29.4317    5.1231 C.3       2 UNK        -0.2002 
     79 N         -50.7477  -27.0838    5.7064 N.am      2 UNK        -0.4032 
     80 C         -50.8195  -25.7668    5.4659 C.2       1 UNK         0.5000 
     81 O         -50.0924  -25.1750    4.6628 O.2       1 UNK        -0.5238 
     82 H82       -51.4734  -21.0320    5.9910 H         1 UNK         0.0889 
     83 H83       -49.7484  -21.1240    6.3529 H         1 UNK         0.0889 
     84 H84       -50.9129  -20.8792    7.6574 H         1 UNK         0.0889 
     85 H85       -52.3164  -23.0602    5.5232 H         1 UNK         0.3028 
     86 H86       -51.8553  -25.3151    7.2654 H         1 UNK         0.0864 
     87 H87       -53.4755  -25.0260    4.6793 H         1 UNK         0.0720 
     88 H88       -53.4045  -26.5161    5.5636 H         1 UNK         0.0720 
     89 H89       -55.4215  -25.8031    8.8399 H         1 UNK         0.0814 
     90 H90       -53.8243  -25.1215    8.9433 H         1 UNK         0.0814 
     91 H91       -52.0569  -26.6317    9.1905 H         1 UNK         0.1469 
     92 H92       -52.3402  -30.6987    7.8754 H         1 UNK         0.1381 
     93 H93       -55.5871  -27.9776    7.1870 H         1 UNK         0.1206 
     94 H94       -54.1361  -31.2857    6.3039 H         1 UNK         0.0813 
     95 H95       -55.3580  -30.1154    5.8915 H         1 UNK         0.0813 
     96 H96       -53.8925  -32.2896    8.5569 H         1 UNK         0.0638 
     97 H97       -55.1947  -33.4214    8.7679 H         1 UNK         0.0638 
     98 H98       -56.0641  -32.1899   10.7076 H         1 UNK         0.0568 
     99 H99       -53.9752  -34.5981   12.2768 H         1 UNK         0.3450 
    100 H100      -55.5299  -34.2839   11.5518 H         1 UNK         0.3450 
    101 H101      -54.5023  -30.0171    9.8043 H         1 UNK         0.2987 
    102 H102      -53.9203  -28.1671   11.2120 H         1 UNK         0.0766 
    103 H103      -55.8727  -26.5718   11.1339 H         1 UNK         0.0798 
    104 H104      -56.9548  -27.8504   11.6795 H         1 UNK         0.0798 
    105 H105      -56.1832  -27.9610   10.1042 H         1 UNK         0.0798 
    106 H106      -54.9665  -28.6765   13.8215 H         1 UNK         0.3198 
    107 H107      -54.9232  -26.6590   15.5344 H         1 UNK         0.0843 
    108 H108      -53.7573  -28.8543   15.6056 H         1 UNK         0.0831 
    109 H109      -53.0126  -27.7957   16.7862 H         1 UNK         0.0831 
    110 H110      -52.2125  -28.0915   15.2459 H         1 UNK         0.0831 
    111 H111      -52.2944  -25.4042   14.8960 H         1 UNK         0.3133 
    112 H112      -52.3917  -22.9002   15.6301 H         1 UNK         0.0566 
    113 H113      -52.0241  -21.7478   17.8217 H         1 UNK         0.0814 
    114 H114      -53.7315  -22.0051   17.4996 H         1 UNK         0.0814 
    115 H115      -52.8981  -23.0343   18.6527 H         1 UNK         0.0814 
    116 H116      -50.4583  -23.9018   15.9563 H         1 UNK         0.3091 
    117 H117      -48.7977  -25.5163   18.4882 H         1 UNK         0.0702 
    118 H118      -48.4876  -27.5303   17.0638 H         1 UNK         0.0785 
    119 H119      -49.9324  -27.1271   16.1381 H         1 UNK         0.0785 
    120 H120      -50.0655  -27.5713   17.8343 H         1 UNK         0.0785 
    121 H121      -48.3130  -25.3574   15.6473 H         1 UNK         0.2998 
    122 H122      -46.9378  -22.0412   15.7331 H         1 UNK         0.0697 
    123 H123      -45.7006  -24.8026   15.2309 H         1 UNK         0.0825 
    124 H124      -45.0940  -23.6058   16.3681 H         1 UNK         0.0825 
    125 H125      -45.0710  -23.2652   14.6445 H         1 UNK         0.0825 
    126 H126      -47.2857  -23.8091   13.5521 H         1 UNK         0.3029 
    127 H127      -50.6415  -22.8752   12.6876 H         1 UNK         0.0897 
    128 H128      -49.4534  -22.5139   10.5274 H         1 UNK         0.0792 
    129 H129      -49.1182  -21.2086   11.6537 H         1 UNK         0.0792 
    130 H130      -47.9052  -22.4459   11.3679 H         1 UNK         0.0792 
    131 H131      -48.8701  -24.7855   11.5450 H         1 UNK         0.3086 
    132 H132      -50.0082  -27.6080   13.4514 H         1 UNK         0.0583 
    133 H133      -51.6722  -27.0711   11.6183 H         1 UNK         0.1020 
    134 H134      -50.3350  -26.7043   10.5573 H         1 UNK         0.1020 
    135 H135      -49.9570  -28.2107    8.7875 H         1 UNK         0.0694 
    136 H136      -50.2683  -29.9212    8.7344 H         1 UNK         0.0694 
    137 H137      -48.0527  -27.2882   11.3768 H         1 UNK         0.2989 
    138 H138      -45.2522  -26.6869   13.5070 H         1 UNK         0.1055 
    139 H139      -45.5930  -29.1684   13.5579 H         1 UNK         0.0806 
    140 H140      -44.4090  -28.7125   12.3455 H         1 UNK         0.0806 
    141 H141      -46.0463  -29.1544   11.8592 H         1 UNK         0.0806 
    142 H142      -45.4003  -27.0248   10.6973 H         1 UNK         0.3061 
    143 H143      -46.5399  -23.8893    9.6999 H         1 UNK         0.0734 
    144 H144      -44.2775  -23.1164   10.4269 H         1 UNK         0.0832 
    145 H145      -43.5552  -24.5943    9.8080 H         1 UNK         0.0832 
    146 H146      -44.3093  -23.4426    8.7032 H         1 UNK         0.0832 
    147 H147      -45.0633  -25.8440    8.2615 H         1 UNK         0.3156 
    148 H148      -46.1451  -27.0856    6.7444 H         1 UNK         0.0589 
    149 H149      -47.3006  -29.0997    8.7744 H         1 UNK         0.0808 
    150 H150      -46.4553  -29.5233    7.2877 H         1 UNK         0.0808 
    151 H151      -45.5934  -28.7193    8.5860 H         1 UNK         0.0808 
    152 H152      -48.9660  -27.0464    7.2823 H         1 UNK         0.3098 
    153 H153      -49.8044  -27.7332    3.9639 H         1 UNK         0.0720 
    154 H154      -51.4256  -29.4856    4.7309 H         1 UNK         0.0791 
    155 H155      -50.4268  -29.7882    6.1530 H         1 UNK         0.0791 
    156 H156      -49.8046  -30.1343    4.5485 H         1 UNK         0.0791 
    157 H157      -51.4008  -27.4987    6.3569 H         1 UNK         0.3028 
@<TRIPOS>BOND
     1    1    2 1    
     2    1   82 1    
     3    1   83 1    
     4    1   84 1    
     5    2    3 2    
     6    2    4 am   BACKBONE|DICT|INTERRES
     7    4    5 1    
     8    4   85 1    
     9    5    6 1    
    10    5   80 1    
    11    5   86 1    
    12    6    7 1    
    13    6   87 1    
    14    6   88 1    
    15    7    8 1    
    16    8    9 1    
    17    8   89 1    
    18    8   90 1    
    19    9   10 ar   
    20    9   14 ar   
    21   10   11 ar   
    22   10   91 1    
    23   11   12 ar   
    24   11   58 1    
    25   12   13 ar   
    26   12   92 1    
    27   13   14 ar   
    28   13   15 1    
    29   14   93 1    
    30   15   16 1    
    31   15   94 1    
    32   15   95 1    
    33   16   17 1    
    34   17   18 1    
    35   17   96 1    
    36   17   97 1    
    37   18   19 1    
    38   18   22 1    
    39   18   98 1    
    40   19   20 am   BACKBONE|DICT|INTERRES
    41   19   21 2    
    42   20   99 1    
    43   20  100 1    
    44   22   23 am   BACKBONE|DICT|INTERRES
    45   22  101 1    
    46   23   24 2    
    47   23   25 1    
    48   25   26 1    
    49   25   27 1    
    50   25  102 1    
    51   26  103 1    
    52   26  104 1    
    53   26  105 1    
    54   27   28 am   BACKBONE|DICT|INTERRES
    55   27  106 1    
    56   28   29 2    
    57   28   30 1    
    58   30   31 1    
    59   30   32 1    
    60   30  107 1    
    61   31  108 1    
    62   31  109 1    
    63   31  110 1    
    64   32   33 am   BACKBONE|DICT|INTERRES
    65   32  111 1    
    66   33   34 2    
    67   33   35 1    
    68   35   36 1    
    69   35   37 1    
    70   35  112 1    
    71   36  113 1    
    72   36  114 1    
    73   36  115 1    
    74   37   38 am   BACKBONE|DICT|INTERRES
    75   37  116 1    
    76   38   39 2    
    77   38   40 1    
    78   40   41 1    
    79   40   42 1    
    80   40  117 1    
    81   41  118 1    
    82   41  119 1    
    83   41  120 1    
    84   42   43 am   BACKBONE|DICT|INTERRES
    85   42  121 1    
    86   43   44 2    
    87   43   45 1    
    88   45   46 1    
    89   45   47 1    
    90   45  122 1    
    91   46  123 1    
    92   46  124 1    
    93   46  125 1    
    94   47   48 am   BACKBONE|DICT|INTERRES
    95   47  126 1    
    96   48   49 2    
    97   48   50 1    
    98   50   51 1    
    99   50   52 1    
   100   50  127 1    
   101   51  128 1    
   102   51  129 1    
   103   51  130 1    
   104   52   53 am   BACKBONE|DICT|INTERRES
   105   52  131 1    
   106   53   54 2    
   107   53   55 1    
   108   55   56 1    
   109   55   59 1    
   110   55  132 1    
   111   56   57 1    
   112   56  133 1    
   113   56  134 1    
   114   57   58 1    
   115   58  135 1    
   116   58  136 1    
   117   59   60 am   BACKBONE|DICT|INTERRES
   118   59  137 1    
   119   60   61 2    
   120   60   62 1    
   121   62   63 1    
   122   62   64 1    
   123   62  138 1    
   124   63  139 1    
   125   63  140 1    
   126   63  141 1    
   127   64   65 am   BACKBONE|DICT|INTERRES
   128   64  142 1    
   129   65   66 2    
   130   65   67 1    
   131   67   68 1    
   132   67   69 1    
   133   67  143 1    
   134   68  144 1    
   135   68  145 1    
   136   68  146 1    
   137   69   70 am   BACKBONE|DICT|INTERRES
   138   69  147 1    
   139   70   71 2    
   140   70   72 1    
   141   72   73 1    
   142   72   74 1    
   143   72  148 1    
   144   73  149 1    
   145   73  150 1    
   146   73  151 1    
   147   74   75 am   BACKBONE|DICT|INTERRES
   148   74  152 1    
   149   75   76 2    
   150   75   77 1    
   151   77   78 1    
   152   77   79 1    
   153   77  153 1    
   154   78  154 1    
   155   78  155 1    
   156   78  156 1    
   157   79   80 am   BACKBONE|DICT|INTERRES
   158   79  157 1    
   159   80   81 2    
@<TRIPOS>SUBSTRUCTURE
     1 UNK         1 GROUP             0       ****    0 ROOT    
