@<TRIPOS>MOLECULE
3R207
157   159    1
SMALL
USER_CHARGES


@<TRIPOS>ATOM
      1 CA        -54.5199  -25.4810    8.7497 C.3       0 UNK        -0.1975 
      2 C         -53.1324  -26.0981    8.8254 C.2       0 UNK         0.4852 
      3 O         -52.5911  -26.2672    9.9156 O.2       0 UNK        -0.5216 
      4 N         -52.5473  -26.4125    7.6629 N.am      1 UNK        -0.4461 
      5 CA        -51.1886  -26.9498    7.5257 C.3       1 UNK         0.0864 
      6 C6        -50.9542  -27.4538    6.0774 C.3       14 UNK        -0.0898 
      7 S7        -49.4968  -28.5347    5.8889 S.3       14 UNK        -0.2598 
      8 C8        -50.2502  -30.1929    6.0025 C.3       14 UNK         0.0286 
      9 C9        -50.7925  -30.4619    7.3984 C.ar      14 UNK        -0.0844 
     10 C10       -49.9050  -30.6160    8.4660 C.ar      14 UNK        -0.0881 
     11 C11       -50.3822  -30.7857    9.7673 C.ar      14 UNK        -0.0643 
     12 C12       -51.7596  -30.8283    9.9941 C.ar      14 UNK        -0.0930 
     13 C13       -52.6612  -30.7095    8.9322 C.ar      14 UNK        -0.0827 
     14 C14       -52.1707  -30.5290    7.6331 C.ar      14 UNK        -0.1249 
     15 C15       -54.1575  -30.8071    9.2049 C.3       14 UNK         0.0141 
     16 S16       -55.0893  -29.3790    8.5615 S.3       14 UNK        -0.2313 
     17 C17       -56.7037  -29.6380    9.3778 C.3       14 UNK        -0.0915 
     18 CA        -57.2946  -28.3260    9.9696 C.3       13 UNK         0.0968 
     19 C         -58.7309  -28.5136   10.5488 C.2       13 UNK         0.5732 
     20 N         -59.1368  -27.7607   11.5644 N.am      13 UNK        -0.7310 
     21 O         -59.5065  -29.3264   10.0501 O.2       13 UNK        -0.5035 
     22 N         -56.3497  -27.6113   10.8481 N.am      13 UNK        -0.4233 
     23 C         -55.8930  -28.0090   12.0422 C.2       13 UNK         0.4989 
     24 O         -56.2650  -29.0286   12.6280 O.2       13 UNK        -0.4996 
     25 CA        -54.8768  -27.0521   12.6928 C.3       12 UNK         0.0216 
     26 CB        -55.5463  -25.7265   13.1008 C.3       12 UNK        -0.1964 
     27 N         -54.2075  -27.6079   13.8677 N.am      12 UNK        -0.4276 
     28 C         -53.3004  -28.5937   13.8662 C.2       12 UNK         0.5020 
     29 O         -52.9632  -29.2195   12.8608 O.2       12 UNK        -0.5489 
     30 CA        -52.6199  -28.8718   15.2191 C.3       11 UNK         0.0294 
     31 CB        -51.3667  -29.7580   15.0848 C.3       11 UNK        -0.2019 
     32 N         -52.2319  -27.5934   15.8158 N.am      11 UNK        -0.4493 
     33 C         -52.7431  -27.0491   16.9257 C.2       11 UNK         0.4932 
     34 O         -53.5542  -27.6215   17.6552 O.2       11 UNK        -0.5029 
     35 CA        -52.3127  -25.6010   17.2355 C.3       10 UNK         0.0280 
     36 CB        -52.5876  -25.1809   18.6954 C.3       10 UNK        -0.1976 
     37 N         -50.9284  -25.3132   16.8431 N.am      10 UNK        -0.4242 
     38 C         -49.8029  -25.8263   17.3643 C.2       10 UNK         0.5072 
     39 O         -49.7826  -26.6137   18.3115 O.2       10 UNK        -0.5224 
     40 CA        -48.4619  -25.4126   16.7204 C.3       9 UNK         0.0343 
     41 CB        -47.7755  -26.6338   16.0867 C.3       9 UNK        -0.2003 
     42 N         -48.5814  -24.3577   15.7082 N.am      9 UNK        -0.4272 
     43 C         -48.8219  -23.0640   15.9662 C.2       9 UNK         0.4988 
     44 O         -48.9162  -22.5974   17.1014 O.2       9 UNK        -0.5108 
     45 CA        -49.0291  -22.1420   14.7527 C.3       8 UNK         0.0248 
     46 CB        -47.6851  -21.5897   14.2499 C.3       8 UNK        -0.2001 
     47 N         -49.7315  -22.8116   13.6538 N.am      8 UNK        -0.4140 
     48 C         -51.0324  -23.1401   13.6683 C.2       8 UNK         0.5028 
     49 O         -51.7939  -22.8865   14.6015 O.2       8 UNK        -0.5428 
     50 CA        -51.5595  -23.9274   12.4547 C.3       7 UNK         0.0264 
     51 CB        -51.8550  -22.9832   11.2779 C.3       7 UNK        -0.1988 
     52 N         -50.6351  -24.9768   12.0216 N.am      7 UNK        -0.4454 
     53 C         -50.2733  -26.0272   12.7722 C.2       7 UNK         0.5027 
     54 O         -50.7250  -26.2490   13.8955 O.2       7 UNK        -0.5083 
     55 CA        -49.1628  -26.9393   12.2209 C.3       6 UNK         0.0844 
     56 C56       -49.7406  -28.1680   11.4901 C.3       14 UNK        -0.0967 
     57 S57       -48.4314  -29.3905   11.1483 S.3       14 UNK        -0.2604 
     58 C58       -49.4091  -30.9075   10.9296 C.3       14 UNK         0.0134 
     59 N         -48.1921  -26.2057   11.4023 N.am      6 UNK        -0.4116 
     60 C         -47.3424  -25.2852   11.8789 C.2       5 UNK         0.5034 
     61 O         -47.3597  -24.9006   13.0496 O.2       5 UNK        -0.5045 
     62 CA        -46.3390  -24.6538   10.8929 C.3       5 UNK         0.0224 
     63 CB        -44.9816  -24.3427   11.5571 C.3       5 UNK        -0.1978 
     64 N         -46.1629  -25.4122    9.6465 N.am      5 UNK        -0.4737 
     65 C         -45.6492  -26.6431    9.4853 C.2       4 UNK         0.5027 
     66 O         -45.1600  -27.3035   10.4013 O.2       4 UNK        -0.5211 
     67 CA        -45.7092  -27.2556    8.0711 C.3       4 UNK         0.0297 
     68 CB        -46.4113  -28.6241    8.0953 C.3       4 UNK        -0.1993 
     69 N         -46.4258  -26.3917    7.1309 N.am      4 UNK        -0.4486 
     70 C         -45.8531  -25.5693    6.2416 C.2       3 UNK         0.4961 
     71 O         -44.6386  -25.5016    6.0520 O.2       3 UNK        -0.5105 
     72 CA        -46.7895  -24.6429    5.4399 C.3       3 UNK         0.0299 
     73 CB        -47.1466  -25.2857    4.0901 C.3       3 UNK        -0.1972 
     74 N         -48.0262  -24.2970    6.1485 N.am      3 UNK        -0.4305 
     75 C         -48.0931  -23.6161    7.3027 C.2       2 UNK         0.5006 
     76 O         -47.1132  -23.1350    7.8697 O.2       2 UNK        -0.5106 
     77 CA        -49.4705  -23.5165    7.9832 C.3       2 UNK         0.0296 
     78 CB        -50.1638  -22.1950    7.6192 C.3       2 UNK        -0.2002 
     79 N         -50.3640  -24.6384    7.6767 N.am      2 UNK        -0.4032 
     80 C         -50.1172  -25.9268    7.9638 C.2       1 UNK         0.5000 
     81 O         -49.0990  -26.3052    8.5476 O.2       1 UNK        -0.5238 
     82 H82       -55.2585  -26.2375    8.4882 H         1 UNK         0.0889 
     83 H83       -54.5521  -24.6965    7.9941 H         1 UNK         0.0889 
     84 H84       -54.7944  -25.0339    9.7047 H         1 UNK         0.0889 
     85 H85       -53.0582  -26.2743    6.8025 H         1 UNK         0.3028 
     86 H86       -51.1133  -27.7996    8.2069 H         1 UNK         0.0864 
     87 H87       -50.8539  -26.6165    5.3844 H         1 UNK         0.0720 
     88 H88       -51.8273  -28.0114    5.7344 H         1 UNK         0.0720 
     89 H89       -49.4950  -30.9419    5.7600 H         1 UNK         0.0814 
     90 H90       -51.0336  -30.2930    5.2496 H         1 UNK         0.0814 
     91 H91       -48.8392  -30.5656    8.2896 H         1 UNK         0.1469 
     92 H92       -52.1302  -30.9550   11.0025 H         1 UNK         0.1381 
     93 H93       -52.8644  -30.4224    6.8103 H         1 UNK         0.1206 
     94 H94       -54.3367  -30.8859   10.2816 H         1 UNK         0.0813 
     95 H95       -54.5462  -31.7242    8.7540 H         1 UNK         0.0813 
     96 H96       -57.3787  -30.0602    8.6313 H         1 UNK         0.0638 
     97 H97       -56.6113  -30.3910   10.1618 H         1 UNK         0.0638 
     98 H98       -57.4469  -27.6516    9.1265 H         1 UNK         0.0568 
     99 H99       -60.0705  -27.8814   11.9239 H         1 UNK         0.3450 
    100 H100      -58.5176  -27.0857   11.9820 H         1 UNK         0.3450 
    101 H101      -56.0070  -26.7389   10.4791 H         1 UNK         0.2987 
    102 H102      -54.1030  -26.8388   11.9536 H         1 UNK         0.0766 
    103 H103      -54.8252  -25.0365   13.5400 H         1 UNK         0.0798 
    104 H104      -56.3426  -25.8855   13.8293 H         1 UNK         0.0798 
    105 H105      -55.9867  -25.2176   12.2427 H         1 UNK         0.0798 
    106 H106      -54.4370  -27.1875   14.7554 H         1 UNK         0.3198 
    107 H107      -53.3461  -29.3921   15.8470 H         1 UNK         0.0843 
    108 H108      -50.6092  -29.2915   14.4541 H         1 UNK         0.0831 
    109 H109      -51.6139  -30.7239   14.6425 H         1 UNK         0.0831 
    110 H110      -50.9160  -29.9522   16.0580 H         1 UNK         0.0831 
    111 H111      -51.6144  -27.0233   15.2356 H         1 UNK         0.3133 
    112 H112      -52.9309  -24.9679   16.5975 H         1 UNK         0.0566 
    113 H113      -52.2750  -24.1526   18.8776 H         1 UNK         0.0814 
    114 H114      -53.6523  -25.2400   18.9243 H         1 UNK         0.0814 
    115 H115      -52.0686  -25.8218   19.4084 H         1 UNK         0.0814 
    116 H116      -50.8273  -24.7005   16.0444 H         1 UNK         0.3091 
    117 H117      -47.8194  -25.0393   17.5205 H         1 UNK         0.0702 
    118 H118      -46.8456  -26.3595   15.5874 H         1 UNK         0.0785 
    119 H119      -48.4219  -27.1201   15.3568 H         1 UNK         0.0785 
    120 H120      -47.5298  -27.3786   16.8448 H         1 UNK         0.0785 
    121 H121      -48.4392  -24.6372   14.7428 H         1 UNK         0.2998 
    122 H122      -49.6404  -21.2978   15.0791 H         1 UNK         0.0697 
    123 H123      -47.0187  -22.3832   13.9105 H         1 UNK         0.0825 
    124 H124      -47.1668  -21.0496   15.0435 H         1 UNK         0.0825 
    125 H125      -47.8255  -20.8922   13.4241 H         1 UNK         0.0825 
    126 H126      -49.1694  -23.1004   12.8670 H         1 UNK         0.3029 
    127 H127      -52.4926  -24.4119   12.7499 H         1 UNK         0.0897 
    128 H128      -50.9551  -22.4806   10.9221 H         1 UNK         0.0792 
    129 H129      -52.5664  -22.2096   11.5699 H         1 UNK         0.0792 
    130 H130      -52.2930  -23.5213   10.4374 H         1 UNK         0.0792 
    131 H131      -50.2552  -24.9031   11.0901 H         1 UNK         0.3086 
    132 H132      -48.6186  -27.3119   13.0899 H         1 UNK         0.0583 
    133 H133      -50.5103  -28.6485   12.0957 H         1 UNK         0.1020 
    134 H134      -50.2250  -27.8808   10.5551 H         1 UNK         0.1020 
    135 H135      -48.7323  -31.7429   10.7453 H         1 UNK         0.0694 
    136 H136      -49.9335  -31.1317   11.8602 H         1 UNK         0.0694 
    137 H137      -48.1600  -26.4464   10.4176 H         1 UNK         0.2989 
    138 H138      -46.7803  -23.7002   10.5996 H         1 UNK         0.1055 
    139 H139      -45.1022  -23.6454   12.3870 H         1 UNK         0.0806 
    140 H140      -44.2895  -23.8850   10.8504 H         1 UNK         0.0806 
    141 H141      -44.5100  -25.2404   11.9575 H         1 UNK         0.0806 
    142 H142      -46.5020  -24.9398    8.8164 H         1 UNK         0.3061 
    143 H143      -44.6797  -27.4061    7.7401 H         1 UNK         0.0734 
    144 H144      -46.4142  -29.0866    7.1084 H         1 UNK         0.0832 
    145 H145      -45.9129  -29.3150    8.7764 H         1 UNK         0.0832 
    146 H146      -47.4472  -28.5333    8.4231 H         1 UNK         0.0832 
    147 H147      -47.4333  -26.3703    7.2464 H         1 UNK         0.3156 
    148 H148      -46.2476  -23.7149    5.2463 H         1 UNK         0.0589 
    149 H149      -47.7123  -26.2097    4.2194 H         1 UNK         0.0808 
    150 H150      -47.7391  -24.6112    3.4717 H         1 UNK         0.0808 
    151 H151      -46.2462  -25.5322    3.5255 H         1 UNK         0.0808 
    152 H152      -48.8858  -24.6455    5.7509 H         1 UNK         0.3098 
    153 H153      -49.2968  -23.5233    9.0609 H         1 UNK         0.0720 
    154 H154      -51.0969  -22.0706    8.1692 H         1 UNK         0.0791 
    155 H155      -50.3905  -22.1365    6.5541 H         1 UNK         0.0791 
    156 H156      -49.5299  -21.3417    7.8647 H         1 UNK         0.0791 
    157 H157      -51.2319  -24.4132    7.2126 H         1 UNK         0.3028 
@<TRIPOS>BOND
     1    1    2 1    
     2    1   82 1    
     3    1   83 1    
     4    1   84 1    
     5    2    3 2    
     6    2    4 am   BACKBONE|DICT|INTERRES
     7    4    5 1    
     8    4   85 1    
     9    5    6 1    
    10    5   80 1    
    11    5   86 1    
    12    6    7 1    
    13    6   87 1    
    14    6   88 1    
    15    7    8 1    
    16    8    9 1    
    17    8   89 1    
    18    8   90 1    
    19    9   10 ar   
    20    9   14 ar   
    21   10   11 ar   
    22   10   91 1    
    23   11   12 ar   
    24   11   58 1    
    25   12   13 ar   
    26   12   92 1    
    27   13   14 ar   
    28   13   15 1    
    29   14   93 1    
    30   15   16 1    
    31   15   94 1    
    32   15   95 1    
    33   16   17 1    
    34   17   18 1    
    35   17   96 1    
    36   17   97 1    
    37   18   19 1    
    38   18   22 1    
    39   18   98 1    
    40   19   20 am   BACKBONE|DICT|INTERRES
    41   19   21 2    
    42   20   99 1    
    43   20  100 1    
    44   22   23 am   BACKBONE|DICT|INTERRES
    45   22  101 1    
    46   23   24 2    
    47   23   25 1    
    48   25   26 1    
    49   25   27 1    
    50   25  102 1    
    51   26  103 1    
    52   26  104 1    
    53   26  105 1    
    54   27   28 am   BACKBONE|DICT|INTERRES
    55   27  106 1    
    56   28   29 2    
    57   28   30 1    
    58   30   31 1    
    59   30   32 1    
    60   30  107 1    
    61   31  108 1    
    62   31  109 1    
    63   31  110 1    
    64   32   33 am   BACKBONE|DICT|INTERRES
    65   32  111 1    
    66   33   34 2    
    67   33   35 1    
    68   35   36 1    
    69   35   37 1    
    70   35  112 1    
    71   36  113 1    
    72   36  114 1    
    73   36  115 1    
    74   37   38 am   BACKBONE|DICT|INTERRES
    75   37  116 1    
    76   38   39 2    
    77   38   40 1    
    78   40   41 1    
    79   40   42 1    
    80   40  117 1    
    81   41  118 1    
    82   41  119 1    
    83   41  120 1    
    84   42   43 am   BACKBONE|DICT|INTERRES
    85   42  121 1    
    86   43   44 2    
    87   43   45 1    
    88   45   46 1    
    89   45   47 1    
    90   45  122 1    
    91   46  123 1    
    92   46  124 1    
    93   46  125 1    
    94   47   48 am   BACKBONE|DICT|INTERRES
    95   47  126 1    
    96   48   49 2    
    97   48   50 1    
    98   50   51 1    
    99   50   52 1    
   100   50  127 1    
   101   51  128 1    
   102   51  129 1    
   103   51  130 1    
   104   52   53 am   BACKBONE|DICT|INTERRES
   105   52  131 1    
   106   53   54 2    
   107   53   55 1    
   108   55   56 1    
   109   55   59 1    
   110   55  132 1    
   111   56   57 1    
   112   56  133 1    
   113   56  134 1    
   114   57   58 1    
   115   58  135 1    
   116   58  136 1    
   117   59   60 am   BACKBONE|DICT|INTERRES
   118   59  137 1    
   119   60   61 2    
   120   60   62 1    
   121   62   63 1    
   122   62   64 1    
   123   62  138 1    
   124   63  139 1    
   125   63  140 1    
   126   63  141 1    
   127   64   65 am   BACKBONE|DICT|INTERRES
   128   64  142 1    
   129   65   66 2    
   130   65   67 1    
   131   67   68 1    
   132   67   69 1    
   133   67  143 1    
   134   68  144 1    
   135   68  145 1    
   136   68  146 1    
   137   69   70 am   BACKBONE|DICT|INTERRES
   138   69  147 1    
   139   70   71 2    
   140   70   72 1    
   141   72   73 1    
   142   72   74 1    
   143   72  148 1    
   144   73  149 1    
   145   73  150 1    
   146   73  151 1    
   147   74   75 am   BACKBONE|DICT|INTERRES
   148   74  152 1    
   149   75   76 2    
   150   75   77 1    
   151   77   78 1    
   152   77   79 1    
   153   77  153 1    
   154   78  154 1    
   155   78  155 1    
   156   78  156 1    
   157   79   80 am   BACKBONE|DICT|INTERRES
   158   79  157 1    
   159   80   81 2    
@<TRIPOS>SUBSTRUCTURE
     1 UNK         1 GROUP             0       ****    0 ROOT    
