@<TRIPOS>MOLECULE
3R207
157   159    1
SMALL
USER_CHARGES


@<TRIPOS>ATOM
      1 CA        -46.8703  -30.1962    2.5961 C.3       0 UNK        -0.1975 
      2 C         -47.8021  -29.1984    3.2674 C.2       0 UNK         0.4852 
      3 O         -48.4393  -28.3967    2.5817 O.2       0 UNK        -0.5216 
      4 N         -47.8896  -29.2389    4.6030 N.am      1 UNK        -0.4461 
      5 CA        -48.7122  -28.3434    5.4211 C.3       1 UNK         0.0864 
      6 C6        -49.0431  -28.9553    6.8048 C.3       14 UNK        -0.0898 
      7 S7        -49.8204  -30.6071    6.7249 S.3       14 UNK        -0.2598 
      8 C8        -51.5937  -30.2494    6.9627 C.3       14 UNK         0.0286 
      9 C9        -51.8989  -29.6042    8.3095 C.ar      14 UNK        -0.0844 
     10 C10       -52.4399  -28.3174    8.3584 C.ar      14 UNK        -0.0881 
     11 C11       -52.7050  -27.7009    9.5839 C.ar      14 UNK        -0.0643 
     12 C12       -52.4269  -28.3834   10.7713 C.ar      14 UNK        -0.0930 
     13 C13       -51.9079  -29.6816   10.7389 C.ar      14 UNK        -0.0827 
     14 C14       -51.6513  -30.2880    9.5039 C.ar      14 UNK        -0.1249 
     15 C15       -51.5889  -30.4242   12.0320 C.3       14 UNK         0.0141 
     16 S16       -52.9852  -30.4965   13.2029 S.3       14 UNK        -0.2313 
     17 C17       -54.2818  -31.3383   12.2295 C.3       14 UNK        -0.0915 
     18 CA        -55.6930  -30.7257   12.4365 C.3       13 UNK         0.0968 
     19 C         -56.3148  -31.1356   13.8049 C.2       13 UNK         0.5732 
     20 N         -56.6170  -30.2075   14.7052 N.am      13 UNK        -0.7310 
     21 O         -56.5431  -32.3190   14.0454 O.2       13 UNK        -0.5035 
     22 N         -55.7079  -29.2803   12.1551 N.am      13 UNK        -0.4233 
     23 C         -56.7951  -28.5795   11.8171 C.2       13 UNK         0.4989 
     24 O         -57.9136  -29.0754   11.6692 O.2       13 UNK        -0.4996 
     25 CA        -56.5998  -27.0631   11.6561 C.3       12 UNK         0.0216 
     26 CB        -57.7403  -26.4009   10.8605 C.3       12 UNK        -0.1964 
     27 N         -56.4958  -26.4215   12.9674 N.am      12 UNK        -0.4276 
     28 C         -55.3727  -26.3264   13.6877 C.2       12 UNK         0.5020 
     29 O         -54.2749  -26.7437   13.3101 O.2       12 UNK        -0.5489 
     30 CA        -55.5093  -25.6969   15.0781 C.3       11 UNK         0.0294 
     31 CB        -56.0273  -26.7355   16.0922 C.3       11 UNK        -0.2019 
     32 N         -54.2026  -25.1988   15.4938 N.am      11 UNK        -0.4493 
     33 C         -53.9663  -24.3252   16.4812 C.2       11 UNK         0.4932 
     34 O         -54.8581  -23.8030   17.1528 O.2       11 UNK        -0.5029 
     35 CA        -52.4900  -23.9695   16.7581 C.3       10 UNK         0.0280 
     36 CB        -52.2484  -23.4367   18.1867 C.3       10 UNK        -0.1976 
     37 N         -51.5709  -25.0664   16.4317 N.am      10 UNK        -0.4242 
     38 C         -51.5067  -26.2757   17.0095 C.2       10 UNK         0.5072 
     39 O         -52.1602  -26.6078   17.9994 O.2       10 UNK        -0.5224 
     40 CA        -50.5838  -27.3120   16.3497 C.3       9 UNK         0.0343 
     41 CB        -51.3735  -28.1314   15.3177 C.3       9 UNK        -0.2003 
     42 N         -49.4060  -26.7263   15.7043 N.am      9 UNK        -0.4272 
     43 C         -48.3348  -26.2666   16.3668 C.2       9 UNK         0.4988 
     44 O         -48.2342  -26.2723   17.5944 O.2       9 UNK        -0.5108 
     45 CA        -47.1711  -25.7191   15.5213 C.3       8 UNK         0.0248 
     46 CB        -46.3812  -26.8655   14.8691 C.3       8 UNK        -0.2001 
     47 N         -47.6077  -24.7699   14.4957 N.am      8 UNK        -0.4140 
     48 C         -48.1153  -23.5561   14.7565 C.2       8 UNK         0.5028 
     49 O         -48.2230  -23.0838   15.8887 O.2       8 UNK        -0.5428 
     50 CA        -48.6039  -22.7308   13.5540 C.3       7 UNK         0.0264 
     51 CB        -47.4383  -21.9659   12.9068 C.3       7 UNK        -0.1988 
     52 N         -49.2807  -23.5405   12.5393 N.am      7 UNK        -0.4454 
     53 C         -50.4211  -24.2179   12.7428 C.2       7 UNK         0.5027 
     54 O         -51.0492  -24.2042   13.7999 O.2       7 UNK        -0.5083 
     55 CA        -50.9227  -25.0910   11.5811 C.3       6 UNK         0.0844 
     56 C56       -51.6182  -24.2077   10.5139 C.3       14 UNK        -0.0967 
     57 S57       -52.1031  -25.0781    8.9881 S.3       14 UNK        -0.2604 
     58 C58       -53.2963  -26.3007    9.6065 C.3       14 UNK         0.0134 
     59 N         -49.8446  -25.9277   11.0489 N.am      6 UNK        -0.4116 
     60 C         -49.2010  -26.8798   11.7422 C.2       5 UNK         0.5034 
     61 O         -49.4740  -27.1939   12.8990 O.2       5 UNK        -0.5045 
     62 CA        -48.0087  -27.5598   11.0522 C.3       5 UNK         0.0224 
     63 CB        -48.4584  -28.8171   10.3001 C.3       5 UNK        -0.1978 
     64 N         -47.3003  -26.6508   10.1477 N.am      5 UNK        -0.4737 
     65 C         -46.5896  -25.5985   10.5775 C.2       4 UNK         0.5027 
     66 O         -46.4300  -25.3181   11.7661 O.2       4 UNK        -0.5211 
     67 CA        -46.0158  -24.6781    9.4949 C.3       4 UNK         0.0297 
     68 CB        -44.7950  -25.3184    8.8154 C.3       4 UNK        -0.1993 
     69 N         -47.0166  -24.3336    8.4845 N.am      4 UNK        -0.4486 
     70 C         -48.0776  -23.5417    8.6930 C.2       3 UNK         0.4961 
     71 O         -48.3598  -23.0799    9.7994 O.2       3 UNK        -0.5105 
     72 CA        -49.0069  -23.2246    7.5004 C.3       3 UNK         0.0299 
     73 CB        -49.1183  -21.7048    7.2644 C.3       3 UNK        -0.1972 
     74 N         -48.6968  -23.9423    6.2544 N.am      3 UNK        -0.4305 
     75 C         -47.6135  -23.8251    5.4707 C.2       2 UNK         0.5006 
     76 O         -46.7241  -22.9935    5.6553 O.2       2 UNK        -0.5106 
     77 CA        -47.4789  -24.8383    4.3120 C.3       2 UNK         0.0296 
     78 CB        -46.0037  -25.0869    3.9306 C.3       2 UNK        -0.2002 
     79 N         -48.1545  -26.1294    4.5256 N.am      2 UNK        -0.4032 
     80 C         -48.0050  -26.9768    5.5568 C.2       1 UNK         0.5000 
     81 O         -47.3304  -26.7276    6.5606 O.2       1 UNK        -0.5238 
     82 H82       -46.3815  -30.8482    3.3199 H         1 UNK         0.0889 
     83 H83       -46.0975  -29.6695    2.0370 H         1 UNK         0.0889 
     84 H84       -47.4293  -30.8211    1.9002 H         1 UNK         0.0889 
     85 H85       -47.3425  -29.9138    5.1183 H         1 UNK         0.3028 
     86 H86       -49.6626  -28.1785    4.9083 H         1 UNK         0.0864 
     87 H87       -48.1316  -29.0670    7.3937 H         1 UNK         0.0720 
     88 H88       -49.6869  -28.2753    7.3635 H         1 UNK         0.0720 
     89 H89       -52.1525  -31.1830    6.8857 H         1 UNK         0.0814 
     90 H90       -51.9378  -29.6203    6.1403 H         1 UNK         0.0814 
     91 H91       -52.6462  -27.7826    7.4413 H         1 UNK         0.1469 
     92 H92       -52.6136  -27.9102   11.7249 H         1 UNK         0.1381 
     93 H93       -51.2366  -31.2861    9.4672 H         1 UNK         0.1206 
     94 H94       -51.2587  -31.4427   11.8232 H         1 UNK         0.0813 
     95 H95       -50.7535  -29.9236   12.5229 H         1 UNK         0.0813 
     96 H96       -54.0293  -31.2890   11.1702 H         1 UNK         0.0638 
     97 H97       -54.2719  -32.4008   12.4791 H         1 UNK         0.0638 
     98 H98       -56.3382  -31.1946   11.6911 H         1 UNK         0.0568 
     99 H99       -57.0249  -30.4865   15.5831 H         1 UNK         0.3450 
    100 H100      -56.4308  -29.2384   14.5142 H         1 UNK         0.3450 
    101 H101      -54.8391  -28.7886   12.3239 H         1 UNK         0.2987 
    102 H102      -55.6772  -26.9081   11.0972 H         1 UNK         0.0766 
    103 H103      -57.5459  -25.3403   10.6998 H         1 UNK         0.0798 
    104 H104      -58.7005  -26.4920   11.3699 H         1 UNK         0.0798 
    105 H105      -57.8476  -26.8616    9.8775 H         1 UNK         0.0798 
    106 H106      -57.3603  -26.0862   13.3692 H         1 UNK         0.3198 
    107 H107      -56.2049  -24.8572   15.0163 H         1 UNK         0.0843 
    108 H108      -55.3404  -27.5778   16.1883 H         1 UNK         0.0831 
    109 H109      -56.9976  -27.1330   15.7927 H         1 UNK         0.0831 
    110 H110      -56.1548  -26.2980   17.0824 H         1 UNK         0.0831 
    111 H111      -53.4320  -25.5556   14.9403 H         1 UNK         0.3133 
    112 H112      -52.2440  -23.1623   16.0669 H         1 UNK         0.0566 
    113 H113      -51.1966  -23.2006   18.3482 H         1 UNK         0.0814 
    114 H114      -52.8157  -22.5221   18.3630 H         1 UNK         0.0814 
    115 H115      -52.5526  -24.1567   18.9467 H         1 UNK         0.0814 
    116 H116      -51.0367  -24.9167   15.5793 H         1 UNK         0.3091 
    117 H117      -50.2420  -27.9944   17.1310 H         1 UNK         0.0702 
    118 H118      -52.2488  -28.5986   15.7712 H         1 UNK         0.0785 
    119 H119      -51.7278  -27.5128   14.4915 H         1 UNK         0.0785 
    120 H120      -50.7621  -28.9293   14.8966 H         1 UNK         0.0785 
    121 H121      -49.3965  -26.7357   14.6859 H         1 UNK         0.2998 
    122 H122      -46.4939  -25.1885   16.1941 H         1 UNK         0.0697 
    123 H123      -47.0011  -27.4491   14.1889 H         1 UNK         0.0825 
    124 H124      -45.9945  -27.5505   15.6248 H         1 UNK         0.0825 
    125 H125      -45.5278  -26.4893   14.3044 H         1 UNK         0.0825 
    126 H126      -47.4874  -25.0480   13.5269 H         1 UNK         0.3029 
    127 H127      -49.3251  -22.0012   13.9286 H         1 UNK         0.0897 
    128 H128      -47.7890  -21.3132   12.1070 H         1 UNK         0.0792 
    129 H129      -46.6968  -22.6435   12.4818 H         1 UNK         0.0792 
    130 H130      -46.9279  -21.3382   13.6386 H         1 UNK         0.0792 
    131 H131      -48.8493  -23.5659   11.6183 H         1 UNK         0.3086 
    132 H132      -51.6714  -25.7665   11.9980 H         1 UNK         0.0583 
    133 H133      -52.5117  -23.7453   10.9385 H         1 UNK         0.1020 
    134 H134      -50.9748  -23.3783   10.2154 H         1 UNK         0.1020 
    135 H135      -53.6232  -26.0273   10.6100 H         1 UNK         0.0694 
    136 H136      -54.1859  -26.2772    8.9756 H         1 UNK         0.0694 
    137 H137      -49.5540  -25.7381   10.1027 H         1 UNK         0.2989 
    138 H138      -47.3074  -27.8686   11.8302 H         1 UNK         0.1055 
    139 H139      -48.8419  -29.5643   10.9949 H         1 UNK         0.0806 
    140 H140      -47.6347  -29.2789    9.7563 H         1 UNK         0.0806 
    141 H141      -49.2589  -28.5957    9.5963 H         1 UNK         0.0806 
    142 H142      -47.3822  -26.8107    9.1518 H         1 UNK         0.3061 
    143 H143      -45.6918  -23.7546    9.9799 H         1 UNK         0.0734 
    144 H144      -44.3358  -24.6336    8.1022 H         1 UNK         0.0832 
    145 H145      -44.0324  -25.5802    9.5502 H         1 UNK         0.0832 
    146 H146      -45.0593  -26.2307    8.2788 H         1 UNK         0.0832 
    147 H147      -46.8931  -24.7375    7.5644 H         1 UNK         0.3156 
    148 H148      -49.9954  -23.5732    7.7929 H         1 UNK         0.0589 
    149 H149      -48.1534  -21.2560    7.0274 H         1 UNK         0.0808 
    150 H150      -49.8051  -21.4782    6.4491 H         1 UNK         0.0808 
    151 H151      -49.4964  -21.2001    8.1545 H         1 UNK         0.0808 
    152 H152      -49.3570  -24.6661    6.0072 H         1 UNK         0.3098 
    153 H153      -47.9692  -24.3764    3.4539 H         1 UNK         0.0720 
    154 H154      -45.9222  -25.7800    3.0932 H         1 UNK         0.0791 
    155 H155      -45.4378  -25.5027    4.7653 H         1 UNK         0.0791 
    156 H156      -45.5104  -24.1617    3.6297 H         1 UNK         0.0791 
    157 H157      -48.6912  -26.4698    3.7359 H         1 UNK         0.3028 
@<TRIPOS>BOND
     1    1    2 1    
     2    1   82 1    
     3    1   83 1    
     4    1   84 1    
     5    2    3 2    
     6    2    4 am   BACKBONE|DICT|INTERRES
     7    4    5 1    
     8    4   85 1    
     9    5    6 1    
    10    5   80 1    
    11    5   86 1    
    12    6    7 1    
    13    6   87 1    
    14    6   88 1    
    15    7    8 1    
    16    8    9 1    
    17    8   89 1    
    18    8   90 1    
    19    9   10 ar   
    20    9   14 ar   
    21   10   11 ar   
    22   10   91 1    
    23   11   12 ar   
    24   11   58 1    
    25   12   13 ar   
    26   12   92 1    
    27   13   14 ar   
    28   13   15 1    
    29   14   93 1    
    30   15   16 1    
    31   15   94 1    
    32   15   95 1    
    33   16   17 1    
    34   17   18 1    
    35   17   96 1    
    36   17   97 1    
    37   18   19 1    
    38   18   22 1    
    39   18   98 1    
    40   19   20 am   BACKBONE|DICT|INTERRES
    41   19   21 2    
    42   20   99 1    
    43   20  100 1    
    44   22   23 am   BACKBONE|DICT|INTERRES
    45   22  101 1    
    46   23   24 2    
    47   23   25 1    
    48   25   26 1    
    49   25   27 1    
    50   25  102 1    
    51   26  103 1    
    52   26  104 1    
    53   26  105 1    
    54   27   28 am   BACKBONE|DICT|INTERRES
    55   27  106 1    
    56   28   29 2    
    57   28   30 1    
    58   30   31 1    
    59   30   32 1    
    60   30  107 1    
    61   31  108 1    
    62   31  109 1    
    63   31  110 1    
    64   32   33 am   BACKBONE|DICT|INTERRES
    65   32  111 1    
    66   33   34 2    
    67   33   35 1    
    68   35   36 1    
    69   35   37 1    
    70   35  112 1    
    71   36  113 1    
    72   36  114 1    
    73   36  115 1    
    74   37   38 am   BACKBONE|DICT|INTERRES
    75   37  116 1    
    76   38   39 2    
    77   38   40 1    
    78   40   41 1    
    79   40   42 1    
    80   40  117 1    
    81   41  118 1    
    82   41  119 1    
    83   41  120 1    
    84   42   43 am   BACKBONE|DICT|INTERRES
    85   42  121 1    
    86   43   44 2    
    87   43   45 1    
    88   45   46 1    
    89   45   47 1    
    90   45  122 1    
    91   46  123 1    
    92   46  124 1    
    93   46  125 1    
    94   47   48 am   BACKBONE|DICT|INTERRES
    95   47  126 1    
    96   48   49 2    
    97   48   50 1    
    98   50   51 1    
    99   50   52 1    
   100   50  127 1    
   101   51  128 1    
   102   51  129 1    
   103   51  130 1    
   104   52   53 am   BACKBONE|DICT|INTERRES
   105   52  131 1    
   106   53   54 2    
   107   53   55 1    
   108   55   56 1    
   109   55   59 1    
   110   55  132 1    
   111   56   57 1    
   112   56  133 1    
   113   56  134 1    
   114   57   58 1    
   115   58  135 1    
   116   58  136 1    
   117   59   60 am   BACKBONE|DICT|INTERRES
   118   59  137 1    
   119   60   61 2    
   120   60   62 1    
   121   62   63 1    
   122   62   64 1    
   123   62  138 1    
   124   63  139 1    
   125   63  140 1    
   126   63  141 1    
   127   64   65 am   BACKBONE|DICT|INTERRES
   128   64  142 1    
   129   65   66 2    
   130   65   67 1    
   131   67   68 1    
   132   67   69 1    
   133   67  143 1    
   134   68  144 1    
   135   68  145 1    
   136   68  146 1    
   137   69   70 am   BACKBONE|DICT|INTERRES
   138   69  147 1    
   139   70   71 2    
   140   70   72 1    
   141   72   73 1    
   142   72   74 1    
   143   72  148 1    
   144   73  149 1    
   145   73  150 1    
   146   73  151 1    
   147   74   75 am   BACKBONE|DICT|INTERRES
   148   74  152 1    
   149   75   76 2    
   150   75   77 1    
   151   77   78 1    
   152   77   79 1    
   153   77  153 1    
   154   78  154 1    
   155   78  155 1    
   156   78  156 1    
   157   79   80 am   BACKBONE|DICT|INTERRES
   158   79  157 1    
   159   80   81 2    
@<TRIPOS>SUBSTRUCTURE
     1 UNK         1 GROUP             0       ****    0 ROOT    
