@<TRIPOS>MOLECULE
3R207
157   159    1
SMALL
USER_CHARGES


@<TRIPOS>ATOM
      1 CA        -45.3892  -28.3331    3.5749 C.3       0 UNK        -0.1975 
      2 C         -46.5514  -28.3705    4.5555 C.2       0 UNK         0.4852 
      3 O         -47.6668  -28.7271    4.1735 O.2       0 UNK        -0.5216 
      4 N         -46.3112  -27.9843    5.8161 N.am      1 UNK        -0.4461 
      5 CA        -47.2840  -27.9659    6.9170 C.3       1 UNK         0.0864 
      6 C6        -46.5417  -28.0676    8.2773 C.3       14 UNK        -0.0898 
      7 S7        -47.6148  -28.3878    9.7164 S.3       14 UNK        -0.2598 
      8 C8        -48.0417  -30.1441    9.4982 C.3       14 UNK         0.0286 
      9 C9        -49.5498  -30.3227    9.5526 C.ar      14 UNK        -0.0844 
     10 C10       -50.3348  -29.9955    8.4437 C.ar      14 UNK        -0.0881 
     11 C11       -51.7273  -30.0543    8.5203 C.ar      14 UNK        -0.0643 
     12 C12       -52.3331  -30.5301    9.6866 C.ar      14 UNK        -0.0930 
     13 C13       -51.5598  -30.8687   10.8002 C.ar      14 UNK        -0.0827 
     14 C14       -50.1679  -30.7576   10.7287 C.ar      14 UNK        -0.1249 
     15 C15       -52.2246  -31.3252   12.0902 C.3       14 UNK         0.0141 
     16 S16       -52.8697  -29.9163   13.0480 S.3       14 UNK        -0.2313 
     17 C17       -54.6223  -29.9233   12.5490 C.3       14 UNK        -0.0915 
     18 CA        -55.4636  -28.7353   13.0850 C.3       13 UNK         0.0968 
     19 C         -55.5671  -28.6835   14.6393 C.2       13 UNK         0.5732 
     20 N         -55.3897  -27.5407   15.2923 N.am      13 UNK        -0.7310 
     21 O         -55.8469  -29.7009   15.2695 O.2       13 UNK        -0.5035 
     22 N         -55.0965  -27.4602   12.4474 N.am      13 UNK        -0.4233 
     23 C         -55.9798  -26.4945   12.1587 C.2       13 UNK         0.4989 
     24 O         -57.1965  -26.6123   12.3223 O.2       13 UNK        -0.4996 
     25 CA        -55.4112  -25.1733   11.6046 C.3       12 UNK         0.0216 
     26 CB        -56.4658  -24.0494   11.5225 C.3       12 UNK        -0.1964 
     27 N         -54.2267  -24.6986   12.3262 N.am      12 UNK        -0.4276 
     28 C         -54.1028  -24.4828   13.6423 C.2       12 UNK         0.5020 
     29 O         -55.0099  -24.6622   14.4599 O.2       12 UNK        -0.5489 
     30 CA        -52.7373  -23.9512   14.1140 C.3       11 UNK         0.0294 
     31 CB        -52.5813  -22.4642   13.7533 C.3       11 UNK        -0.2019 
     32 N         -52.5610  -24.1112   15.5614 N.am      11 UNK        -0.4493 
     33 C         -52.3405  -25.2770   16.1809 C.2       11 UNK         0.4932 
     34 O         -52.1261  -26.3441   15.5967 O.2       11 UNK        -0.5029 
     35 CA        -52.3651  -25.2484   17.7162 C.3       10 UNK         0.0280 
     36 CB        -53.7847  -24.9962   18.2558 C.3       10 UNK        -0.1976 
     37 N         -51.8871  -26.5415   18.1871 N.am      10 UNK        -0.4242 
     38 C         -51.1901  -26.7926   19.2996 C.2       10 UNK         0.5072 
     39 O         -50.9560  -25.9534   20.1704 O.2       10 UNK        -0.5224 
     40 CA        -50.6465  -28.2282   19.4595 C.3       9 UNK         0.0343 
     41 CB        -51.5643  -29.0524   20.3769 C.3       9 UNK        -0.2003 
     42 N         -50.4873  -28.9303   18.1785 N.am      9 UNK        -0.4272 
     43 C         -49.5824  -28.6066   17.2428 C.2       9 UNK         0.4988 
     44 O         -48.7123  -27.7498   17.4073 O.2       9 UNK        -0.5108 
     45 CA        -49.6848  -29.3032   15.8789 C.3       8 UNK         0.0248 
     46 CB        -50.6953  -30.4664   15.8229 C.3       8 UNK        -0.2001 
     47 N         -50.0509  -28.2700   14.9143 N.am      8 UNK        -0.4140 
     48 C         -49.4563  -28.0496   13.7391 C.2       8 UNK         0.5028 
     49 O         -48.6281  -28.8016   13.2213 O.2       8 UNK        -0.5428 
     50 CA        -49.7742  -26.6961   13.0942 C.3       7 UNK         0.0264 
     51 CB        -48.6212  -25.7071   13.3296 C.3       7 UNK        -0.1988 
     52 N         -50.0180  -26.8043   11.6613 N.am      7 UNK        -0.4454 
     53 C         -51.2354  -26.8510   11.1078 C.2       7 UNK         0.5027 
     54 O         -52.2859  -26.9002   11.7512 O.2       7 UNK        -0.5083 
     55 CA        -51.2752  -26.7162    9.5724 C.3       6 UNK         0.0844 
     56 C56       -52.6418  -27.1331    8.9509 C.3       14 UNK        -0.0967 
     57 S57       -52.4357  -27.6956    7.2232 S.3       14 UNK        -0.2604 
     58 C58       -52.5781  -29.5139    7.3792 C.3       14 UNK         0.0134 
     59 N         -50.8540  -25.3681    9.1630 N.am      6 UNK        -0.4116 
     60 C         -51.4411  -24.2096    9.5113 C.2       5 UNK         0.5034 
     61 O         -52.4156  -24.1330   10.2609 O.2       5 UNK        -0.5045 
     62 CA        -50.8696  -22.9158    8.9015 C.3       5 UNK         0.0224 
     63 CB        -51.2903  -21.6461    9.6748 C.3       5 UNK        -0.1978 
     64 N         -49.4190  -22.9564    8.6967 N.am      5 UNK        -0.4737 
     65 C         -48.4585  -23.0357    9.6314 C.2       4 UNK         0.5027 
     66 O         -48.6830  -23.0407   10.8410 O.2       4 UNK        -0.5211 
     67 CA        -47.0010  -23.1404    9.1392 C.3       4 UNK         0.0297 
     68 CB        -46.2479  -24.2562    9.8869 C.3       4 UNK        -0.1993 
     69 N         -46.9401  -23.4112    7.7005 N.am      4 UNK        -0.4486 
     70 C         -46.6927  -22.5045    6.7443 C.2       3 UNK         0.4961 
     71 O         -46.3832  -21.3356    6.9747 O.2       3 UNK        -0.5105 
     72 CA        -46.8341  -22.9639    5.2777 C.3       3 UNK         0.0299 
     73 CB        -45.4555  -23.3073    4.6907 C.3       3 UNK        -0.1972 
     74 N         -47.7288  -24.1119    5.0971 N.am      3 UNK        -0.4305 
     75 C         -49.0478  -24.1160    5.3437 C.2       2 UNK         0.5006 
     76 O         -49.6816  -23.1160    5.6783 O.2       2 UNK        -0.5106 
     77 CA        -49.7657  -25.4788    5.2890 C.3       2 UNK         0.0296 
     78 CB        -50.3749  -25.7167    3.8992 C.3       2 UNK        -0.2002 
     79 N         -48.9035  -26.6129    5.6444 N.am      2 UNK        -0.4032 
     80 C         -48.2482  -26.7583    6.8045 C.2       1 UNK         0.5000 
     81 O         -48.3460  -25.9426    7.7235 O.2       1 UNK        -0.5238 
     82 H82       -44.4692  -27.9858    4.0448 H         1 UNK         0.0889 
     83 H83       -45.6196  -27.6655    2.7451 H         1 UNK         0.0889 
     84 H84       -45.2087  -29.3289    3.1711 H         1 UNK         0.0889 
     85 H85       -45.3786  -27.6817    6.0613 H         1 UNK         0.3028 
     86 H86       -47.8985  -28.8598    6.8114 H         1 UNK         0.0864 
     87 H87       -45.8016  -28.8688    8.2397 H         1 UNK         0.0720 
     88 H88       -45.9759  -27.1547    8.4705 H         1 UNK         0.0720 
     89 H89       -47.6582  -30.5279    8.5521 H         1 UNK         0.0814 
     90 H90       -47.5564  -30.7259   10.2833 H         1 UNK         0.0814 
     91 H91       -49.8737  -29.6240    7.5413 H         1 UNK         0.1469 
     92 H92       -53.4100  -30.5886    9.7430 H         1 UNK         0.1381 
     93 H93       -49.5655  -30.9859   11.5979 H         1 UNK         0.1206 
     94 H94       -53.0244  -32.0339   11.8710 H         1 UNK         0.0813 
     95 H95       -51.5066  -31.8655   12.7084 H         1 UNK         0.0813 
     96 H96       -54.6783  -29.9348   11.4613 H         1 UNK         0.0638 
     97 H97       -55.0613  -30.8670   12.8772 H         1 UNK         0.0638 
     98 H98       -56.4839  -28.9645   12.7725 H         1 UNK         0.0568 
     99 H99       -55.4767  -27.5385   16.2944 H         1 UNK         0.3450 
    100 H100      -55.1952  -26.6743   14.8033 H         1 UNK         0.3450 
    101 H101      -54.1020  -27.2912   12.3098 H         1 UNK         0.2987 
    102 H102      -55.0794  -25.3899   10.5885 H         1 UNK         0.0766 
    103 H103      -57.3082  -24.3455   10.8963 H         1 UNK         0.0798 
    104 H104      -56.0441  -23.1429   11.0884 H         1 UNK         0.0798 
    105 H105      -56.8624  -23.7970   12.5067 H         1 UNK         0.0798 
    106 H106      -53.4166  -24.5372   11.7264 H         1 UNK         0.3198 
    107 H107      -51.9582  -24.5108   13.5968 H         1 UNK         0.0843 
    108 H108      -53.3488  -21.8505   14.2267 H         1 UNK         0.0831 
    109 H109      -52.6613  -22.3118   12.6759 H         1 UNK         0.0831 
    110 H110      -51.6068  -22.0819   14.0579 H         1 UNK         0.0831 
    111 H111      -52.7624  -23.2991   16.1261 H         1 UNK         0.3133 
    112 H112      -51.6903  -24.4604   18.0569 H         1 UNK         0.0566 
    113 H113      -54.4883  -25.7505   17.9013 H         1 UNK         0.0814 
    114 H114      -54.1631  -24.0240   17.9383 H         1 UNK         0.0814 
    115 H115      -53.8024  -25.0085   19.3457 H         1 UNK         0.0814 
    116 H116      -51.9887  -27.2779   17.5009 H         1 UNK         0.3091 
    117 H117      -49.6646  -28.1561   19.9322 H         1 UNK         0.0702 
    118 H118      -51.1558  -30.0469   20.5579 H         1 UNK         0.0785 
    119 H119      -52.5620  -29.1696   19.9519 H         1 UNK         0.0785 
    120 H120      -51.6790  -28.5696   21.3485 H         1 UNK         0.0785 
    121 H121      -51.1594  -29.6547   17.9694 H         1 UNK         0.2998 
    122 H122      -48.6913  -29.6961   15.6529 H         1 UNK         0.0697 
    123 H123      -51.7227  -30.1294   15.9674 H         1 UNK         0.0825 
    124 H124      -50.4746  -31.2241   16.5758 H         1 UNK         0.0825 
    125 H125      -50.6479  -30.9641   14.8550 H         1 UNK         0.0825 
    126 H126      -50.7285  -27.5822   15.2377 H         1 UNK         0.3029 
    127 H127      -50.6600  -26.2878   13.5743 H         1 UNK         0.0897 
    128 H128      -47.7042  -26.0307   12.8352 H         1 UNK         0.0792 
    129 H129      -48.4031  -25.6068   14.3938 H         1 UNK         0.0792 
    130 H130      -48.8718  -24.7141   12.9564 H         1 UNK         0.0792 
    131 H131      -49.2008  -26.8537   11.0677 H         1 UNK         0.3086 
    132 H132      -50.5065  -27.3926    9.2010 H         1 UNK         0.0583 
    133 H133      -53.1224  -27.9257    9.5251 H         1 UNK         0.1020 
    134 H134      -53.3521  -26.3063    8.9701 H         1 UNK         0.1020 
    135 H135      -53.6279  -29.7742    7.5234 H         1 UNK         0.0694 
    136 H136      -52.2707  -29.9789    6.4415 H         1 UNK         0.0694 
    137 H137      -50.0132  -25.3364    8.5947 H         1 UNK         0.2989 
    138 H138      -51.3103  -22.8463    7.9057 H         1 UNK         0.1055 
    139 H139      -50.9577  -21.6735   10.7127 H         1 UNK         0.0806 
    140 H140      -52.3756  -21.5373    9.6871 H         1 UNK         0.0806 
    141 H141      -50.8820  -20.7468    9.2140 H         1 UNK         0.0806 
    142 H142      -49.1313  -22.9530    7.7248 H         1 UNK         0.3061 
    143 H143      -46.5136  -22.1900    9.3651 H         1 UNK         0.0734 
    144 H144      -46.7529  -25.2178    9.7903 H         1 UNK         0.0832 
    145 H145      -45.2300  -24.3703    9.5145 H         1 UNK         0.0832 
    146 H146      -46.1793  -24.0349   10.9527 H         1 UNK         0.0832 
    147 H147      -47.2437  -24.3427    7.4337 H         1 UNK         0.3156 
    148 H148      -47.2490  -22.1272    4.7117 H         1 UNK         0.0589 
    149 H149      -44.9954  -24.1522    5.2048 H         1 UNK         0.0808 
    150 H150      -45.5240  -23.5538    3.6309 H         1 UNK         0.0808 
    151 H151      -44.7722  -22.4614    4.7799 H         1 UNK         0.0808 
    152 H152      -47.2974  -24.9796    4.8158 H         1 UNK         0.3098 
    153 H153      -50.5785  -25.4461    6.0174 H         1 UNK         0.0720 
    154 H154      -50.9708  -26.6296    3.8809 H         1 UNK         0.0791 
    155 H155      -49.6068  -25.8007    3.1293 H         1 UNK         0.0791 
    156 H156      -51.0350  -24.8954    3.6160 H         1 UNK         0.0791 
    157 H157      -48.7462  -27.3218    4.9322 H         1 UNK         0.3028 
@<TRIPOS>BOND
     1    1    2 1    
     2    1   82 1    
     3    1   83 1    
     4    1   84 1    
     5    2    3 2    
     6    2    4 am   BACKBONE|DICT|INTERRES
     7    4    5 1    
     8    4   85 1    
     9    5    6 1    
    10    5   80 1    
    11    5   86 1    
    12    6    7 1    
    13    6   87 1    
    14    6   88 1    
    15    7    8 1    
    16    8    9 1    
    17    8   89 1    
    18    8   90 1    
    19    9   10 ar   
    20    9   14 ar   
    21   10   11 ar   
    22   10   91 1    
    23   11   12 ar   
    24   11   58 1    
    25   12   13 ar   
    26   12   92 1    
    27   13   14 ar   
    28   13   15 1    
    29   14   93 1    
    30   15   16 1    
    31   15   94 1    
    32   15   95 1    
    33   16   17 1    
    34   17   18 1    
    35   17   96 1    
    36   17   97 1    
    37   18   19 1    
    38   18   22 1    
    39   18   98 1    
    40   19   20 am   BACKBONE|DICT|INTERRES
    41   19   21 2    
    42   20   99 1    
    43   20  100 1    
    44   22   23 am   BACKBONE|DICT|INTERRES
    45   22  101 1    
    46   23   24 2    
    47   23   25 1    
    48   25   26 1    
    49   25   27 1    
    50   25  102 1    
    51   26  103 1    
    52   26  104 1    
    53   26  105 1    
    54   27   28 am   BACKBONE|DICT|INTERRES
    55   27  106 1    
    56   28   29 2    
    57   28   30 1    
    58   30   31 1    
    59   30   32 1    
    60   30  107 1    
    61   31  108 1    
    62   31  109 1    
    63   31  110 1    
    64   32   33 am   BACKBONE|DICT|INTERRES
    65   32  111 1    
    66   33   34 2    
    67   33   35 1    
    68   35   36 1    
    69   35   37 1    
    70   35  112 1    
    71   36  113 1    
    72   36  114 1    
    73   36  115 1    
    74   37   38 am   BACKBONE|DICT|INTERRES
    75   37  116 1    
    76   38   39 2    
    77   38   40 1    
    78   40   41 1    
    79   40   42 1    
    80   40  117 1    
    81   41  118 1    
    82   41  119 1    
    83   41  120 1    
    84   42   43 am   BACKBONE|DICT|INTERRES
    85   42  121 1    
    86   43   44 2    
    87   43   45 1    
    88   45   46 1    
    89   45   47 1    
    90   45  122 1    
    91   46  123 1    
    92   46  124 1    
    93   46  125 1    
    94   47   48 am   BACKBONE|DICT|INTERRES
    95   47  126 1    
    96   48   49 2    
    97   48   50 1    
    98   50   51 1    
    99   50   52 1    
   100   50  127 1    
   101   51  128 1    
   102   51  129 1    
   103   51  130 1    
   104   52   53 am   BACKBONE|DICT|INTERRES
   105   52  131 1    
   106   53   54 2    
   107   53   55 1    
   108   55   56 1    
   109   55   59 1    
   110   55  132 1    
   111   56   57 1    
   112   56  133 1    
   113   56  134 1    
   114   57   58 1    
   115   58  135 1    
   116   58  136 1    
   117   59   60 am   BACKBONE|DICT|INTERRES
   118   59  137 1    
   119   60   61 2    
   120   60   62 1    
   121   62   63 1    
   122   62   64 1    
   123   62  138 1    
   124   63  139 1    
   125   63  140 1    
   126   63  141 1    
   127   64   65 am   BACKBONE|DICT|INTERRES
   128   64  142 1    
   129   65   66 2    
   130   65   67 1    
   131   67   68 1    
   132   67   69 1    
   133   67  143 1    
   134   68  144 1    
   135   68  145 1    
   136   68  146 1    
   137   69   70 am   BACKBONE|DICT|INTERRES
   138   69  147 1    
   139   70   71 2    
   140   70   72 1    
   141   72   73 1    
   142   72   74 1    
   143   72  148 1    
   144   73  149 1    
   145   73  150 1    
   146   73  151 1    
   147   74   75 am   BACKBONE|DICT|INTERRES
   148   74  152 1    
   149   75   76 2    
   150   75   77 1    
   151   77   78 1    
   152   77   79 1    
   153   77  153 1    
   154   78  154 1    
   155   78  155 1    
   156   78  156 1    
   157   79   80 am   BACKBONE|DICT|INTERRES
   158   79  157 1    
   159   80   81 2    
@<TRIPOS>SUBSTRUCTURE
     1 UNK         1 GROUP             0       ****    0 ROOT    
