@<TRIPOS>MOLECULE
3R207
157   159    1
SMALL
USER_CHARGES


@<TRIPOS>ATOM
      1 CA        -45.8484  -30.5783    6.2095 C.3       0 UNK        -0.1975 
      2 C         -46.6986  -29.4060    6.6737 C.2       0 UNK         0.4852 
      3 O         -46.3773  -28.7898    7.6900 O.2       0 UNK        -0.5216 
      4 N         -47.7622  -29.0821    5.9228 N.am      1 UNK        -0.4461 
      5 CA        -48.7593  -28.0359    6.2071 C.3       1 UNK         0.0864 
      6 C6        -49.7254  -28.4087    7.3658 C.3       14 UNK        -0.0898 
      7 S7        -50.6190  -29.9613    7.0302 S.3       14 UNK        -0.2598 
      8 C8        -52.1518  -29.3439    6.2607 C.3       14 UNK         0.0286 
      9 C9        -53.1759  -28.8754    7.2865 C.ar      14 UNK        -0.0844 
     10 C10       -53.6397  -27.5541    7.2868 C.ar      14 UNK        -0.0881 
     11 C11       -54.6325  -27.1510    8.1880 C.ar      14 UNK        -0.0643 
     12 C12       -55.1393  -28.0735    9.1091 C.ar      14 UNK        -0.0930 
     13 C13       -54.6759  -29.3919    9.1238 C.ar      14 UNK        -0.0827 
     14 C14       -53.7030  -29.7885    8.2044 C.ar      14 UNK        -0.1249 
     15 C15       -55.2235  -30.3867   10.1331 C.3       14 UNK         0.0141 
     16 S16       -54.0867  -30.5287   11.5423 S.3       14 UNK        -0.2313 
     17 C17       -55.1750  -31.0929   12.8950 C.3       14 UNK        -0.0915 
     18 CA        -56.2841  -30.0862   13.3159 C.3       13 UNK         0.0968 
     19 C         -56.9955  -30.5511   14.6204 C.2       13 UNK         0.5732 
     20 N         -56.9674  -29.7930   15.7118 N.am      13 UNK        -0.7310 
     21 O         -57.5969  -31.6227   14.6385 O.2       13 UNK        -0.5035 
     22 N         -55.8047  -28.6970   13.3612 N.am      13 UNK        -0.4233 
     23 C         -56.5942  -27.6231   13.2203 C.2       13 UNK         0.4989 
     24 O         -57.7906  -27.6974   12.9335 O.2       13 UNK        -0.4996 
     25 CA        -55.9542  -26.2340   13.4293 C.3       12 UNK         0.0216 
     26 CB        -56.9620  -25.1905   13.9546 C.3       12 UNK        -0.1964 
     27 N         -54.7491  -26.2418   14.2666 N.am      12 UNK        -0.4276 
     28 C         -54.6213  -26.7062   15.5180 C.2       12 UNK         0.5020 
     29 O         -55.5534  -27.1904   16.1650 O.2       12 UNK        -0.5489 
     30 CA        -53.2015  -26.6668   16.1211 C.3       11 UNK         0.0294 
     31 CB        -53.0672  -27.5581   17.3731 C.3       11 UNK        -0.2019 
     32 N         -52.1321  -26.9895   15.1645 N.am      11 UNK        -0.4493 
     33 C         -52.0373  -28.0782   14.3809 C.2       11 UNK         0.4932 
     34 O         -52.9066  -28.9470   14.3209 O.2       11 UNK        -0.5029 
     35 CA        -50.7676  -28.2402   13.5184 C.3       10 UNK         0.0280 
     36 CB        -51.0596  -27.9353   12.0448 C.3       10 UNK        -0.1976 
     37 N         -49.6552  -27.3981   13.9632 N.am      10 UNK        -0.4242 
     38 C         -48.9021  -27.6633   15.0394 C.2       10 UNK         0.5072 
     39 O         -48.9977  -28.6966   15.7032 O.2       10 UNK        -0.5224 
     40 CA        -47.8856  -26.5938   15.4746 C.3       9 UNK         0.0343 
     41 CB        -46.4663  -26.9748   15.0245 C.3       9 UNK        -0.2003 
     42 N         -48.2005  -25.2327   15.0236 N.am      9 UNK        -0.4272 
     43 C         -49.2678  -24.5247   15.4254 C.2       9 UNK         0.4988 
     44 O         -50.1702  -24.9976   16.1171 O.2       9 UNK        -0.5108 
     45 CA        -49.3517  -23.0461   15.0202 C.3       8 UNK         0.0248 
     46 CB        -48.0719  -22.4972   14.3648 C.3       8 UNK        -0.2001 
     47 N         -50.4828  -22.8541   14.1145 N.am      8 UNK        -0.4140 
     48 C         -51.6396  -22.2651   14.4491 C.2       8 UNK         0.5028 
     49 O         -51.8822  -21.8330   15.5774 O.2       8 UNK        -0.5428 
     50 CA        -52.7083  -22.0787   13.3529 C.3       7 UNK         0.0264 
     51 CB        -52.9451  -20.5831   13.0789 C.3       7 UNK        -0.1988 
     52 N         -52.3987  -22.7380   12.0822 N.am      7 UNK        -0.4454 
     53 C         -52.5768  -24.0437   11.8460 C.2       7 UNK         0.5027 
     54 O         -52.9501  -24.8468   12.7006 O.2       7 UNK        -0.5083 
     55 CA        -52.2226  -24.5405   10.4263 C.3       6 UNK         0.0844 
     56 C56       -53.2625  -24.0913    9.3692 C.3       14 UNK        -0.0967 
     57 S57       -54.9307  -24.7837    9.6435 S.3       14 UNK        -0.2604 
     58 C58       -55.2194  -25.7464    8.1237 C.3       14 UNK         0.0134 
     59 N         -50.8580  -24.1847   10.0106 N.am      6 UNK        -0.4116 
     60 C         -49.7269  -24.3315   10.7185 C.2       5 UNK         0.5034 
     61 O         -49.6891  -24.7004   11.8950 O.2       5 UNK        -0.5045 
     62 CA        -48.4264  -23.9963    9.9663 C.3       5 UNK         0.0224 
     63 CB        -47.8177  -22.6429   10.3787 C.3       5 UNK        -0.1978 
     64 N         -47.4565  -25.0934   10.0298 N.am      5 UNK        -0.4737 
     65 C         -46.7858  -25.5733   11.0887 C.2       4 UNK         0.5027 
     66 O         -46.7599  -25.0563   12.2056 O.2       4 UNK        -0.5211 
     67 CA        -46.0058  -26.8760   10.8545 C.3       4 UNK         0.0297 
     68 CB        -46.9420  -28.0888   10.9873 C.3       4 UNK        -0.1993 
     69 N         -45.3482  -26.9078    9.5468 N.am      4 UNK        -0.4486 
     70 C         -44.2527  -26.1999    9.2380 C.2       3 UNK         0.4961 
     71 O         -43.6498  -25.4801   10.0348 O.2       3 UNK        -0.5105 
     72 CA        -43.7447  -26.3102    7.7928 C.3       3 UNK         0.0299 
     73 CB        -43.0251  -27.6493    7.5591 C.3       3 UNK        -0.1972 
     74 N         -44.8288  -26.1492    6.8230 N.am      3 UNK        -0.4305 
     75 C         -45.3751  -24.9709    6.4880 C.2       2 UNK         0.5006 
     76 O         -44.9988  -23.8889    6.9396 O.2       2 UNK        -0.5106 
     77 CA        -46.5235  -24.9883    5.4617 C.3       2 UNK         0.0296 
     78 CB        -45.9867  -24.6880    4.0525 C.3       2 UNK        -0.2002 
     79 N         -47.2723  -26.2480    5.4338 N.am      2 UNK        -0.4032 
     80 C         -48.1055  -26.6517    6.4031 C.2       1 UNK         0.5000 
     81 O         -48.3257  -25.9985    7.4235 O.2       1 UNK        -0.5238 
     82 H82       -44.8346  -30.2439    5.9915 H         1 UNK         0.0889 
     83 H83       -46.2530  -31.0470    5.3127 H         1 UNK         0.0889 
     84 H84       -45.7970  -31.3337    6.9930 H         1 UNK         0.0889 
     85 H85       -47.9541  -29.6341    5.0983 H         1 UNK         0.3028 
     86 H86       -49.3633  -27.9406    5.3033 H         1 UNK         0.0864 
     87 H87       -49.1747  -28.5280    8.3000 H         1 UNK         0.0720 
     88 H88       -50.4539  -27.6148    7.5427 H         1 UNK         0.0720 
     89 H89       -52.5938  -30.1510    5.6749 H         1 UNK         0.0814 
     90 H90       -51.9118  -28.5514    5.5503 H         1 UNK         0.0814 
     91 H91       -53.2535  -26.8487    6.5638 H         1 UNK         0.1469 
     92 H92       -55.9035  -27.7637    9.8091 H         1 UNK         0.1381 
     93 H93       -53.3487  -30.8106    8.2075 H         1 UNK         0.1206 
     94 H94       -55.3544  -31.3662    9.6710 H         1 UNK         0.0813 
     95 H95       -56.2108  -30.0666   10.4641 H         1 UNK         0.0813 
     96 H96       -54.5246  -31.3064   13.7455 H         1 UNK         0.0638 
     97 H97       -55.6182  -32.0475   12.6060 H         1 UNK         0.0638 
     98 H98       -57.0589  -30.1338   12.5500 H         1 UNK         0.0568 
     99 H99       -57.4389  -30.1125   16.5423 H         1 UNK         0.3450 
    100 H100      -56.4730  -28.9059   15.7247 H         1 UNK         0.3450 
    101 H101      -54.8298  -28.5796   13.6163 H         1 UNK         0.2987 
    102 H102      -55.6269  -25.9084   12.4413 H         1 UNK         0.0766 
    103 H103      -56.4956  -24.2114   14.0646 H         1 UNK         0.0798 
    104 H104      -57.3719  -25.4789   14.9231 H         1 UNK         0.0798 
    105 H105      -57.8003  -25.0711   13.2672 H         1 UNK         0.0798 
    106 H106      -53.9217  -25.8544   13.8102 H         1 UNK         0.3198 
    107 H107      -53.0323  -25.6336   16.4287 H         1 UNK         0.0843 
    108 H108      -53.2598  -28.6064   17.1417 H         1 UNK         0.0831 
    109 H109      -53.7752  -27.2588   18.1469 H         1 UNK         0.0831 
    110 H110      -52.0684  -27.4869   17.8040 H         1 UNK         0.0831 
    111 H111      -51.3591  -26.3315   15.1649 H         1 UNK         0.3133 
    112 H112      -50.4631  -29.2867   13.5869 H         1 UNK         0.0566 
    113 H113      -50.2021  -28.1593   11.4102 H         1 UNK         0.0814 
    114 H114      -51.9028  -28.5184   11.6739 H         1 UNK         0.0814 
    115 H115      -51.3051  -26.8858   11.9188 H         1 UNK         0.0814 
    116 H116      -49.5085  -26.5259   13.4683 H         1 UNK         0.3091 
    117 H117      -47.8940  -26.5779   16.5665 H         1 UNK         0.0702 
    118 H118      -45.7287  -26.2542   15.3778 H         1 UNK         0.0785 
    119 H119      -46.3879  -27.0314   13.9398 H         1 UNK         0.0785 
    120 H120      -46.1812  -27.9505   15.4205 H         1 UNK         0.0785 
    121 H121      -47.5529  -24.8134   14.3664 H         1 UNK         0.2998 
    122 H122      -49.5034  -22.4838   15.9437 H         1 UNK         0.0697 
    123 H123      -47.8326  -23.0319   13.4499 H         1 UNK         0.0825 
    124 H124      -47.2155  -22.5833   15.0350 H         1 UNK         0.0825 
    125 H125      -48.1788  -21.4417   14.1142 H         1 UNK         0.0825 
    126 H126      -50.3909  -23.2782   13.1977 H         1 UNK         0.3029 
    127 H127      -53.6373  -22.5011   13.7433 H         1 UNK         0.0897 
    128 H128      -53.2328  -20.0574   13.9906 H         1 UNK         0.0792 
    129 H129      -53.7484  -20.4335   12.3572 H         1 UNK         0.0792 
    130 H130      -52.0487  -20.0965   12.6924 H         1 UNK         0.0792 
    131 H131      -52.0493  -22.1513   11.3382 H         1 UNK         0.3086 
    132 H132      -52.2567  -25.6294   10.4424 H         1 UNK         0.0583 
    133 H133      -53.3419  -23.0031    9.3366 H         1 UNK         0.1020 
    134 H134      -52.9234  -24.3901    8.3762 H         1 UNK         0.1020 
    135 H135      -56.2967  -25.8328    7.9758 H         1 UNK         0.0694 
    136 H136      -54.8439  -25.1973    7.2589 H         1 UNK         0.0694 
    137 H137      -50.7705  -23.8635    9.0578 H         1 UNK         0.2989 
    138 H138      -48.6807  -23.9048    8.9095 H         1 UNK         0.1055 
    139 H139      -48.5733  -21.8565   10.3875 H         1 UNK         0.0806 
    140 H140      -47.0427  -22.3386    9.6750 H         1 UNK         0.0806 
    141 H141      -47.3628  -22.6691   11.3648 H         1 UNK         0.0806 
    142 H142      -47.4160  -25.6361    9.1722 H         1 UNK         0.3061 
    143 H143      -45.2387  -26.9515   11.6283 H         1 UNK         0.0734 
    144 H144      -46.3920  -29.0257   10.8983 H         1 UNK         0.0832 
    145 H145      -47.4431  -28.0956   11.9559 H         1 UNK         0.0832 
    146 H146      -47.7175  -28.0840   10.2207 H         1 UNK         0.0832 
    147 H147      -45.7600  -27.5154    8.8385 H         1 UNK         0.3156 
    148 H148      -43.0169  -25.5117    7.6315 H         1 UNK         0.0589 
    149 H149      -43.6859  -28.5029    7.7109 H         1 UNK         0.0808 
    150 H150      -42.6222  -27.7122    6.5482 H         1 UNK         0.0808 
    151 H151      -42.1871  -27.7632    8.2482 H         1 UNK         0.0808 
    152 H152      -45.2274  -26.9939    6.4404 H         1 UNK         0.3098 
    153 H153      -47.2161  -24.1899    5.7376 H         1 UNK         0.0720 
    154 H154      -46.7964  -24.6123    3.3264 H         1 UNK         0.0791 
    155 H155      -45.2966  -25.4598    3.7089 H         1 UNK         0.0791 
    156 H156      -45.4487  -23.7389    4.0340 H         1 UNK         0.0791 
    157 H157      -47.1330  -26.8473    4.6326 H         1 UNK         0.3028 
@<TRIPOS>BOND
     1    1    2 1    
     2    1   82 1    
     3    1   83 1    
     4    1   84 1    
     5    2    3 2    
     6    2    4 am   BACKBONE|DICT|INTERRES
     7    4    5 1    
     8    4   85 1    
     9    5    6 1    
    10    5   80 1    
    11    5   86 1    
    12    6    7 1    
    13    6   87 1    
    14    6   88 1    
    15    7    8 1    
    16    8    9 1    
    17    8   89 1    
    18    8   90 1    
    19    9   10 ar   
    20    9   14 ar   
    21   10   11 ar   
    22   10   91 1    
    23   11   12 ar   
    24   11   58 1    
    25   12   13 ar   
    26   12   92 1    
    27   13   14 ar   
    28   13   15 1    
    29   14   93 1    
    30   15   16 1    
    31   15   94 1    
    32   15   95 1    
    33   16   17 1    
    34   17   18 1    
    35   17   96 1    
    36   17   97 1    
    37   18   19 1    
    38   18   22 1    
    39   18   98 1    
    40   19   20 am   BACKBONE|DICT|INTERRES
    41   19   21 2    
    42   20   99 1    
    43   20  100 1    
    44   22   23 am   BACKBONE|DICT|INTERRES
    45   22  101 1    
    46   23   24 2    
    47   23   25 1    
    48   25   26 1    
    49   25   27 1    
    50   25  102 1    
    51   26  103 1    
    52   26  104 1    
    53   26  105 1    
    54   27   28 am   BACKBONE|DICT|INTERRES
    55   27  106 1    
    56   28   29 2    
    57   28   30 1    
    58   30   31 1    
    59   30   32 1    
    60   30  107 1    
    61   31  108 1    
    62   31  109 1    
    63   31  110 1    
    64   32   33 am   BACKBONE|DICT|INTERRES
    65   32  111 1    
    66   33   34 2    
    67   33   35 1    
    68   35   36 1    
    69   35   37 1    
    70   35  112 1    
    71   36  113 1    
    72   36  114 1    
    73   36  115 1    
    74   37   38 am   BACKBONE|DICT|INTERRES
    75   37  116 1    
    76   38   39 2    
    77   38   40 1    
    78   40   41 1    
    79   40   42 1    
    80   40  117 1    
    81   41  118 1    
    82   41  119 1    
    83   41  120 1    
    84   42   43 am   BACKBONE|DICT|INTERRES
    85   42  121 1    
    86   43   44 2    
    87   43   45 1    
    88   45   46 1    
    89   45   47 1    
    90   45  122 1    
    91   46  123 1    
    92   46  124 1    
    93   46  125 1    
    94   47   48 am   BACKBONE|DICT|INTERRES
    95   47  126 1    
    96   48   49 2    
    97   48   50 1    
    98   50   51 1    
    99   50   52 1    
   100   50  127 1    
   101   51  128 1    
   102   51  129 1    
   103   51  130 1    
   104   52   53 am   BACKBONE|DICT|INTERRES
   105   52  131 1    
   106   53   54 2    
   107   53   55 1    
   108   55   56 1    
   109   55   59 1    
   110   55  132 1    
   111   56   57 1    
   112   56  133 1    
   113   56  134 1    
   114   57   58 1    
   115   58  135 1    
   116   58  136 1    
   117   59   60 am   BACKBONE|DICT|INTERRES
   118   59  137 1    
   119   60   61 2    
   120   60   62 1    
   121   62   63 1    
   122   62   64 1    
   123   62  138 1    
   124   63  139 1    
   125   63  140 1    
   126   63  141 1    
   127   64   65 am   BACKBONE|DICT|INTERRES
   128   64  142 1    
   129   65   66 2    
   130   65   67 1    
   131   67   68 1    
   132   67   69 1    
   133   67  143 1    
   134   68  144 1    
   135   68  145 1    
   136   68  146 1    
   137   69   70 am   BACKBONE|DICT|INTERRES
   138   69  147 1    
   139   70   71 2    
   140   70   72 1    
   141   72   73 1    
   142   72   74 1    
   143   72  148 1    
   144   73  149 1    
   145   73  150 1    
   146   73  151 1    
   147   74   75 am   BACKBONE|DICT|INTERRES
   148   74  152 1    
   149   75   76 2    
   150   75   77 1    
   151   77   78 1    
   152   77   79 1    
   153   77  153 1    
   154   78  154 1    
   155   78  155 1    
   156   78  156 1    
   157   79   80 am   BACKBONE|DICT|INTERRES
   158   79  157 1    
   159   80   81 2    
@<TRIPOS>SUBSTRUCTURE
     1 UNK         1 GROUP             0       ****    0 ROOT    
