@<TRIPOS>MOLECULE
3R207
157   159    1
SMALL
USER_CHARGES


@<TRIPOS>ATOM
      1 CA        -50.6889  -27.1043    1.8615 C.3       0 UNK        -0.1975 
      2 C         -50.9952  -26.5870    3.2586 C.2       0 UNK         0.4852 
      3 O         -51.5234  -25.4836    3.4039 O.2       0 UNK        -0.5216 
      4 N         -50.6519  -27.3640    4.2939 N.am      1 UNK        -0.4461 
      5 CA        -50.8624  -27.0694    5.7180 C.3       1 UNK         0.0864 
      6 C6        -50.9050  -28.3721    6.5596 C.3       14 UNK        -0.0898 
      7 S7        -49.4807  -29.4920    6.3011 S.3       14 UNK        -0.2598 
      8 C8        -50.1575  -31.0782    6.8917 C.3       14 UNK         0.0286 
      9 C9        -50.6310  -30.9886    8.3356 C.ar      14 UNK        -0.0844 
     10 C10       -49.7067  -30.9931    9.3833 C.ar      14 UNK        -0.0881 
     11 C11       -50.1367  -30.8672   10.7073 C.ar      14 UNK        -0.0643 
     12 C12       -51.5020  -30.7361   10.9802 C.ar      14 UNK        -0.0930 
     13 C13       -52.4385  -30.7367    9.9420 C.ar      14 UNK        -0.0827 
     14 C14       -51.9948  -30.8813    8.6227 C.ar      14 UNK        -0.1249 
     15 C15       -53.9242  -30.6025   10.2582 C.3       14 UNK         0.0141 
     16 S16       -54.7603  -29.3672    9.2111 S.3       14 UNK        -0.2313 
     17 C17       -56.4629  -29.4666    9.8596 C.3       14 UNK        -0.0915 
     18 CA        -57.0537  -28.0682   10.2011 C.3       13 UNK         0.0968 
     19 C         -58.5645  -28.1283   10.5863 C.2       13 UNK         0.5732 
     20 N         -59.0620  -27.2497   11.4487 N.am      13 UNK        -0.7310 
     21 O         -59.3101  -28.9589   10.0715 O.2       13 UNK        -0.5035 
     22 N         -56.2056  -27.2890   11.1231 N.am      13 UNK        -0.4233 
     23 C         -55.9313  -27.5906   12.3986 C.2       13 UNK         0.4989 
     24 O         -56.3833  -28.5705   12.9963 O.2       13 UNK        -0.4996 
     25 CA        -55.0360  -26.5783   13.1333 C.3       12 UNK         0.0216 
     26 CB        -55.8259  -25.2998   13.4678 C.3       12 UNK        -0.1964 
     27 N         -54.4839  -27.1190   14.3745 N.am      12 UNK        -0.4276 
     28 C         -53.4867  -28.0080   14.4586 C.2       12 UNK         0.5020 
     29 O         -52.8924  -28.4707   13.4838 O.2       12 UNK        -0.5489 
     30 CA        -53.0590  -28.3835   15.8869 C.3       11 UNK         0.0294 
     31 CB        -51.8767  -29.3686   15.9359 C.3       11 UNK        -0.2019 
     32 N         -52.6916  -27.1653   16.6100 N.am      11 UNK        -0.4493 
     33 C         -53.4686  -26.5289   17.4964 C.2       11 UNK         0.4932 
     34 O         -54.5833  -26.9365   17.8252 O.2       11 UNK        -0.5029 
     35 CA        -52.9606  -25.1906   18.0706 C.3       10 UNK         0.0280 
     36 CB        -53.3530  -24.9940   19.5506 C.3       10 UNK        -0.1976 
     37 N         -51.5296  -24.9417   17.8552 N.am      10 UNK        -0.4242 
     38 C         -50.4851  -25.5923   18.3959 C.2       10 UNK         0.5072 
     39 O         -50.6002  -26.5085   19.2108 O.2       10 UNK        -0.5224 
     40 CA        -49.0714  -25.1712   17.9426 C.3       9 UNK         0.0343 
     41 CB        -48.2104  -26.3981   17.5890 C.3       9 UNK        -0.2003 
     42 N         -49.1134  -24.2812   16.7807 N.am      9 UNK        -0.4272 
     43 C         -49.0215  -22.9442   16.8172 C.2       9 UNK         0.4988 
     44 O         -48.7934  -22.3013   17.8420 O.2       9 UNK        -0.5108 
     45 CA        -49.2525  -22.1877   15.4938 C.3       8 UNK         0.0248 
     46 CB        -47.9085  -21.8016   14.8558 C.3       8 UNK        -0.2001 
     47 N         -50.0578  -22.9400   14.5238 N.am      8 UNK        -0.4140 
     48 C         -51.3550  -23.2464   14.6932 C.2       8 UNK         0.5028 
     49 O         -52.0160  -22.8750   15.6626 O.2       8 UNK        -0.5428 
     50 CA        -52.0145  -24.1834   13.6625 C.3       7 UNK         0.0264 
     51 CB        -52.7274  -23.3701   12.5712 C.3       7 UNK        -0.1988 
     52 N         -51.0821  -25.1253   13.0376 N.am      7 UNK        -0.4454 
     53 C         -50.3346  -26.0205   13.7010 C.2       7 UNK         0.5027 
     54 O         -50.4352  -26.2101   14.9151 O.2       7 UNK        -0.5083 
     55 CA        -49.2477  -26.7800   12.9091 C.3       6 UNK         0.0844 
     56 C56       -49.6818  -28.2387   12.6508 C.3       14 UNK        -0.0967 
     57 S57       -48.3086  -29.2531   12.0163 S.3       14 UNK        -0.2604 
     58 C58       -49.1230  -30.8691   11.8409 C.3       14 UNK         0.0134 
     59 N         -48.8228  -26.1188   11.6664 N.am      6 UNK        -0.4116 
     60 C         -48.3008  -24.8891   11.5547 C.2       5 UNK         0.5034 
     61 O         -48.2020  -24.1042   12.4995 O.2       5 UNK        -0.5045 
     62 CA        -47.8560  -24.4557   10.1437 C.3       5 UNK         0.0224 
     63 CB        -46.8412  -23.2933   10.1701 C.3       5 UNK        -0.1978 
     64 N         -47.3649  -25.5644    9.3126 N.am      5 UNK        -0.4737 
     65 C         -46.2923  -26.3425    9.5344 C.2       4 UNK         0.5027 
     66 O         -45.5572  -26.2459   10.5167 O.2       4 UNK        -0.5211 
     67 CA        -45.9774  -27.3996    8.4648 C.3       4 UNK         0.0297 
     68 CB        -46.8309  -28.6588    8.6768 C.3       4 UNK        -0.1993 
     69 N         -46.2141  -26.8699    7.1209 N.am      4 UNK        -0.4486 
     70 C         -45.2693  -26.3102    6.3511 C.2       3 UNK         0.4961 
     71 O         -44.0769  -26.2580    6.6549 O.2       3 UNK        -0.5105 
     72 CA        -45.7234  -25.6974    5.0124 C.3       3 UNK         0.0299 
     73 CB        -45.6707  -26.7508    3.8940 C.3       3 UNK        -0.1972 
     74 N         -47.0693  -25.1260    5.0727 N.am      3 UNK        -0.4305 
     75 C         -47.4171  -24.0513    5.7959 C.2       2 UNK         0.5006 
     76 O         -46.6106  -23.3395    6.3939 O.2       2 UNK        -0.5106 
     77 CA        -48.9200  -23.7226    5.8906 C.3       2 UNK         0.0296 
     78 CB        -49.2725  -22.5482    4.9637 C.3       2 UNK        -0.2002 
     79 N         -49.8094  -24.8517    5.5911 N.am      2 UNK        -0.4032 
     80 C         -49.8677  -26.0129    6.2580 C.2       1 UNK         0.5000 
     81 O         -49.1451  -26.2627    7.2263 O.2       1 UNK        -0.5238 
     82 H82       -50.2148  -28.0854    1.8849 H         1 UNK         0.0889 
     83 H83       -50.0204  -26.4163    1.3447 H         1 UNK         0.0889 
     84 H84       -51.6085  -27.1858    1.2826 H         1 UNK         0.0889 
     85 H85       -50.1981  -28.2502    4.1179 H         1 UNK         0.3028 
     86 H86       -51.8482  -26.6089    5.8148 H         1 UNK         0.0864 
     87 H87       -51.8130  -28.9209    6.3053 H         1 UNK         0.0720 
     88 H88       -50.9902  -28.1474    7.6249 H         1 UNK         0.0720 
     89 H89       -49.3881  -31.8468    6.8059 H         1 UNK         0.0814 
     90 H90       -50.9729  -31.3879    6.2362 H         1 UNK         0.0814 
     91 H91       -48.6502  -31.0748    9.1671 H         1 UNK         0.1469 
     92 H92       -51.8345  -30.6256   12.0039 H         1 UNK         0.1381 
     93 H93       -52.7131  -30.8850    7.8144 H         1 UNK         0.1206 
     94 H94       -54.0679  -30.3220   11.3036 H         1 UNK         0.0813 
     95 H95       -54.4026  -31.5733   10.1227 H         1 UNK         0.0813 
     96 H96       -57.0662  -29.9623    9.0972 H         1 UNK         0.0638 
     97 H97       -56.4924  -30.1153   10.7364 H         1 UNK         0.0638 
     98 H98       -57.0490  -27.4962    9.2727 H         1 UNK         0.0568 
     99 H99       -60.0416  -27.2898   11.6817 H         1 UNK         0.3450 
    100 H100      -58.4696  -26.5547   11.8720 H         1 UNK         0.3450 
    101 H101      -55.8070  -26.4500   10.7283 H         1 UNK         0.2987 
    102 H102      -54.2024  -26.3200   12.4765 H         1 UNK         0.0766 
    103 H103      -55.2102  -24.5753   14.0006 H         1 UNK         0.0798 
    104 H104      -56.6964  -25.5153   14.0891 H         1 UNK         0.0798 
    105 H105      -56.1852  -24.8069   12.5636 H         1 UNK         0.0798 
    106 H106      -54.9356  -26.8362   15.2327 H         1 UNK         0.3198 
    107 H107      -53.9147  -28.8734   16.3564 H         1 UNK         0.0843 
    108 H108      -50.9515  -28.9051   15.5978 H         1 UNK         0.0831 
    109 H109      -52.0610  -30.2438   15.3114 H         1 UNK         0.0831 
    110 H110      -51.7100  -29.7255   16.9522 H         1 UNK         0.0831 
    111 H111      -51.8202  -26.7323   16.3191 H         1 UNK         0.3133 
    112 H112      -53.4753  -24.4175   17.4985 H         1 UNK         0.0566 
    113 H113      -52.9953  -24.0380   19.9330 H         1 UNK         0.0814 
    114 H114      -54.4368  -25.0036   19.6727 H         1 UNK         0.0814 
    115 H115      -52.9511  -25.7829   20.1868 H         1 UNK         0.0814 
    116 H116      -51.3329  -24.2013   17.1910 H         1 UNK         0.3091 
    117 H117      -48.6026  -24.6615   18.7867 H         1 UNK         0.0702 
    118 H118      -47.2138  -26.1018   17.2615 H         1 UNK         0.0785 
    119 H119      -48.6612  -26.9942   16.7947 H         1 UNK         0.0785 
    120 H120      -48.0835  -27.0512   18.4533 H         1 UNK         0.0785 
    121 H121      -49.3418  -24.7306   15.9013 H         1 UNK         0.2998 
    122 H122      -49.7921  -21.2687   15.7323 H         1 UNK         0.0697 
    123 H123      -47.3062  -22.6801   14.6208 H         1 UNK         0.0825 
    124 H124      -47.3219  -21.1767   15.5305 H         1 UNK         0.0825 
    125 H125      -48.0520  -21.2377   13.9340 H         1 UNK         0.0825 
    126 H126      -49.5606  -23.3101   13.7181 H         1 UNK         0.3029 
    127 H127      -52.7599  -24.7725   14.1992 H         1 UNK         0.0897 
    128 H128      -52.0250  -22.7713   11.9899 H         1 UNK         0.0792 
    129 H129      -53.4548  -22.6849   13.0091 H         1 UNK         0.0792 
    130 H130      -53.2699  -24.0162   11.8811 H         1 UNK         0.0792 
    131 H131      -50.9395  -25.0326   12.0430 H         1 UNK         0.3086 
    132 H132      -48.3712  -26.8022   13.5603 H         1 UNK         0.0583 
    133 H133      -50.0402  -28.7080   13.5664 H         1 UNK         0.1020 
    134 H134      -50.5155  -28.2678   11.9467 H         1 UNK         0.1020 
    135 H135      -48.3629  -31.6273   11.6475 H         1 UNK         0.0694 
    136 H136      -49.5959  -31.1444   12.7850 H         1 UNK         0.0694 
    137 H137      -48.8449  -26.6945   10.8373 H         1 UNK         0.2989 
    138 H138      -48.7571  -24.0885    9.6500 H         1 UNK         0.1055 
    139 H139      -47.2631  -22.4147   10.6598 H         1 UNK         0.0806 
    140 H140      -46.5548  -22.9938    9.1620 H         1 UNK         0.0806 
    141 H141      -45.9332  -23.5606   10.7114 H         1 UNK         0.0806 
    142 H142      -47.9388  -25.7786    8.4978 H         1 UNK         0.3061 
    143 H143      -44.9290  -27.6869    8.5701 H         1 UNK         0.0734 
    144 H144      -46.6551  -29.3961    7.8936 H         1 UNK         0.0832 
    145 H145      -46.5849  -29.1337    9.6264 H         1 UNK         0.0832 
    146 H146      -47.8981  -28.4322    8.6899 H         1 UNK         0.0832 
    147 H147      -47.1811  -26.8312    6.8197 H         1 UNK         0.3156 
    148 H148      -45.0274  -24.8945    4.7601 H         1 UNK         0.0589 
    149 H149      -46.3603  -27.5753    4.0805 H         1 UNK         0.0808 
    150 H150      -45.9190  -26.3159    2.9256 H         1 UNK         0.0808 
    151 H151      -44.6700  -27.1771    3.8083 H         1 UNK         0.0808 
    152 H152      -47.7995  -25.6307    4.5932 H         1 UNK         0.3098 
    153 H153      -49.1152  -23.4179    6.9208 H         1 UNK         0.0720 
    154 H154      -50.3100  -22.2387    5.0921 H         1 UNK         0.0791 
    155 H155      -49.1264  -22.8057    3.9138 H         1 UNK         0.0791 
    156 H156      -48.6484  -21.6792    5.1772 H         1 UNK         0.0791 
    157 H157      -50.4275  -24.7544    4.7887 H         1 UNK         0.3028 
@<TRIPOS>BOND
     1    1    2 1    
     2    1   82 1    
     3    1   83 1    
     4    1   84 1    
     5    2    3 2    
     6    2    4 am   BACKBONE|DICT|INTERRES
     7    4    5 1    
     8    4   85 1    
     9    5    6 1    
    10    5   80 1    
    11    5   86 1    
    12    6    7 1    
    13    6   87 1    
    14    6   88 1    
    15    7    8 1    
    16    8    9 1    
    17    8   89 1    
    18    8   90 1    
    19    9   10 ar   
    20    9   14 ar   
    21   10   11 ar   
    22   10   91 1    
    23   11   12 ar   
    24   11   58 1    
    25   12   13 ar   
    26   12   92 1    
    27   13   14 ar   
    28   13   15 1    
    29   14   93 1    
    30   15   16 1    
    31   15   94 1    
    32   15   95 1    
    33   16   17 1    
    34   17   18 1    
    35   17   96 1    
    36   17   97 1    
    37   18   19 1    
    38   18   22 1    
    39   18   98 1    
    40   19   20 am   BACKBONE|DICT|INTERRES
    41   19   21 2    
    42   20   99 1    
    43   20  100 1    
    44   22   23 am   BACKBONE|DICT|INTERRES
    45   22  101 1    
    46   23   24 2    
    47   23   25 1    
    48   25   26 1    
    49   25   27 1    
    50   25  102 1    
    51   26  103 1    
    52   26  104 1    
    53   26  105 1    
    54   27   28 am   BACKBONE|DICT|INTERRES
    55   27  106 1    
    56   28   29 2    
    57   28   30 1    
    58   30   31 1    
    59   30   32 1    
    60   30  107 1    
    61   31  108 1    
    62   31  109 1    
    63   31  110 1    
    64   32   33 am   BACKBONE|DICT|INTERRES
    65   32  111 1    
    66   33   34 2    
    67   33   35 1    
    68   35   36 1    
    69   35   37 1    
    70   35  112 1    
    71   36  113 1    
    72   36  114 1    
    73   36  115 1    
    74   37   38 am   BACKBONE|DICT|INTERRES
    75   37  116 1    
    76   38   39 2    
    77   38   40 1    
    78   40   41 1    
    79   40   42 1    
    80   40  117 1    
    81   41  118 1    
    82   41  119 1    
    83   41  120 1    
    84   42   43 am   BACKBONE|DICT|INTERRES
    85   42  121 1    
    86   43   44 2    
    87   43   45 1    
    88   45   46 1    
    89   45   47 1    
    90   45  122 1    
    91   46  123 1    
    92   46  124 1    
    93   46  125 1    
    94   47   48 am   BACKBONE|DICT|INTERRES
    95   47  126 1    
    96   48   49 2    
    97   48   50 1    
    98   50   51 1    
    99   50   52 1    
   100   50  127 1    
   101   51  128 1    
   102   51  129 1    
   103   51  130 1    
   104   52   53 am   BACKBONE|DICT|INTERRES
   105   52  131 1    
   106   53   54 2    
   107   53   55 1    
   108   55   56 1    
   109   55   59 1    
   110   55  132 1    
   111   56   57 1    
   112   56  133 1    
   113   56  134 1    
   114   57   58 1    
   115   58  135 1    
   116   58  136 1    
   117   59   60 am   BACKBONE|DICT|INTERRES
   118   59  137 1    
   119   60   61 2    
   120   60   62 1    
   121   62   63 1    
   122   62   64 1    
   123   62  138 1    
   124   63  139 1    
   125   63  140 1    
   126   63  141 1    
   127   64   65 am   BACKBONE|DICT|INTERRES
   128   64  142 1    
   129   65   66 2    
   130   65   67 1    
   131   67   68 1    
   132   67   69 1    
   133   67  143 1    
   134   68  144 1    
   135   68  145 1    
   136   68  146 1    
   137   69   70 am   BACKBONE|DICT|INTERRES
   138   69  147 1    
   139   70   71 2    
   140   70   72 1    
   141   72   73 1    
   142   72   74 1    
   143   72  148 1    
   144   73  149 1    
   145   73  150 1    
   146   73  151 1    
   147   74   75 am   BACKBONE|DICT|INTERRES
   148   74  152 1    
   149   75   76 2    
   150   75   77 1    
   151   77   78 1    
   152   77   79 1    
   153   77  153 1    
   154   78  154 1    
   155   78  155 1    
   156   78  156 1    
   157   79   80 am   BACKBONE|DICT|INTERRES
   158   79  157 1    
   159   80   81 2    
@<TRIPOS>SUBSTRUCTURE
     1 UNK         1 GROUP             0       ****    0 ROOT    
