@<TRIPOS>MOLECULE
3R207
157   159    1
SMALL
USER_CHARGES


@<TRIPOS>ATOM
      1 CA        -46.9092  -28.1079   -0.4935 C.3       0 UNK        -0.1975 
      2 C         -47.7084  -27.4962    0.6476 C.2       0 UNK         0.4852 
      3 O         -48.2605  -26.4066    0.4918 O.2       0 UNK        -0.5216 
      4 N         -47.7713  -28.1871    1.7952 N.am      1 UNK        -0.4461 
      5 CA        -48.4961  -27.7530    2.9988 C.3       1 UNK         0.0864 
      6 C6        -48.7794  -28.9534    3.9433 C.3       14 UNK        -0.0898 
      7 S7        -50.3889  -28.8207    4.7919 S.3       14 UNK        -0.2598 
      8 C8        -49.8520  -28.4676    6.4910 C.3       14 UNK         0.0286 
      9 C9        -51.0390  -28.2520    7.4161 C.ar      14 UNK        -0.0844 
     10 C10       -51.6068  -26.9812    7.5406 C.ar      14 UNK        -0.0881 
     11 C11       -52.6914  -26.7715    8.3954 C.ar      14 UNK        -0.0643 
     12 C12       -53.2085  -27.8459    9.1229 C.ar      14 UNK        -0.0930 
     13 C13       -52.6526  -29.1264    9.0130 C.ar      14 UNK        -0.0827 
     14 C14       -51.5639  -29.3173    8.1549 C.ar      14 UNK        -0.1249 
     15 C15       -53.1657  -30.3085    9.8388 C.3       14 UNK         0.0141 
     16 S16       -54.8990  -30.1609   10.3957 S.3       14 UNK        -0.2313 
     17 C17       -54.9206  -31.3053   11.8191 C.3       14 UNK        -0.0915 
     18 CA        -54.8156  -30.6000   13.2020 C.3       13 UNK         0.0968 
     19 C         -53.3648  -30.1361   13.5411 C.2       13 UNK         0.5732 
     20 N         -53.1302  -28.8976   13.9590 N.am      13 UNK        -0.7310 
     21 O         -52.4293  -30.9241   13.4297 O.2       13 UNK        -0.5035 
     22 N         -55.8397  -29.5551   13.3503 N.am      13 UNK        -0.4233 
     23 C         -56.3524  -29.1438   14.5130 C.2       13 UNK         0.4989 
     24 O         -56.1484  -29.6956   15.5970 O.2       13 UNK        -0.4996 
     25 CA        -57.2422  -27.8899   14.4509 C.3       12 UNK         0.0216 
     26 CB        -58.7287  -28.2746   14.5272 C.3       12 UNK        -0.1964 
     27 N         -56.9256  -26.9455   15.5261 N.am      12 UNK        -0.4276 
     28 C         -55.7302  -26.3691   15.7092 C.2       12 UNK         0.5020 
     29 O         -54.7697  -26.5193   14.9469 O.2       12 UNK        -0.5489 
     30 CA        -55.5794  -25.5049   16.9676 C.3       11 UNK         0.0294 
     31 CB        -55.5739  -26.3889   18.2326 C.3       11 UNK        -0.2019 
     32 N         -54.3271  -24.7616   16.8732 N.am      11 UNK        -0.4493 
     33 C         -53.9377  -23.7487   17.6574 C.2       11 UNK         0.4932 
     34 O         -54.6554  -23.2348   18.5175 O.2       11 UNK        -0.5029 
     35 CA        -52.4917  -23.2506   17.4543 C.3       10 UNK         0.0280 
     36 CB        -51.9769  -22.3660   18.6095 C.3       10 UNK        -0.1976 
     37 N         -51.5718  -24.3610   17.1770 N.am      10 UNK        -0.4242 
     38 C         -51.2793  -25.3973   17.9795 C.2       10 UNK         0.5072 
     39 O         -51.6330  -25.4884   19.1558 O.2       10 UNK        -0.5224 
     40 CA        -50.4934  -26.5594   17.3502 C.3       9 UNK         0.0343 
     41 CB        -51.4736  -27.6114   16.8061 C.3       9 UNK        -0.2003 
     42 N         -49.5937  -26.1325   16.2758 N.am      9 UNK        -0.4272 
     43 C         -48.4272  -25.5026   16.4801 C.2       9 UNK         0.4988 
     44 O         -47.9679  -25.2542   17.5956 O.2       9 UNK        -0.5108 
     45 CA        -47.6425  -25.0654   15.2308 C.3       8 UNK         0.0248 
     46 CB        -46.9214  -26.2631   14.5930 C.3       8 UNK        -0.2001 
     47 N         -48.4887  -24.4016   14.2359 N.am      8 UNK        -0.4140 
     48 C         -49.1063  -23.2264   14.4309 C.2       8 UNK         0.5028 
     49 O         -48.9912  -22.5471   15.4511 O.2       8 UNK        -0.5428 
     50 CA        -50.0293  -22.7328   13.3078 C.3       7 UNK         0.0264 
     51 CB        -49.2372  -21.9469   12.2505 C.3       7 UNK        -0.1988 
     52 N         -50.7524  -23.8301   12.6662 N.am      7 UNK        -0.4454 
     53 C         -51.7623  -24.5060   13.2315 C.2       7 UNK         0.5027 
     54 O         -52.1926  -24.2730   14.3606 O.2       7 UNK        -0.5083 
     55 CA        -52.3756  -25.6544   12.4063 C.3       6 UNK         0.0844 
     56 C56       -53.3695  -25.1122   11.3469 C.3       14 UNK        -0.0967 
     57 S57       -52.5713  -24.4100    9.8532 S.3       14 UNK        -0.2604 
     58 C58       -53.3188  -25.3905    8.5138 C.3       14 UNK         0.0134 
     59 N         -51.3536  -26.5357   11.8355 N.am      6 UNK        -0.4116 
     60 C         -50.4436  -27.2246   12.5393 C.2       5 UNK         0.5034 
     61 O         -50.4420  -27.3031   13.7675 O.2       5 UNK        -0.5045 
     62 CA        -49.3052  -27.8932   11.7502 C.3       5 UNK         0.0224 
     63 CB        -49.6105  -29.3726   11.4841 C.3       5 UNK        -0.1978 
     64 N         -48.9891  -27.2205   10.4878 N.am      5 UNK        -0.4737 
     65 C         -48.5571  -25.9590   10.3775 C.2       4 UNK         0.5027 
     66 O         -48.3599  -25.2214   11.3453 O.2       4 UNK        -0.5211 
     67 CA        -48.3326  -25.4408    8.9471 C.3       4 UNK         0.0297 
     68 CB        -48.4934  -23.9128    8.8583 C.3       4 UNK        -0.1993 
     69 N         -47.0257  -25.8153    8.4066 N.am      4 UNK        -0.4486 
     70 C         -46.6063  -27.0559    8.1273 C.2       3 UNK         0.4961 
     71 O         -47.2771  -28.0717    8.3126 O.2       3 UNK        -0.5105 
     72 CA        -45.2277  -27.1633    7.4542 C.3       3 UNK         0.0299 
     73 CB        -44.6374  -28.5826    7.5468 C.3       3 UNK        -0.1972 
     74 N         -45.3365  -26.7836    6.0458 N.am      3 UNK        -0.4305 
     75 C         -45.4022  -25.5254    5.5885 C.2       2 UNK         0.5006 
     76 O         -45.2821  -24.5311    6.3065 O.2       2 UNK        -0.5106 
     77 CA        -45.6610  -25.3428    4.0832 C.3       2 UNK         0.0296 
     78 CB        -44.3328  -25.2459    3.3153 C.3       2 UNK        -0.2002 
     79 N         -46.4840  -26.4075    3.4992 N.am      2 UNK        -0.4032 
     80 C         -47.7936  -26.5877    3.7380 C.2       1 UNK         0.5000 
     81 O         -48.4470  -25.8703    4.4970 O.2       1 UNK        -0.5238 
     82 H82       -46.4780  -29.0709   -0.2205 H         1 UNK         0.0889 
     83 H83       -46.0965  -27.4417   -0.7817 H         1 UNK         0.0889 
     84 H84       -47.5506  -28.2582   -1.3615 H         1 UNK         0.0889 
     85 H85       -47.3066  -29.0825    1.8580 H         1 UNK         0.3028 
     86 H86       -49.4547  -27.3594    2.6523 H         1 UNK         0.0864 
     87 H87       -48.8291  -29.8799    3.3687 H         1 UNK         0.0720 
     88 H88       -47.9730  -29.1056    4.6640 H         1 UNK         0.0720 
     89 H89       -49.2181  -27.5804    6.4884 H         1 UNK         0.0814 
     90 H90       -49.2346  -29.2902    6.8555 H         1 UNK         0.0814 
     91 H91       -51.2073  -26.1563    6.9659 H         1 UNK         0.1469 
     92 H92       -54.0498  -27.6782    9.7768 H         1 UNK         0.1381 
     93 H93       -51.1182  -30.2987    8.0646 H         1 UNK         0.1206 
     94 H94       -53.0700  -31.2320    9.2658 H         1 UNK         0.0813 
     95 H95       -52.5214  -30.4178   10.7097 H         1 UNK         0.0813 
     96 H96       -54.1447  -32.0638   11.6997 H         1 UNK         0.0638 
     97 H97       -55.8634  -31.8521   11.7731 H         1 UNK         0.0638 
     98 H98       -55.0311  -31.3677   13.9473 H         1 UNK         0.0568 
     99 H99       -53.8814  -28.2382   14.1205 H         1 UNK         0.3450 
    100 H100      -52.1787  -28.6187   14.1489 H         1 UNK         0.3450 
    101 H101      -56.0573  -29.0481   12.5049 H         1 UNK         0.2987 
    102 H102      -57.0656  -27.3765   13.5031 H         1 UNK         0.0766 
    103 H103      -59.3722  -27.3994   14.4343 H         1 UNK         0.0798 
    104 H104      -58.9693  -28.7715   15.4682 H         1 UNK         0.0798 
    105 H105      -58.9967  -28.9585   13.7206 H         1 UNK         0.0798 
    106 H106      -57.6465  -26.7926   16.2163 H         1 UNK         0.3198 
    107 H107      -56.4100  -24.7973   17.0069 H         1 UNK         0.0843 
    108 H108      -56.4922  -26.9708   18.3180 H         1 UNK         0.0831 
    109 H109      -55.4916  -25.7922   19.1409 H         1 UNK         0.0831 
    110 H110      -54.7413  -27.0938   18.2220 H         1 UNK         0.0831 
    111 H111      -53.7187  -25.0808   16.1252 H         1 UNK         0.3133 
    112 H112      -52.5045  -22.6357   16.5535 H         1 UNK         0.0566 
    113 H113      -50.9517  -22.0411   18.4312 H         1 UNK         0.0814 
    114 H114      -52.5879  -21.4687   18.7142 H         1 UNK         0.0814 
    115 H115      -52.0030  -22.8881   19.5662 H         1 UNK         0.0814 
    116 H116      -51.2810  -24.4238   16.2076 H         1 UNK         0.3091 
    117 H117      -49.8962  -27.0252   18.1370 H         1 UNK         0.0702 
    118 H118      -50.9468  -28.4669   16.3831 H         1 UNK         0.0785 
    119 H119      -52.1170  -27.1945   16.0300 H         1 UNK         0.0785 
    120 H120      -52.1234  -27.9880   17.5972 H         1 UNK         0.0785 
    121 H121      -49.8793  -26.3605   15.3265 H         1 UNK         0.2998 
    122 H122      -46.8845  -24.3450   15.5457 H         1 UNK         0.0697 
    123 H123      -47.6133  -27.0704   14.3566 H         1 UNK         0.0825 
    124 H124      -46.1746  -26.6709   15.2754 H         1 UNK         0.0825 
    125 H125      -46.4043  -25.9795   13.6759 H         1 UNK         0.0825 
    126 H126      -48.5877  -24.8508   13.3304 H         1 UNK         0.3029 
    127 H127      -50.7633  -22.0579   13.7541 H         1 UNK         0.0897 
    128 H128      -49.8914  -21.5644   11.4668 H         1 UNK         0.0792 
    129 H129      -48.7348  -21.0897   12.7006 H         1 UNK         0.0792 
    130 H130      -48.4701  -22.5608   11.7778 H         1 UNK         0.0792 
    131 H131      -50.4264  -24.1191   11.7541 H         1 UNK         0.3086 
    132 H132      -52.9501  -26.2603   13.1066 H         1 UNK         0.0583 
    133 H133      -54.0538  -25.9084   11.0615 H         1 UNK         0.1020 
    134 H134      -54.0164  -24.3475   11.7824 H         1 UNK         0.1020 
    135 H135      -54.3959  -25.4706    8.6690 H         1 UNK         0.0694 
    136 H136      -53.1914  -24.8482    7.5756 H         1 UNK         0.0694 
    137 H137      -51.2822  -26.5368   10.8280 H         1 UNK         0.2989 
    138 H138      -48.4116  -27.8450   12.3729 H         1 UNK         0.1055 
    139 H139      -49.8842  -29.8913   12.4044 H         1 UNK         0.0806 
    140 H140      -48.7446  -29.8864   11.0662 H         1 UNK         0.0806 
    141 H141      -50.4351  -29.4885   10.7852 H         1 UNK         0.0806 
    142 H142      -49.0221  -27.7819    9.6449 H         1 UNK         0.3061 
    143 H143      -49.0966  -25.8861    8.3092 H         1 UNK         0.0734 
    144 H144      -49.4618  -23.5983    9.2501 H         1 UNK         0.0832 
    145 H145      -47.7248  -23.3905    9.4293 H         1 UNK         0.0832 
    146 H146      -48.4366  -23.5682    7.8255 H         1 UNK         0.0832 
    147 H147      -46.4088  -25.0530    8.1529 H         1 UNK         0.3156 
    148 H148      -44.5435  -26.4814    7.9639 H         1 UNK         0.0589 
    149 H149      -45.2573  -29.3171    7.0310 H         1 UNK         0.0808 
    150 H150      -43.6376  -28.6249    7.1142 H         1 UNK         0.0808 
    151 H151      -44.5536  -28.9010    8.5868 H         1 UNK         0.0808 
    152 H152      -45.4638  -27.5365    5.3862 H         1 UNK         0.3098 
    153 H153      -46.1957  -24.3988    3.9569 H         1 UNK         0.0720 
    154 H154      -44.4995  -25.0313    2.2594 H         1 UNK         0.0791 
    155 H155      -43.7553  -26.1687    3.3846 H         1 UNK         0.0791 
    156 H156      -43.7110  -24.4421    3.7125 H         1 UNK         0.0791 
    157 H157      -46.0307  -27.0296    2.8460 H         1 UNK         0.3028 
@<TRIPOS>BOND
     1    1    2 1    
     2    1   82 1    
     3    1   83 1    
     4    1   84 1    
     5    2    3 2    
     6    2    4 am   BACKBONE|DICT|INTERRES
     7    4    5 1    
     8    4   85 1    
     9    5    6 1    
    10    5   80 1    
    11    5   86 1    
    12    6    7 1    
    13    6   87 1    
    14    6   88 1    
    15    7    8 1    
    16    8    9 1    
    17    8   89 1    
    18    8   90 1    
    19    9   10 ar   
    20    9   14 ar   
    21   10   11 ar   
    22   10   91 1    
    23   11   12 ar   
    24   11   58 1    
    25   12   13 ar   
    26   12   92 1    
    27   13   14 ar   
    28   13   15 1    
    29   14   93 1    
    30   15   16 1    
    31   15   94 1    
    32   15   95 1    
    33   16   17 1    
    34   17   18 1    
    35   17   96 1    
    36   17   97 1    
    37   18   19 1    
    38   18   22 1    
    39   18   98 1    
    40   19   20 am   BACKBONE|DICT|INTERRES
    41   19   21 2    
    42   20   99 1    
    43   20  100 1    
    44   22   23 am   BACKBONE|DICT|INTERRES
    45   22  101 1    
    46   23   24 2    
    47   23   25 1    
    48   25   26 1    
    49   25   27 1    
    50   25  102 1    
    51   26  103 1    
    52   26  104 1    
    53   26  105 1    
    54   27   28 am   BACKBONE|DICT|INTERRES
    55   27  106 1    
    56   28   29 2    
    57   28   30 1    
    58   30   31 1    
    59   30   32 1    
    60   30  107 1    
    61   31  108 1    
    62   31  109 1    
    63   31  110 1    
    64   32   33 am   BACKBONE|DICT|INTERRES
    65   32  111 1    
    66   33   34 2    
    67   33   35 1    
    68   35   36 1    
    69   35   37 1    
    70   35  112 1    
    71   36  113 1    
    72   36  114 1    
    73   36  115 1    
    74   37   38 am   BACKBONE|DICT|INTERRES
    75   37  116 1    
    76   38   39 2    
    77   38   40 1    
    78   40   41 1    
    79   40   42 1    
    80   40  117 1    
    81   41  118 1    
    82   41  119 1    
    83   41  120 1    
    84   42   43 am   BACKBONE|DICT|INTERRES
    85   42  121 1    
    86   43   44 2    
    87   43   45 1    
    88   45   46 1    
    89   45   47 1    
    90   45  122 1    
    91   46  123 1    
    92   46  124 1    
    93   46  125 1    
    94   47   48 am   BACKBONE|DICT|INTERRES
    95   47  126 1    
    96   48   49 2    
    97   48   50 1    
    98   50   51 1    
    99   50   52 1    
   100   50  127 1    
   101   51  128 1    
   102   51  129 1    
   103   51  130 1    
   104   52   53 am   BACKBONE|DICT|INTERRES
   105   52  131 1    
   106   53   54 2    
   107   53   55 1    
   108   55   56 1    
   109   55   59 1    
   110   55  132 1    
   111   56   57 1    
   112   56  133 1    
   113   56  134 1    
   114   57   58 1    
   115   58  135 1    
   116   58  136 1    
   117   59   60 am   BACKBONE|DICT|INTERRES
   118   59  137 1    
   119   60   61 2    
   120   60   62 1    
   121   62   63 1    
   122   62   64 1    
   123   62  138 1    
   124   63  139 1    
   125   63  140 1    
   126   63  141 1    
   127   64   65 am   BACKBONE|DICT|INTERRES
   128   64  142 1    
   129   65   66 2    
   130   65   67 1    
   131   67   68 1    
   132   67   69 1    
   133   67  143 1    
   134   68  144 1    
   135   68  145 1    
   136   68  146 1    
   137   69   70 am   BACKBONE|DICT|INTERRES
   138   69  147 1    
   139   70   71 2    
   140   70   72 1    
   141   72   73 1    
   142   72   74 1    
   143   72  148 1    
   144   73  149 1    
   145   73  150 1    
   146   73  151 1    
   147   74   75 am   BACKBONE|DICT|INTERRES
   148   74  152 1    
   149   75   76 2    
   150   75   77 1    
   151   77   78 1    
   152   77   79 1    
   153   77  153 1    
   154   78  154 1    
   155   78  155 1    
   156   78  156 1    
   157   79   80 am   BACKBONE|DICT|INTERRES
   158   79  157 1    
   159   80   81 2    
@<TRIPOS>SUBSTRUCTURE
     1 UNK         1 GROUP             0       ****    0 ROOT    
