@<TRIPOS>MOLECULE
3R207
157   159    1
SMALL
USER_CHARGES


@<TRIPOS>ATOM
      1 CA        -50.5864  -29.0480   10.1207 C.3       0 UNK        -0.1975 
      2 C         -49.8150  -29.7630    9.0226 C.2       0 UNK         0.4852 
      3 O         -48.8163  -30.4220    9.3110 O.2       0 UNK        -0.5216 
      4 N         -50.2548  -29.6244    7.7627 N.am      1 UNK        -0.4461 
      5 CA        -49.5725  -30.1771    6.5824 C.3       1 UNK         0.0864 
      6 C6        -50.5495  -30.3655    5.3891 C.3       14 UNK        -0.0898 
      7 S7        -51.0419  -28.8282    4.5224 S.3       14 UNK        -0.2598 
      8 C8        -52.8205  -28.7152    4.8766 C.3       14 UNK         0.0286 
      9 C9        -53.0833  -28.2065    6.2842 C.ar      14 UNK        -0.0844 
     10 C10       -52.9242  -26.8495    6.5803 C.ar      14 UNK        -0.0881 
     11 C11       -53.2037  -26.3624    7.8603 C.ar      14 UNK        -0.0643 
     12 C12       -53.6496  -27.2496    8.8478 C.ar      14 UNK        -0.0930 
     13 C13       -53.7805  -28.6153    8.5705 C.ar      14 UNK        -0.0827 
     14 C14       -53.5041  -29.0852    7.2843 C.ar      14 UNK        -0.1249 
     15 C15       -54.1737  -29.6008    9.6612 C.3       14 UNK         0.0141 
     16 S16       -55.9681  -29.9034    9.7156 S.3       14 UNK        -0.2313 
     17 C17       -56.6256  -28.4226   10.5638 C.3       14 UNK        -0.0915 
     18 CA        -56.0199  -28.1372   11.9717 C.3       13 UNK         0.0968 
     19 C         -56.6576  -26.8998   12.6738 C.2       13 UNK         0.5732 
     20 N         -56.7337  -26.8551   14.0002 N.am      13 UNK        -0.7310 
     21 O         -57.0550  -25.9448   12.0111 O.2       13 UNK        -0.5035 
     22 N         -55.9107  -29.3278   12.8280 N.am      13 UNK        -0.4233 
     23 C         -56.9257  -30.0482   13.3258 C.2       13 UNK         0.4989 
     24 O         -58.1099  -29.8640   13.0418 O.2       13 UNK        -0.4996 
     25 CA        -56.5665  -31.1504   14.3432 C.3       12 UNK         0.0216 
     26 CB        -56.5590  -32.5269   13.6583 C.3       12 UNK        -0.1964 
     27 N         -55.2815  -30.9443   15.0233 N.am      12 UNK        -0.4276 
     28 C         -54.9671  -29.8900   15.7899 C.2       12 UNK         0.5020 
     29 O         -55.7557  -28.9805   16.0564 O.2       12 UNK        -0.5489 
     30 CA        -53.5128  -29.7862   16.2886 C.3       11 UNK         0.0294 
     31 CB        -52.6811  -31.0777   16.1125 C.3       11 UNK        -0.2019 
     32 N         -52.8326  -28.6466   15.6632 N.am      11 UNK        -0.4493 
     33 C         -52.6694  -28.4126   14.3537 C.2       11 UNK         0.4932 
     34 O         -53.0374  -29.1857   13.4673 O.2       11 UNK        -0.5029 
     35 CA        -52.0143  -27.0823   13.9407 C.3       10 UNK         0.0280 
     36 CB        -53.0884  -25.9804   13.8308 C.3       10 UNK        -0.1976 
     37 N         -50.8734  -26.6380   14.7647 N.am      10 UNK        -0.4242 
     38 C         -50.8788  -26.2505   16.0489 C.2       10 UNK         0.5072 
     39 O         -51.8906  -26.2255   16.7509 O.2       10 UNK        -0.5224 
     40 CA        -49.5362  -25.8647   16.6803 C.3       9 UNK         0.0343 
     41 CB        -48.7177  -27.1214   17.0261 C.3       9 UNK        -0.2003 
     42 N         -48.7300  -24.9619   15.8493 N.am      9 UNK        -0.4272 
     43 C         -47.9985  -23.9570   16.3546 C.2       9 UNK         0.4988 
     44 O         -48.0334  -23.6092   17.5363 O.2       9 UNK        -0.5108 
     45 CA        -47.0159  -23.2454   15.4110 C.3       8 UNK         0.0248 
     46 CB        -45.8043  -24.1476   15.1217 C.3       8 UNK        -0.2001 
     47 N         -47.6082  -22.7935   14.1521 N.am      8 UNK        -0.4140 
     48 C         -48.4709  -21.7729   14.0326 C.2       8 UNK         0.5028 
     49 O         -48.9028  -21.1223   14.9848 O.2       8 UNK        -0.5428 
     50 CA        -48.9276  -21.4138   12.6062 C.3       7 UNK         0.0264 
     51 CB        -47.8577  -20.5875   11.8745 C.3       7 UNK        -0.1988 
     52 N         -49.2555  -22.6163   11.8373 N.am      7 UNK        -0.4454 
     53 C         -50.3771  -23.3223   12.0358 C.2       7 UNK         0.5027 
     54 O         -51.3253  -22.9017   12.7002 O.2       7 UNK        -0.5083 
     55 CA        -50.4369  -24.7671   11.5051 C.3       6 UNK         0.0844 
     56 C56       -51.6011  -25.0594   10.5347 C.3       14 UNK        -0.0967 
     57 S57       -51.3967  -24.4660    8.8288 S.3       14 UNK        -0.2604 
     58 C58       -53.0439  -24.8747    8.1573 C.3       14 UNK         0.0134 
     59 N         -49.1410  -25.3153   11.0912 N.am      6 UNK        -0.4116 
     60 C         -48.2649  -25.8405   11.9627 C.2       5 UNK         0.5034 
     61 O         -48.4887  -25.9652   13.1698 O.2       5 UNK        -0.5045 
     62 CA        -46.8956  -26.2651   11.4176 C.3       5 UNK         0.0224 
     63 CB        -46.9586  -27.6650   10.7881 C.3       5 UNK        -0.1978 
     64 N         -46.3466  -25.3005   10.4625 N.am      5 UNK        -0.4737 
     65 C         -45.9189  -24.0756   10.7991 C.2       4 UNK         0.5027 
     66 O         -45.9769  -23.6291   11.9426 O.2       4 UNK        -0.5211 
     67 CA        -45.3612  -23.1883    9.6747 C.3       4 UNK         0.0297 
     68 CB        -43.8683  -23.4768    9.4538 C.3       4 UNK        -0.1993 
     69 N         -46.0852  -23.3537    8.4145 N.am      4 UNK        -0.4486 
     70 C         -47.3580  -22.9817    8.2186 C.2       3 UNK         0.4961 
     71 O         -48.0407  -22.4020    9.0612 O.2       3 UNK        -0.5105 
     72 CA        -47.9853  -23.3704    6.8694 C.3       3 UNK         0.0299 
     73 CB        -47.6879  -22.3024    5.8050 C.3       3 UNK        -0.1972 
     74 N         -47.5475  -24.6866    6.3885 N.am      3 UNK        -0.4305 
     75 C         -47.7643  -25.8347    7.0432 C.2       2 UNK         0.5006 
     76 O         -48.3323  -25.9100    8.1372 O.2       2 UNK        -0.5106 
     77 CA        -47.2302  -27.1141    6.3968 C.3       2 UNK         0.0296 
     78 CB        -45.8285  -27.4610    6.9326 C.3       2 UNK        -0.2002 
     79 N         -48.1910  -28.1537    6.7268 N.am      2 UNK        -0.4032 
     80 C         -48.3143  -29.3680    6.1819 C.2       1 UNK         0.5000 
     81 O         -47.5150  -29.8429    5.3721 O.2       1 UNK        -0.5238 
     82 H82       -49.9013  -28.6137   10.8479 H         1 UNK         0.0889 
     83 H83       -51.2393  -29.7462   10.6434 H         1 UNK         0.0889 
     84 H84       -51.1906  -28.2418    9.7124 H         1 UNK         0.0889 
     85 H85       -51.0914  -29.0864    7.5719 H         1 UNK         0.3028 
     86 H86       -49.2135  -31.1726    6.8532 H         1 UNK         0.0864 
     87 H87       -51.4387  -30.9041    5.7199 H         1 UNK         0.0720 
     88 H88       -50.0847  -31.0149    4.6451 H         1 UNK         0.0720 
     89 H89       -53.2946  -29.6841    4.7114 H         1 UNK         0.0814 
     90 H90       -53.2767  -28.0314    4.1592 H         1 UNK         0.0814 
     91 H91       -52.5884  -26.1698    5.8087 H         1 UNK         0.1469 
     92 H92       -53.8773  -26.8797    9.8369 H         1 UNK         0.1381 
     93 H93       -53.6175  -30.1381    7.0631 H         1 UNK         0.1206 
     94 H94       -53.6797  -30.5555    9.4745 H         1 UNK         0.0813 
     95 H95       -53.8017  -29.2755   10.6320 H         1 UNK         0.0813 
     96 H96       -56.4718  -27.5660    9.9055 H         1 UNK         0.0638 
     97 H97       -57.7066  -28.5481   10.6424 H         1 UNK         0.0638 
     98 H98       -54.9912  -27.8213   11.8131 H         1 UNK         0.0568 
     99 H99       -57.1383  -26.0435   14.4384 H         1 UNK         0.3450 
    100 H100      -56.4087  -27.6252   14.5731 H         1 UNK         0.3450 
    101 H101      -54.9677  -29.5435   13.1347 H         1 UNK         0.2987 
    102 H102      -57.3460  -31.1499   15.1079 H         1 UNK         0.0766 
    103 H103      -56.3927  -33.3294   14.3772 H         1 UNK         0.0798 
    104 H104      -55.7844  -32.5923   12.8928 H         1 UNK         0.0798 
    105 H105      -57.5147  -32.7250   13.1706 H         1 UNK         0.0798 
    106 H106      -54.5564  -31.6218   14.8357 H         1 UNK         0.3198 
    107 H107      -53.5705  -29.5702   17.3566 H         1 UNK         0.0843 
    108 H108      -52.5312  -31.3406   15.0647 H         1 UNK         0.0831 
    109 H109      -53.1576  -31.9254   16.6070 H         1 UNK         0.0831 
    110 H110      -51.6942  -30.9650   16.5615 H         1 UNK         0.0831 
    111 H111      -52.5616  -27.8894   16.2878 H         1 UNK         0.3133 
    112 H112      -51.6040  -27.2556   12.9454 H         1 UNK         0.0566 
    113 H113      -52.6521  -24.9954   13.6759 H         1 UNK         0.0814 
    114 H114      -53.7564  -26.1713   12.9926 H         1 UNK         0.0814 
    115 H115      -53.7043  -25.9218   14.7293 H         1 UNK         0.0814 
    116 H116      -49.9774  -26.6448   14.2863 H         1 UNK         0.3091 
    117 H117      -49.7878  -25.3670   17.6195 H         1 UNK         0.0702 
    118 H118      -49.3041  -27.8211   17.6235 H         1 UNK         0.0785 
    119 H119      -48.3896  -27.6492   16.1297 H         1 UNK         0.0785 
    120 H120      -47.8306  -26.8668   17.6062 H         1 UNK         0.0785 
    121 H121      -48.6408  -25.1901   14.8621 H         1 UNK         0.2998 
    122 H122      -46.6470  -22.3603   15.9339 H         1 UNK         0.0697 
    123 H123      -46.0839  -25.0284   14.5426 H         1 UNK         0.0825 
    124 H124      -45.3449  -24.4970   16.0473 H         1 UNK         0.0825 
    125 H125      -45.0368  -23.6117   14.5630 H         1 UNK         0.0825 
    126 H126      -47.2365  -23.2187   13.3065 H         1 UNK         0.3029 
    127 H127      -49.8239  -20.7944   12.6882 H         1 UNK         0.0897 
    128 H128      -46.9243  -21.1373   11.7580 H         1 UNK         0.0792 
    129 H129      -47.6298  -19.6736   12.4245 H         1 UNK         0.0792 
    130 H130      -48.1974  -20.2919   10.8818 H         1 UNK         0.0792 
    131 H131      -48.5503  -22.9691   11.2028 H         1 UNK         0.3086 
    132 H132      -50.7159  -25.3100   12.4007 H         1 UNK         0.0583 
    133 H133      -51.7386  -26.1379   10.4945 H         1 UNK         0.1020 
    134 H134      -52.5348  -24.6609   10.9368 H         1 UNK         0.1020 
    135 H135      -53.8197  -24.5429    8.8491 H         1 UNK         0.0694 
    136 H136      -53.1948  -24.2990    7.2429 H         1 UNK         0.0694 
    137 H137      -48.9084  -25.2689   10.1037 H         1 UNK         0.2989 
    138 H138      -46.2132  -26.3150   12.2694 H         1 UNK         0.1055 
    139 H139      -47.3495  -28.3950   11.4983 H         1 UNK         0.0806 
    140 H140      -45.9688  -28.0093   10.4888 H         1 UNK         0.0806 
    141 H141      -47.6029  -27.6922    9.9100 H         1 UNK         0.0806 
    142 H142      -46.3429  -25.5687    9.4893 H         1 UNK         0.3061 
    143 H143      -45.4643  -22.1478    9.9897 H         1 UNK         0.0734 
    144 H144      -43.4385  -22.8024    8.7129 H         1 UNK         0.0832 
    145 H145      -43.3055  -23.3395   10.3785 H         1 UNK         0.0832 
    146 H146      -43.6968  -24.5003    9.1180 H         1 UNK         0.0832 
    147 H147      -45.5998  -23.8168    7.6603 H         1 UNK         0.3156 
    148 H148      -49.0670  -23.4153    7.0126 H         1 UNK         0.0589 
    149 H149      -46.6211  -22.2279    5.5905 H         1 UNK         0.0808 
    150 H150      -48.2054  -22.5186    4.8702 H         1 UNK         0.0808 
    151 H151      -48.0227  -21.3187    6.1376 H         1 UNK         0.0808 
    152 H152      -47.0712  -24.7116    5.4979 H         1 UNK         0.3098 
    153 H153      -47.1992  -26.9916    5.3123 H         1 UNK         0.0720 
    154 H154      -45.4359  -28.3640    6.4652 H         1 UNK         0.0791 
    155 H155      -45.8369  -27.6232    8.0103 H         1 UNK         0.0791 
    156 H156      -45.1195  -26.6586    6.7260 H         1 UNK         0.0791 
    157 H157      -48.8948  -27.8480    7.3877 H         1 UNK         0.3028 
@<TRIPOS>BOND
     1    1    2 1    
     2    1   82 1    
     3    1   83 1    
     4    1   84 1    
     5    2    3 2    
     6    2    4 am   BACKBONE|DICT|INTERRES
     7    4    5 1    
     8    4   85 1    
     9    5    6 1    
    10    5   80 1    
    11    5   86 1    
    12    6    7 1    
    13    6   87 1    
    14    6   88 1    
    15    7    8 1    
    16    8    9 1    
    17    8   89 1    
    18    8   90 1    
    19    9   10 ar   
    20    9   14 ar   
    21   10   11 ar   
    22   10   91 1    
    23   11   12 ar   
    24   11   58 1    
    25   12   13 ar   
    26   12   92 1    
    27   13   14 ar   
    28   13   15 1    
    29   14   93 1    
    30   15   16 1    
    31   15   94 1    
    32   15   95 1    
    33   16   17 1    
    34   17   18 1    
    35   17   96 1    
    36   17   97 1    
    37   18   19 1    
    38   18   22 1    
    39   18   98 1    
    40   19   20 am   BACKBONE|DICT|INTERRES
    41   19   21 2    
    42   20   99 1    
    43   20  100 1    
    44   22   23 am   BACKBONE|DICT|INTERRES
    45   22  101 1    
    46   23   24 2    
    47   23   25 1    
    48   25   26 1    
    49   25   27 1    
    50   25  102 1    
    51   26  103 1    
    52   26  104 1    
    53   26  105 1    
    54   27   28 am   BACKBONE|DICT|INTERRES
    55   27  106 1    
    56   28   29 2    
    57   28   30 1    
    58   30   31 1    
    59   30   32 1    
    60   30  107 1    
    61   31  108 1    
    62   31  109 1    
    63   31  110 1    
    64   32   33 am   BACKBONE|DICT|INTERRES
    65   32  111 1    
    66   33   34 2    
    67   33   35 1    
    68   35   36 1    
    69   35   37 1    
    70   35  112 1    
    71   36  113 1    
    72   36  114 1    
    73   36  115 1    
    74   37   38 am   BACKBONE|DICT|INTERRES
    75   37  116 1    
    76   38   39 2    
    77   38   40 1    
    78   40   41 1    
    79   40   42 1    
    80   40  117 1    
    81   41  118 1    
    82   41  119 1    
    83   41  120 1    
    84   42   43 am   BACKBONE|DICT|INTERRES
    85   42  121 1    
    86   43   44 2    
    87   43   45 1    
    88   45   46 1    
    89   45   47 1    
    90   45  122 1    
    91   46  123 1    
    92   46  124 1    
    93   46  125 1    
    94   47   48 am   BACKBONE|DICT|INTERRES
    95   47  126 1    
    96   48   49 2    
    97   48   50 1    
    98   50   51 1    
    99   50   52 1    
   100   50  127 1    
   101   51  128 1    
   102   51  129 1    
   103   51  130 1    
   104   52   53 am   BACKBONE|DICT|INTERRES
   105   52  131 1    
   106   53   54 2    
   107   53   55 1    
   108   55   56 1    
   109   55   59 1    
   110   55  132 1    
   111   56   57 1    
   112   56  133 1    
   113   56  134 1    
   114   57   58 1    
   115   58  135 1    
   116   58  136 1    
   117   59   60 am   BACKBONE|DICT|INTERRES
   118   59  137 1    
   119   60   61 2    
   120   60   62 1    
   121   62   63 1    
   122   62   64 1    
   123   62  138 1    
   124   63  139 1    
   125   63  140 1    
   126   63  141 1    
   127   64   65 am   BACKBONE|DICT|INTERRES
   128   64  142 1    
   129   65   66 2    
   130   65   67 1    
   131   67   68 1    
   132   67   69 1    
   133   67  143 1    
   134   68  144 1    
   135   68  145 1    
   136   68  146 1    
   137   69   70 am   BACKBONE|DICT|INTERRES
   138   69  147 1    
   139   70   71 2    
   140   70   72 1    
   141   72   73 1    
   142   72   74 1    
   143   72  148 1    
   144   73  149 1    
   145   73  150 1    
   146   73  151 1    
   147   74   75 am   BACKBONE|DICT|INTERRES
   148   74  152 1    
   149   75   76 2    
   150   75   77 1    
   151   77   78 1    
   152   77   79 1    
   153   77  153 1    
   154   78  154 1    
   155   78  155 1    
   156   78  156 1    
   157   79   80 am   BACKBONE|DICT|INTERRES
   158   79  157 1    
   159   80   81 2    
@<TRIPOS>SUBSTRUCTURE
     1 UNK         1 GROUP             0       ****    0 ROOT    
