@<TRIPOS>MOLECULE
3R207
157   159    1
SMALL
USER_CHARGES


@<TRIPOS>ATOM
      1 CA        -46.3691  -29.1129    3.3798 C.3       0 UNK        -0.1975 
      2 C         -47.0297  -28.5268    4.6190 C.2       0 UNK         0.4852 
      3 O         -46.9680  -27.3149    4.8279 O.2       0 UNK        -0.5216 
      4 N         -47.6686  -29.3758    5.4335 N.am      1 UNK        -0.4461 
      5 CA        -48.2810  -29.0007    6.7103 C.3       1 UNK         0.0864 
      6 C6        -49.4369  -29.9642    7.0777 C.3       14 UNK        -0.0898 
      7 S7        -50.7102  -29.1224    8.0687 S.3       14 UNK        -0.2598 
      8 C8        -51.9773  -28.8171    6.7989 C.3       14 UNK         0.0286 
      9 C9        -53.0923  -27.9312    7.3310 C.ar      14 UNK        -0.0844 
     10 C10       -53.3028  -26.6563    6.7980 C.ar      14 UNK        -0.0881 
     11 C11       -54.3200  -25.8336    7.2963 C.ar      14 UNK        -0.0643 
     12 C12       -55.1327  -26.3031    8.3358 C.ar      14 UNK        -0.0930 
     13 C13       -54.9453  -27.5868    8.8604 C.ar      14 UNK        -0.0827 
     14 C14       -53.9268  -28.3949    8.3500 C.ar      14 UNK        -0.1249 
     15 C15       -55.8570  -28.1309    9.9505 C.3       14 UNK         0.0141 
     16 S16       -54.9658  -28.3448   11.5227 S.3       14 UNK        -0.2313 
     17 C17       -55.7795  -29.8384   12.1825 C.3       14 UNK        -0.0915 
     18 CA        -55.0982  -30.4270   13.4484 C.3       13 UNK         0.0968 
     19 C         -53.7095  -31.0670   13.1707 C.2       13 UNK         0.5732 
     20 N         -52.6362  -30.6620   13.8381 N.am      13 UNK        -0.7310 
     21 O         -53.6109  -31.9853   12.3602 O.2       13 UNK        -0.5035 
     22 N         -55.1267  -29.4913   14.5847 N.am      13 UNK        -0.4233 
     23 C         -56.0854  -29.4786   15.5207 C.2       13 UNK         0.4989 
     24 O         -57.0507  -30.2458   15.5167 O.2       13 UNK        -0.4996 
     25 CA        -55.9673  -28.4258   16.6407 C.3       12 UNK         0.0216 
     26 CB        -56.8248  -28.7625   17.8800 C.3       12 UNK        -0.1964 
     27 N         -54.5860  -28.1268   17.0323 N.am      12 UNK        -0.4276 
     28 C         -53.6731  -28.9628   17.5543 C.2       12 UNK         0.5020 
     29 O         -53.8932  -30.1504   17.7946 O.2       12 UNK        -0.5489 
     30 CA        -52.2726  -28.3867   17.8519 C.3       11 UNK         0.0294 
     31 CB        -51.1627  -29.2808   17.2698 C.3       11 UNK        -0.2019 
     32 N         -52.1150  -27.0341   17.3132 N.am      11 UNK        -0.4493 
     33 C         -52.2704  -25.8975   18.0071 C.2       11 UNK         0.4932 
     34 O         -52.4500  -25.8560   19.2240 O.2       11 UNK        -0.5029 
     35 CA        -52.2672  -24.5831   17.2023 C.3       10 UNK         0.0280 
     36 CB        -50.8818  -23.9212   17.2601 C.3       10 UNK        -0.1976 
     37 N         -52.6756  -24.7687   15.8034 N.am      10 UNK        -0.4242 
     38 C         -53.9204  -25.1090   15.4268 C.2       10 UNK         0.5072 
     39 O         -54.8538  -25.2213   16.2209 O.2       10 UNK        -0.5224 
     40 CA        -54.1731  -25.4578   13.9478 C.3       9 UNK         0.0343 
     41 CB        -54.7933  -24.2633   13.2085 C.3       9 UNK        -0.2003 
     42 N         -52.9787  -25.9070   13.2319 N.am      9 UNK        -0.4272 
     43 C         -52.2595  -26.9982   13.5383 C.2       9 UNK         0.4988 
     44 O         -52.5884  -27.7959   14.4205 O.2       9 UNK        -0.5108 
     45 CA        -50.9292  -27.2108   12.7826 C.3       8 UNK         0.0248 
     46 CB        -51.1508  -28.1508   11.5870 C.3       8 UNK        -0.2001 
     47 N         -50.3107  -25.9752   12.2876 N.am      8 UNK        -0.4140 
     48 C         -50.0657  -24.8634   12.9991 C.2       8 UNK         0.5028 
     49 O         -50.1684  -24.8043   14.2238 O.2       8 UNK        -0.5428 
     50 CA        -49.7577  -23.5709   12.2140 C.3       7 UNK         0.0264 
     51 CB        -48.2742  -23.1991   12.3346 C.3       7 UNK        -0.1988 
     52 N         -50.1425  -23.6020   10.7947 N.am      7 UNK        -0.4454 
     53 C         -51.3734  -23.8735   10.3278 C.2       7 UNK         0.5027 
     54 O         -52.3452  -24.0328   11.0670 O.2       7 UNK        -0.5083 
     55 CA        -51.5660  -24.0630    8.8086 C.3       6 UNK         0.0844 
     56 C56       -52.6630  -23.1112    8.2713 C.3       14 UNK        -0.0967 
     57 S57       -53.0710  -23.4369    6.5241 S.3       14 UNK        -0.2604 
     58 C58       -54.5755  -24.4586    6.6837 C.3       14 UNK         0.0134 
     59 N         -50.3239  -23.9788    8.0328 N.am      6 UNK        -0.4116 
     60 C         -49.3281  -24.8751    8.0344 C.2       5 UNK         0.5034 
     61 O         -49.3188  -25.8949    8.7250 O.2       5 UNK        -0.5045 
     62 CA        -48.1187  -24.5730    7.1322 C.3       5 UNK         0.0224 
     63 CB        -48.4494  -23.6429    5.9433 C.3       5 UNK        -0.1978 
     64 N         -46.9641  -24.0548    7.8774 N.am      5 UNK        -0.4737 
     65 C         -46.9103  -22.9760    8.6747 C.2       4 UNK         0.5027 
     66 O         -47.8968  -22.3136    8.9984 O.2       4 UNK        -0.5211 
     67 CA        -45.5143  -22.5931    9.1989 C.3       4 UNK         0.0297 
     68 CB        -45.5248  -21.4756   10.2585 C.3       4 UNK        -0.1993 
     69 N         -44.8490  -23.7770    9.7357 N.am      4 UNK        -0.4486 
     70 C         -43.6164  -24.1920    9.4191 C.2       3 UNK         0.4961 
     71 O         -42.8240  -23.5404    8.7379 O.2       3 UNK        -0.5105 
     72 CA        -43.2046  -25.5933    9.9194 C.3       3 UNK         0.0299 
     73 CB        -42.3346  -25.4754   11.1813 C.3       3 UNK        -0.1972 
     74 N         -44.3301  -26.5010   10.1914 N.am      3 UNK        -0.4305 
     75 C         -45.2664  -26.8640    9.3016 C.2       2 UNK         0.5006 
     76 O         -45.2699  -26.4777    8.1298 O.2       2 UNK        -0.5106 
     77 CA        -46.4122  -27.7449    9.8372 C.3       2 UNK         0.0296 
     78 CB        -47.1439  -27.0600   11.0079 C.3       2 UNK        -0.2002 
     79 N         -47.3896  -28.0445    8.7885 N.am      2 UNK        -0.4032 
     80 C         -47.2071  -28.9474    7.8166 C.2       1 UNK         0.5000 
     81 O         -46.2537  -29.7327    7.7806 O.2       1 UNK        -0.5238 
     82 H82       -46.5142  -30.1909    3.3107 H         1 UNK         0.0889 
     83 H83       -45.2977  -28.9154    3.3981 H         1 UNK         0.0889 
     84 H84       -46.7849  -28.6566    2.4818 H         1 UNK         0.0889 
     85 H85       -47.6465  -30.3657    5.2338 H         1 UNK         0.3028 
     86 H86       -48.6924  -27.9953    6.5902 H         1 UNK         0.0864 
     87 H87       -49.0797  -30.8417    7.6209 H         1 UNK         0.0720 
     88 H88       -49.9120  -30.3553    6.1763 H         1 UNK         0.0720 
     89 H89       -51.5074  -28.3605    5.9262 H         1 UNK         0.0814 
     90 H90       -52.3968  -29.7681    6.4674 H         1 UNK         0.0814 
     91 H91       -52.6731  -26.2981    5.9952 H         1 UNK         0.1469 
     92 H92       -55.9265  -25.6782    8.7217 H         1 UNK         0.1381 
     93 H93       -53.7749  -29.3856    8.7570 H         1 UNK         0.1206 
     94 H94       -56.2647  -29.0855    9.6156 H         1 UNK         0.0813 
     95 H95       -56.7115  -27.4728   10.1143 H         1 UNK         0.0813 
     96 H96       -56.8168  -29.5866   12.4078 H         1 UNK         0.0638 
     97 H97       -55.8206  -30.5944   11.3965 H         1 UNK         0.0638 
     98 H98       -55.6946  -31.2972   13.7283 H         1 UNK         0.0568 
     99 H99       -52.6690  -29.8438   14.4289 H         1 UNK         0.3450 
    100 H100      -51.7564  -31.1173   13.6593 H         1 UNK         0.3450 
    101 H101      -54.3584  -28.8324   14.6360 H         1 UNK         0.2987 
    102 H102      -56.3645  -27.5033   16.2152 H         1 UNK         0.0766 
    103 H103      -56.7403  -27.9884   18.6426 H         1 UNK         0.0798 
    104 H104      -57.8807  -28.8410   17.6179 H         1 UNK         0.0798 
    105 H105      -56.5306  -29.7111   18.3302 H         1 UNK         0.0798 
    106 H106      -54.3115  -27.1619   16.8899 H         1 UNK         0.3198 
    107 H107      -52.1590  -28.3719   18.9379 H         1 UNK         0.0843 
    108 H108      -50.1740  -28.8899   17.5103 H         1 UNK         0.0831 
    109 H109      -51.2341  -29.3636   16.1854 H         1 UNK         0.0831 
    110 H110      -51.2163  -30.2910   17.6777 H         1 UNK         0.0831 
    111 H111      -51.9990  -26.9780   16.3077 H         1 UNK         0.3133 
    112 H112      -52.9836  -23.9058   17.6721 H         1 UNK         0.0566 
    113 H113      -50.1045  -24.5749   16.8627 H         1 UNK         0.0814 
    114 H114      -50.6083  -23.6822   18.2886 H         1 UNK         0.0814 
    115 H115      -50.8597  -22.9902   16.6934 H         1 UNK         0.0814 
    116 H116      -51.9342  -24.7268   15.1082 H         1 UNK         0.3091 
    117 H117      -54.8922  -26.2791   13.9273 H         1 UNK         0.0702 
    118 H118      -54.1129  -23.4113   13.1784 H         1 UNK         0.0785 
    119 H119      -55.7116  -23.9339   13.6965 H         1 UNK         0.0785 
    120 H120      -55.0475  -24.5246   12.1807 H         1 UNK         0.0785 
    121 H121      -52.6616  -25.3071   12.4745 H         1 UNK         0.2998 
    122 H122      -50.2280  -27.6787   13.4757 H         1 UNK         0.0697 
    123 H123      -51.8158  -27.7080   10.8433 H         1 UNK         0.0825 
    124 H124      -51.6026  -29.0915   11.8978 H         1 UNK         0.0825 
    125 H125      -50.2138  -28.3972   11.0888 H         1 UNK         0.0825 
    126 H126      -50.1872  -25.9164   11.2863 H         1 UNK         0.3029 
    127 H127      -50.3430  -22.7789   12.6855 H         1 UNK         0.0897 
    128 H128      -48.0979  -22.2014   11.9342 H         1 UNK         0.0792 
    129 H129      -47.9534  -23.1881   13.3774 H         1 UNK         0.0792 
    130 H130      -47.6331  -23.8999   11.8006 H         1 UNK         0.0792 
    131 H131      -49.4076  -23.4166   10.1210 H         1 UNK         0.3086 
    132 H132      -51.9329  -25.0849    8.6994 H         1 UNK         0.0583 
    133 H133      -53.5765  -23.1962    8.8641 H         1 UNK         0.1020 
    134 H134      -52.3438  -22.0713    8.3619 H         1 UNK         0.1020 
    135 H135      -55.3185  -23.9059    7.2609 H         1 UNK         0.0694 
    136 H136      -55.0041  -24.5997    5.6908 H         1 UNK         0.0694 
    137 H137      -50.2218  -23.1588    7.4532 H         1 UNK         0.2989 
    138 H138      -47.8081  -25.5334    6.7175 H         1 UNK         0.1055 
    139 H139      -47.6121  -23.5948    5.2468 H         1 UNK         0.0806 
    140 H140      -48.6695  -22.6225    6.2590 H         1 UNK         0.0806 
    141 H141      -49.3082  -24.0116    5.3800 H         1 UNK         0.0806 
    142 H142      -46.1148  -24.6002    7.7635 H         1 UNK         0.3061 
    143 H143      -44.9698  -22.2193    8.3290 H         1 UNK         0.0734 
    144 H144      -46.0826  -20.6045    9.9123 H         1 UNK         0.0832 
    145 H145      -45.9722  -21.8068   11.1937 H         1 UNK         0.0832 
    146 H146      -44.5115  -21.1407   10.4802 H         1 UNK         0.0832 
    147 H147      -45.4216  -24.3913   10.2958 H         1 UNK         0.3156 
    148 H148      -42.6030  -26.0511    9.1316 H         1 UNK         0.0589 
    149 H149      -42.8910  -25.0503   12.0178 H         1 UNK         0.0808 
    150 H150      -41.9483  -26.4465   11.4915 H         1 UNK         0.0808 
    151 H151      -41.4731  -24.8301   11.0027 H         1 UNK         0.0808 
    152 H152      -44.3916  -26.8655   11.1315 H         1 UNK         0.3098 
    153 H153      -45.9790  -28.6811   10.1952 H         1 UNK         0.0720 
    154 H154      -47.9642  -27.6776   11.3719 H         1 UNK         0.0791 
    155 H155      -46.4821  -26.8896   11.8573 H         1 UNK         0.0791 
    156 H156      -47.5578  -26.0950   10.7156 H         1 UNK         0.0791 
    157 H157      -48.1919  -27.4208    8.7387 H         1 UNK         0.3028 
@<TRIPOS>BOND
     1    1    2 1    
     2    1   82 1    
     3    1   83 1    
     4    1   84 1    
     5    2    3 2    
     6    2    4 am   BACKBONE|DICT|INTERRES
     7    4    5 1    
     8    4   85 1    
     9    5    6 1    
    10    5   80 1    
    11    5   86 1    
    12    6    7 1    
    13    6   87 1    
    14    6   88 1    
    15    7    8 1    
    16    8    9 1    
    17    8   89 1    
    18    8   90 1    
    19    9   10 ar   
    20    9   14 ar   
    21   10   11 ar   
    22   10   91 1    
    23   11   12 ar   
    24   11   58 1    
    25   12   13 ar   
    26   12   92 1    
    27   13   14 ar   
    28   13   15 1    
    29   14   93 1    
    30   15   16 1    
    31   15   94 1    
    32   15   95 1    
    33   16   17 1    
    34   17   18 1    
    35   17   96 1    
    36   17   97 1    
    37   18   19 1    
    38   18   22 1    
    39   18   98 1    
    40   19   20 am   BACKBONE|DICT|INTERRES
    41   19   21 2    
    42   20   99 1    
    43   20  100 1    
    44   22   23 am   BACKBONE|DICT|INTERRES
    45   22  101 1    
    46   23   24 2    
    47   23   25 1    
    48   25   26 1    
    49   25   27 1    
    50   25  102 1    
    51   26  103 1    
    52   26  104 1    
    53   26  105 1    
    54   27   28 am   BACKBONE|DICT|INTERRES
    55   27  106 1    
    56   28   29 2    
    57   28   30 1    
    58   30   31 1    
    59   30   32 1    
    60   30  107 1    
    61   31  108 1    
    62   31  109 1    
    63   31  110 1    
    64   32   33 am   BACKBONE|DICT|INTERRES
    65   32  111 1    
    66   33   34 2    
    67   33   35 1    
    68   35   36 1    
    69   35   37 1    
    70   35  112 1    
    71   36  113 1    
    72   36  114 1    
    73   36  115 1    
    74   37   38 am   BACKBONE|DICT|INTERRES
    75   37  116 1    
    76   38   39 2    
    77   38   40 1    
    78   40   41 1    
    79   40   42 1    
    80   40  117 1    
    81   41  118 1    
    82   41  119 1    
    83   41  120 1    
    84   42   43 am   BACKBONE|DICT|INTERRES
    85   42  121 1    
    86   43   44 2    
    87   43   45 1    
    88   45   46 1    
    89   45   47 1    
    90   45  122 1    
    91   46  123 1    
    92   46  124 1    
    93   46  125 1    
    94   47   48 am   BACKBONE|DICT|INTERRES
    95   47  126 1    
    96   48   49 2    
    97   48   50 1    
    98   50   51 1    
    99   50   52 1    
   100   50  127 1    
   101   51  128 1    
   102   51  129 1    
   103   51  130 1    
   104   52   53 am   BACKBONE|DICT|INTERRES
   105   52  131 1    
   106   53   54 2    
   107   53   55 1    
   108   55   56 1    
   109   55   59 1    
   110   55  132 1    
   111   56   57 1    
   112   56  133 1    
   113   56  134 1    
   114   57   58 1    
   115   58  135 1    
   116   58  136 1    
   117   59   60 am   BACKBONE|DICT|INTERRES
   118   59  137 1    
   119   60   61 2    
   120   60   62 1    
   121   62   63 1    
   122   62   64 1    
   123   62  138 1    
   124   63  139 1    
   125   63  140 1    
   126   63  141 1    
   127   64   65 am   BACKBONE|DICT|INTERRES
   128   64  142 1    
   129   65   66 2    
   130   65   67 1    
   131   67   68 1    
   132   67   69 1    
   133   67  143 1    
   134   68  144 1    
   135   68  145 1    
   136   68  146 1    
   137   69   70 am   BACKBONE|DICT|INTERRES
   138   69  147 1    
   139   70   71 2    
   140   70   72 1    
   141   72   73 1    
   142   72   74 1    
   143   72  148 1    
   144   73  149 1    
   145   73  150 1    
   146   73  151 1    
   147   74   75 am   BACKBONE|DICT|INTERRES
   148   74  152 1    
   149   75   76 2    
   150   75   77 1    
   151   77   78 1    
   152   77   79 1    
   153   77  153 1    
   154   78  154 1    
   155   78  155 1    
   156   78  156 1    
   157   79   80 am   BACKBONE|DICT|INTERRES
   158   79  157 1    
   159   80   81 2    
@<TRIPOS>SUBSTRUCTURE
     1 UNK         1 GROUP             0       ****    0 ROOT    
