@<TRIPOS>MOLECULE
3R207
157   159    1
SMALL
USER_CHARGES


@<TRIPOS>ATOM
      1 CA        -46.1795  -29.8588   11.0097 C.3       0 UNK        -0.1975 
      2 C         -46.9057  -29.3449    9.7768 C.2       0 UNK         0.4852 
      3 O         -46.2631  -29.0099    8.7799 O.2       0 UNK        -0.5216 
      4 N         -48.2429  -29.2800    9.8541 N.am      1 UNK        -0.4461 
      5 CA        -49.1664  -28.8572    8.7929 C.3       1 UNK         0.0864 
      6 C6        -50.6289  -28.8079    9.3081 C.3       14 UNK        -0.0898 
      7 S7        -51.8522  -29.0757    7.9806 S.3       14 UNK        -0.2598 
      8 C8        -52.4240  -27.3830    7.6225 C.3       14 UNK         0.0286 
      9 C9        -53.5355  -26.9346    8.5611 C.ar      14 UNK        -0.0844 
     10 C10       -53.2379  -26.2019    9.7139 C.ar      14 UNK        -0.0881 
     11 C11       -54.2621  -25.7473   10.5505 C.ar      14 UNK        -0.0643 
     12 C12       -55.5915  -26.0264   10.2232 C.ar      14 UNK        -0.0930 
     13 C13       -55.9032  -26.7690    9.0808 C.ar      14 UNK        -0.0827 
     14 C14       -54.8697  -27.2220    8.2546 C.ar      14 UNK        -0.1249 
     15 C15       -57.3573  -27.0526    8.7248 C.3       14 UNK         0.0141 
     16 S16       -58.2226  -28.0118   10.0099 S.3       14 UNK        -0.2313 
     17 C17       -57.4401  -29.6476    9.8256 C.3       14 UNK        -0.0915 
     18 CA        -57.7437  -30.5886   11.0216 C.3       13 UNK         0.0968 
     19 C         -57.2258  -32.0295   10.7323 C.2       13 UNK         0.5732 
     20 N         -56.2512  -32.5609   11.4625 N.am      13 UNK        -0.7310 
     21 O         -57.7294  -32.6855    9.8235 O.2       13 UNK        -0.5035 
     22 N         -57.2736  -30.0118   12.2895 N.am      13 UNK        -0.4233 
     23 C         -57.6352  -30.4204   13.5128 C.2       13 UNK         0.4989 
     24 O         -58.5184  -31.2545   13.7203 O.2       13 UNK        -0.4996 
     25 CA        -56.8623  -29.8006   14.6992 C.3       12 UNK         0.0216 
     26 CB        -56.8757  -30.7019   15.9519 C.3       12 UNK        -0.1964 
     27 N         -55.4840  -29.4161   14.3574 N.am      12 UNK        -0.4276 
     28 C         -54.5186  -30.1965   13.8535 C.2       12 UNK         0.5020 
     29 O         -54.6490  -31.4058   13.6596 O.2       12 UNK        -0.5489 
     30 CA        -53.2105  -29.5162   13.4168 C.3       11 UNK         0.0294 
     31 CB        -53.3659  -28.9451   11.9955 C.3       11 UNK        -0.2019 
     32 N         -52.6594  -28.4986   14.3231 N.am      11 UNK        -0.4493 
     33 C         -53.1570  -27.3209   14.7243 C.2       11 UNK         0.4932 
     34 O         -54.3047  -26.9445   14.4893 O.2       11 UNK        -0.5029 
     35 CA        -52.2023  -26.3826   15.4909 C.3       10 UNK         0.0280 
     36 CB        -52.0969  -26.7763   16.9767 C.3       10 UNK        -0.1976 
     37 N         -50.8791  -26.2362   14.8599 N.am      10 UNK        -0.4242 
     38 C         -49.9279  -27.1699   14.6961 C.2       10 UNK         0.5072 
     39 O         -49.9935  -28.3089   15.1618 O.2       10 UNK        -0.5224 
     40 CA        -48.7416  -26.8137   13.7899 C.3       9 UNK         0.0343 
     41 CB        -49.1362  -27.0405   12.3218 C.3       9 UNK        -0.2003 
     42 N         -48.2456  -25.4486   13.9547 N.am      9 UNK        -0.4272 
     43 C         -47.6260  -24.9837   15.0491 C.2       9 UNK         0.4988 
     44 O         -47.4564  -25.6419   16.0758 O.2       9 UNK        -0.5108 
     45 CA        -47.0813  -23.5498   14.9801 C.3       8 UNK         0.0248 
     46 CB        -45.7385  -23.5246   14.2330 C.3       8 UNK        -0.2001 
     47 N         -48.0261  -22.6552   14.3115 N.am      8 UNK        -0.4140 
     48 C         -48.9042  -21.8693   14.9493 C.2       8 UNK         0.5028 
     49 O         -48.9578  -21.7532   16.1747 O.2       8 UNK        -0.5428 
     50 CA        -49.9011  -21.0728   14.0847 C.3       7 UNK         0.0264 
     51 CB        -49.3668  -19.6559   13.8189 C.3       7 UNK        -0.1988 
     52 N         -50.2401  -21.7060   12.8062 N.am      7 UNK        -0.4454 
     53 C         -50.8349  -22.9009   12.6764 C.2       7 UNK         0.5027 
     54 O         -51.1378  -23.6249   13.6266 O.2       7 UNK        -0.5083 
     55 CA        -51.0681  -23.4126   11.2378 C.3       6 UNK         0.0844 
     56 C56       -52.3980  -22.9051   10.6169 C.3       14 UNK        -0.0967 
     57 S57       -53.9193  -23.1855   11.5922 S.3       14 UNK        -0.2604 
     58 C58       -53.9425  -24.9900   11.8300 C.3       14 UNK         0.0134 
     59 N         -49.9447  -23.1721   10.3222 N.am      6 UNK        -0.4116 
     60 C         -48.6607  -23.4962   10.5318 C.2       5 UNK         0.5034 
     61 O         -48.2213  -23.9068   11.6086 O.2       5 UNK        -0.5045 
     62 CA        -47.7264  -23.3236    9.3257 C.3       5 UNK         0.0224 
     63 CB        -47.2348  -21.8696    9.1785 C.3       5 UNK        -0.1978 
     64 N         -46.6372  -24.3060    9.3563 N.am      5 UNK        -0.4737 
     65 C         -45.4866  -24.2920   10.0457 C.2       4 UNK         0.5027 
     66 O         -45.0629  -23.3349   10.6931 O.2       4 UNK        -0.5211 
     67 CA        -44.6527  -25.5848   10.0015 C.3       4 UNK         0.0297 
     68 CB        -45.0019  -26.4830   11.1972 C.3       4 UNK        -0.1993 
     69 N         -44.8351  -26.3297    8.7502 N.am      4 UNK        -0.4486 
     70 C         -44.2550  -25.9849    7.5913 C.2       3 UNK         0.4961 
     71 O         -43.4328  -25.0751    7.4774 O.2       3 UNK        -0.5105 
     72 CA        -44.6838  -26.7687    6.3410 C.3       3 UNK         0.0299 
     73 CB        -43.9824  -28.1351    6.2723 C.3       3 UNK        -0.1972 
     74 N         -46.1372  -26.9415    6.2767 N.am      3 UNK        -0.4305 
     75 C         -46.9988  -25.9549    5.9810 C.2       2 UNK         0.5006 
     76 O         -46.6501  -24.8113    5.6868 O.2       2 UNK        -0.5106 
     77 CA        -48.5049  -26.2796    6.0071 C.3       2 UNK         0.0296 
     78 CB        -49.0406  -26.4710    4.5788 C.3       2 UNK        -0.2002 
     79 N         -48.8505  -27.4555    6.8081 N.am      2 UNK        -0.4032 
     80 C         -48.7660  -27.5153    8.1430 C.2       1 UNK         0.5000 
     81 O         -48.3964  -26.5735    8.8480 O.2       1 UNK        -0.5238 
     82 H82       -45.1014  -29.7478   10.8959 H         1 UNK         0.0889 
     83 H83       -46.3950  -30.9158   11.1641 H         1 UNK         0.0889 
     84 H84       -46.4857  -29.3075   11.8987 H         1 UNK         0.0889 
     85 H85       -48.6837  -29.5745   10.7123 H         1 UNK         0.3028 
     86 H86       -49.0933  -29.6365    8.0313 H         1 UNK         0.0864 
     87 H87       -50.7959  -29.6080   10.0309 H         1 UNK         0.0720 
     88 H88       -50.8348  -27.8817    9.8459 H         1 UNK         0.0720 
     89 H89       -52.7866  -27.3527    6.5939 H         1 UNK         0.0814 
     90 H90       -51.5877  -26.6842    7.6613 H         1 UNK         0.0814 
     91 H91       -52.2087  -25.9853    9.9571 H         1 UNK         0.1469 
     92 H92       -56.3874  -25.6739   10.8651 H         1 UNK         0.1381 
     93 H93       -55.1022  -27.7884    7.3630 H         1 UNK         0.1206 
     94 H94       -57.8758  -26.1027    8.5889 H         1 UNK         0.0813 
     95 H95       -57.4331  -27.5811    7.7732 H         1 UNK         0.0813 
     96 H96       -56.3619  -29.5188    9.7122 H         1 UNK         0.0638 
     97 H97       -57.8001  -30.0799    8.8901 H         1 UNK         0.0638 
     98 H98       -58.8289  -30.6796   11.0979 H         1 UNK         0.0568 
     99 H99       -55.9424  -33.4964   11.2531 H         1 UNK         0.3450 
    100 H100      -55.8176  -32.0519   12.2265 H         1 UNK         0.3450 
    101 H101      -56.5535  -29.3106   12.2112 H         1 UNK         0.2987 
    102 H102      -57.3841  -28.8758   14.9492 H         1 UNK         0.0766 
    103 H103      -56.3372  -30.2390   16.7789 H         1 UNK         0.0798 
    104 H104      -56.4187  -31.6724   15.7556 H         1 UNK         0.0798 
    105 H105      -57.8951  -30.8851   16.2938 H         1 UNK         0.0798 
    106 H106      -55.2529  -28.4258   14.4519 H         1 UNK         0.3198 
    107 H107      -52.4534  -30.3010   13.3730 H         1 UNK         0.0843 
    108 H108      -53.6232  -29.7283   11.2808 H         1 UNK         0.0831 
    109 H109      -52.4428  -28.4816   11.6508 H         1 UNK         0.0831 
    110 H110      -54.1532  -28.1931   11.9473 H         1 UNK         0.0831 
    111 H111      -51.7082  -28.6850   14.6383 H         1 UNK         0.3133 
    112 H112      -52.6477  -25.3872   15.4505 H         1 UNK         0.0566 
    113 H113      -51.4646  -26.0787   17.5259 H         1 UNK         0.0814 
    114 H114      -53.0796  -26.7652   17.4500 H         1 UNK         0.0814 
    115 H115      -51.6865  -27.7773   17.1115 H         1 UNK         0.0814 
    116 H116      -50.7381  -25.3354   14.4071 H         1 UNK         0.3091 
    117 H117      -47.9227  -27.4946   14.0318 H         1 UNK         0.0702 
    118 H118      -49.9478  -26.3819   12.0147 H         1 UNK         0.0785 
    119 H119      -49.4756  -28.0645   12.1659 H         1 UNK         0.0785 
    120 H120      -48.2994  -26.8646   11.6476 H         1 UNK         0.0785 
    121 H121      -48.2961  -24.8495   13.1327 H         1 UNK         0.2998 
    122 H122      -46.9003  -23.2096   16.0020 H         1 UNK         0.0697 
    123 H123      -45.8462  -23.8595   13.2013 H         1 UNK         0.0825 
    124 H124      -45.0098  -24.1781   14.7143 H         1 UNK         0.0825 
    125 H125      -45.3134  -22.5211   14.2144 H         1 UNK         0.0825 
    126 H126      -48.0789  -22.7286   13.3017 H         1 UNK         0.3029 
    127 H127      -50.8255  -20.9873   14.6602 H         1 UNK         0.0897 
    128 H128      -48.4564  -19.6735   13.2183 H         1 UNK         0.0792 
    129 H129      -49.1298  -19.1465   14.7542 H         1 UNK         0.0792 
    130 H130      -50.1032  -19.0437   13.2979 H         1 UNK         0.0792 
    131 H131      -50.0053  -21.1933   11.9686 H         1 UNK         0.3086 
    132 H132      -51.1315  -24.4965   11.3167 H         1 UNK         0.0583 
    133 H133      -52.3307  -21.8318   10.4297 H         1 UNK         0.1020 
    134 H134      -52.5481  -23.3611    9.6371 H         1 UNK         0.1020 
    135 H135      -53.0047  -25.3373   12.2629 H         1 UNK         0.0694 
    136 H136      -54.7069  -25.2122   12.5751 H         1 UNK         0.0694 
    137 H137      -50.1959  -22.8097    9.4142 H         1 UNK         0.2989 
    138 H138      -48.2982  -23.5740    8.4305 H         1 UNK         0.1055 
    139 H139      -48.0640  -21.1995    8.9494 H         1 UNK         0.0806 
    140 H140      -46.5099  -21.7756    8.3698 H         1 UNK         0.0806 
    141 H141      -46.7701  -21.4995   10.0929 H         1 UNK         0.0806 
    142 H142      -46.9021  -25.1998    8.9548 H         1 UNK         0.3061 
    143 H143      -43.6009  -25.3036   10.0905 H         1 UNK         0.0734 
    144 H144      -44.3777  -27.3758   11.2183 H         1 UNK         0.0832 
    145 H145      -44.8449  -25.9564   12.1394 H         1 UNK         0.0832 
    146 H146      -46.0451  -26.7942   11.1714 H         1 UNK         0.0832 
    147 H147      -45.4701  -27.1225    8.7603 H         1 UNK         0.3156 
    148 H148      -44.3722  -26.1944    5.4656 H         1 UNK         0.0589 
    149 H149      -44.2410  -28.7729    7.1175 H         1 UNK         0.0808 
    150 H150      -44.2423  -28.6686    5.3579 H         1 UNK         0.0808 
    151 H151      -42.8983  -28.0143    6.2785 H         1 UNK         0.0808 
    152 H152      -46.5003  -27.8457    6.5454 H         1 UNK         0.3098 
    153 H153      -49.0116  -25.4170    6.4455 H         1 UNK         0.0720 
    154 H154      -50.1213  -26.6153    4.5755 H         1 UNK         0.0791 
    155 H155      -48.5837  -27.3310    4.0874 H         1 UNK         0.0791 
    156 H156      -48.8316  -25.5952    3.9625 H         1 UNK         0.0791 
    157 H157      -49.1723  -28.2682    6.3015 H         1 UNK         0.3028 
@<TRIPOS>BOND
     1    1    2 1    
     2    1   82 1    
     3    1   83 1    
     4    1   84 1    
     5    2    3 2    
     6    2    4 am   BACKBONE|DICT|INTERRES
     7    4    5 1    
     8    4   85 1    
     9    5    6 1    
    10    5   80 1    
    11    5   86 1    
    12    6    7 1    
    13    6   87 1    
    14    6   88 1    
    15    7    8 1    
    16    8    9 1    
    17    8   89 1    
    18    8   90 1    
    19    9   10 ar   
    20    9   14 ar   
    21   10   11 ar   
    22   10   91 1    
    23   11   12 ar   
    24   11   58 1    
    25   12   13 ar   
    26   12   92 1    
    27   13   14 ar   
    28   13   15 1    
    29   14   93 1    
    30   15   16 1    
    31   15   94 1    
    32   15   95 1    
    33   16   17 1    
    34   17   18 1    
    35   17   96 1    
    36   17   97 1    
    37   18   19 1    
    38   18   22 1    
    39   18   98 1    
    40   19   20 am   BACKBONE|DICT|INTERRES
    41   19   21 2    
    42   20   99 1    
    43   20  100 1    
    44   22   23 am   BACKBONE|DICT|INTERRES
    45   22  101 1    
    46   23   24 2    
    47   23   25 1    
    48   25   26 1    
    49   25   27 1    
    50   25  102 1    
    51   26  103 1    
    52   26  104 1    
    53   26  105 1    
    54   27   28 am   BACKBONE|DICT|INTERRES
    55   27  106 1    
    56   28   29 2    
    57   28   30 1    
    58   30   31 1    
    59   30   32 1    
    60   30  107 1    
    61   31  108 1    
    62   31  109 1    
    63   31  110 1    
    64   32   33 am   BACKBONE|DICT|INTERRES
    65   32  111 1    
    66   33   34 2    
    67   33   35 1    
    68   35   36 1    
    69   35   37 1    
    70   35  112 1    
    71   36  113 1    
    72   36  114 1    
    73   36  115 1    
    74   37   38 am   BACKBONE|DICT|INTERRES
    75   37  116 1    
    76   38   39 2    
    77   38   40 1    
    78   40   41 1    
    79   40   42 1    
    80   40  117 1    
    81   41  118 1    
    82   41  119 1    
    83   41  120 1    
    84   42   43 am   BACKBONE|DICT|INTERRES
    85   42  121 1    
    86   43   44 2    
    87   43   45 1    
    88   45   46 1    
    89   45   47 1    
    90   45  122 1    
    91   46  123 1    
    92   46  124 1    
    93   46  125 1    
    94   47   48 am   BACKBONE|DICT|INTERRES
    95   47  126 1    
    96   48   49 2    
    97   48   50 1    
    98   50   51 1    
    99   50   52 1    
   100   50  127 1    
   101   51  128 1    
   102   51  129 1    
   103   51  130 1    
   104   52   53 am   BACKBONE|DICT|INTERRES
   105   52  131 1    
   106   53   54 2    
   107   53   55 1    
   108   55   56 1    
   109   55   59 1    
   110   55  132 1    
   111   56   57 1    
   112   56  133 1    
   113   56  134 1    
   114   57   58 1    
   115   58  135 1    
   116   58  136 1    
   117   59   60 am   BACKBONE|DICT|INTERRES
   118   59  137 1    
   119   60   61 2    
   120   60   62 1    
   121   62   63 1    
   122   62   64 1    
   123   62  138 1    
   124   63  139 1    
   125   63  140 1    
   126   63  141 1    
   127   64   65 am   BACKBONE|DICT|INTERRES
   128   64  142 1    
   129   65   66 2    
   130   65   67 1    
   131   67   68 1    
   132   67   69 1    
   133   67  143 1    
   134   68  144 1    
   135   68  145 1    
   136   68  146 1    
   137   69   70 am   BACKBONE|DICT|INTERRES
   138   69  147 1    
   139   70   71 2    
   140   70   72 1    
   141   72   73 1    
   142   72   74 1    
   143   72  148 1    
   144   73  149 1    
   145   73  150 1    
   146   73  151 1    
   147   74   75 am   BACKBONE|DICT|INTERRES
   148   74  152 1    
   149   75   76 2    
   150   75   77 1    
   151   77   78 1    
   152   77   79 1    
   153   77  153 1    
   154   78  154 1    
   155   78  155 1    
   156   78  156 1    
   157   79   80 am   BACKBONE|DICT|INTERRES
   158   79  157 1    
   159   80   81 2    
@<TRIPOS>SUBSTRUCTURE
     1 UNK         1 GROUP             0       ****    0 ROOT    
